@<TRIPOS>MOLECULE
mol_data/opt/cam/geoms/mol2/1111-11-11-.out
 10 9 0 0 0
SMALL
GASTEIGER

@<TRIPOS>ATOM
      1 O           1.1730    2.8583    0.6478 O.2     1  LIG1       -0.2922
      2 C           0.0600    2.8663    0.1830 C.2     1  LIG1        0.1935
      3 H          -0.5378    3.7824    0.0254 H       1  LIG1        0.1117
      4 O          -1.7322    1.5803   -0.6969 O.2     1  LIG1       -0.2803
      5 C          -0.6273    1.5692   -0.2177 C.2     1  LIG1        0.2673
      6 O          -0.4833   -0.6898    0.4945 O.2     1  LIG1       -0.2803
      7 C           0.1247    0.2540    0.0654 C.2     1  LIG1        0.2673
      8 O           2.2766   -0.7540    0.1927 O.2     1  LIG1       -0.2922
      9 C           1.6321    0.1630   -0.2356 C.2     1  LIG1        0.1935
     10 H           2.0675    0.9624   -0.8618 H       1  LIG1        0.1117
@<TRIPOS>BOND
     1    10     9    1
     2     4     5    2
     3     9     7    1
     4     9     8    2
     5     5     7    1
     6     5     2    1
     7     3     2    1
     8     7     6    2
     9     2     1    2
