@<TRIPOS>MOLECULE
mol_data/opt/cam/geoms/mol2/11111111-.out
 10 9 0 0 0
SMALL
GASTEIGER

@<TRIPOS>ATOM
      1 O           1.5272    2.7814   -0.2189 O.2     1  LIG1       -0.2922
      2 C           0.3982    2.6770    0.1738 C.2     1  LIG1        0.1935
      3 H          -0.0927    3.4425    0.8013 H       1  LIG1        0.1117
      4 O           0.0949    0.4358   -0.6134 O.2     1  LIG1       -0.2803
      5 C          -0.4284    1.4264   -0.1778 C.2     1  LIG1        0.2673
      6 O          -2.5284    0.4706    0.5035 O.2     1  LIG1       -0.2803
      7 C          -1.9509    1.4306    0.0615 C.2     1  LIG1        0.2673
      8 O          -2.1374    3.6527   -0.7627 O.2     1  LIG1       -0.2922
      9 C          -2.7161    2.6846   -0.3350 C.2     1  LIG1        0.1935
     10 H          -3.8126    2.6247   -0.2104 H       1  LIG1        0.1117
@<TRIPOS>BOND
     1     8     9    2
     2     4     5    2
     3     9    10    1
     4     9     7    1
     5     1     2    2
     6     5     7    1
     7     5     2    1
     8     7     6    2
     9     2     3    1
