@<TRIPOS>MOLECULE
mol_data/opt/cam/geoms/mol2/1111-11-11.out
 10 9 0 0 0
SMALL
GASTEIGER

@<TRIPOS>ATOM
      1 O           0.8909    2.8870   -1.1240 O.2     1  LIG1       -0.2922
      2 C           0.0018    2.8736   -0.3112 C.2     1  LIG1        0.1935
      3 H          -0.4822    3.7786    0.0988 H       1  LIG1        0.1117
      4 O          -1.5092    1.4848    0.9155 O.2     1  LIG1       -0.2803
      5 C          -0.5442    1.5496    0.1996 C.2     1  LIG1        0.2673
      6 O          -0.3254   -0.4860   -1.0676 O.2     1  LIG1       -0.2803
      7 C           0.1880    0.2968   -0.3115 C.2     1  LIG1        0.2673
      8 O           2.0114    0.8276    1.1003 O.2     1  LIG1       -0.2922
      9 C           1.5845    0.0865    0.2519 C.2     1  LIG1        0.1935
     10 H           2.1377   -0.7787   -0.1563 H       1  LIG1        0.1117
@<TRIPOS>BOND
     1     1     2    2
     2     6     7    2
     3     7     5    1
     4     7     9    1
     5     2     3    1
     6     2     5    1
     7    10     9    1
     8     5     4    2
     9     9     8    2
