@<TRIPOS>MOLECULE
mol_data/opt/cam/geoms/mol2/1111.out
 6 5 0 0 0
SMALL
GASTEIGER

@<TRIPOS>ATOM
      1 O           1.3839    2.7482    0.0016 O.2     1  LIG1       -0.2930
      2 C           0.1835    2.7116   -0.0166 C.2     1  LIG1        0.1821
      3 H          -0.4443    3.6271   -0.0030 H       1  LIG1        0.1109
      4 O          -0.0253    0.3257   -0.0789 O.2     1  LIG1       -0.2930
      5 C          -0.5868    1.3873   -0.0606 C.2     1  LIG1        0.1821
      6 H          -1.6930    1.4805   -0.0743 H       1  LIG1        0.1109
@<TRIPOS>BOND
     1     4     5    2
     2     6     5    1
     3     5     2    1
     4     2     3    1
     5     2     1    2
