@<TRIPOS>MOLECULE
mol_data/opt/cam/geoms/mol2/1111-11-.out
 8 7 0 0 0
SMALL
GASTEIGER

@<TRIPOS>ATOM
      1 O           1.3993    2.7970    0.0053 O.2     1  LIG1       -0.2922
      2 C           0.1942    2.7895   -0.0161 C.2     1  LIG1        0.1927
      3 H          -0.4268    3.7055   -0.0108 H       1  LIG1        0.1117
      4 O          -1.8083    1.5248   -0.0741 O.2     1  LIG1       -0.2811
      5 C          -0.6039    1.4933   -0.0534 C.2     1  LIG1        0.2566
      6 O          -0.4039   -0.8773   -0.0921 O.2     1  LIG1       -0.2922
      7 C           0.1810    0.1728   -0.0630 C.2     1  LIG1        0.1927
      8 H           1.2809    0.2519   -0.0421 H       1  LIG1        0.1117
@<TRIPOS>BOND
     1     6     7    2
     2     4     5    2
     3     7     5    1
     4     7     8    1
     5     5     2    1
     6     2     3    1
     7     2     1    2
