@<TRIPOS>MOLECULE
mol_data/opt/cam/geoms/mol2/1111-.out
 6 5 0 0 0
SMALL
GASTEIGER

@<TRIPOS>ATOM
      1 O           1.4123    2.6875    0.0029 O.2     1  LIG1       -0.2930
      2 C           0.2081    2.6894   -0.0156 C.2     1  LIG1        0.1821
      3 H          -0.4088    3.6086   -0.0008 H       1  LIG1        0.1109
      4 O          -1.7856    1.3939   -0.0797 O.2     1  LIG1       -0.2930
      5 C          -0.5814    1.3920   -0.0614 C.2     1  LIG1        0.1821
      6 H           0.0355    0.4728   -0.0761 H       1  LIG1        0.1109
@<TRIPOS>BOND
     1     4     5    2
     2     6     5    1
     3     5     2    1
     4     2     3    1
     5     2     1    2
