@<TRIPOS>MOLECULE
mol_data/opt/cam/geoms/mol2/111111-11-.out
 10 9 0 0 0
SMALL
GASTEIGER

@<TRIPOS>ATOM
      1 O           1.5484    2.8188    0.0063 O.2     1  LIG1       -0.2922
      2 C           0.3470    2.8069   -0.0220 C.2     1  LIG1        0.1935
      3 H          -0.2693    3.7205   -0.0303 H       1  LIG1        0.1117
      4 O           0.1879    0.4094   -0.0420 O.2     1  LIG1       -0.2803
      5 C          -0.4008    1.4622   -0.0486 C.2     1  LIG1        0.2673
      6 O          -2.5145    2.5578   -0.0913 O.2     1  LIG1       -0.2803
      7 C          -1.9257    1.5050   -0.0839 C.2     1  LIG1        0.2673
      8 O          -3.8750    0.1484   -0.1374 O.2     1  LIG1       -0.2922
      9 C          -2.6736    0.1603   -0.1095 C.2     1  LIG1        0.1935
     10 H          -2.0573   -0.7533   -0.1008 H       1  LIG1        0.1117
@<TRIPOS>BOND
     1     8     9    2
     2     9    10    1
     3     9     7    1
     4     6     7    2
     5     7     5    1
     6     5     4    2
     7     5     2    1
     8     3     2    1
     9     2     1    2
