@<TRIPOS>MOLECULE
mol_data/opt/cam/geoms/mol2/111111-11.out
 10 9 0 0 0
SMALL
GASTEIGER

@<TRIPOS>ATOM
      1 O           1.5118    2.8347    0.1480 O.2     1  LIG1       -0.2922
      2 C           0.3128    2.7692    0.1461 C.2     1  LIG1        0.1935
      3 H          -0.3396    3.6054    0.4536 H       1  LIG1        0.1117
      4 O           0.2270    0.5139   -0.6838 O.2     1  LIG1       -0.2803
      5 C          -0.3871    1.4670   -0.2833 C.2     1  LIG1        0.2673
      6 O          -2.5128    2.5057   -0.5049 O.2     1  LIG1       -0.2803
      7 C          -1.9129    1.4817   -0.2729 C.2     1  LIG1        0.2673
      8 O          -2.1849   -0.7217    0.6240 O.2     1  LIG1       -0.2922
      9 C          -2.6769    0.1940    0.0222 C.2     1  LIG1        0.1935
     10 H          -3.7326    0.2226   -0.3097 H       1  LIG1        0.1117
@<TRIPOS>BOND
     1     4     5    2
     2     6     7    2
     3    10     9    1
     4     5     7    1
     5     5     2    1
     6     7     9    1
     7     9     8    2
     8     2     1    2
     9     2     3    1
