@<TRIPOS>MOLECULE
mol_data/opt/cam/geoms/mol2/111111.out
 8 7 0 0 0
SMALL
GASTEIGER

@<TRIPOS>ATOM
      1 O           1.4737    2.7920    0.0125 O.2     1  LIG1       -0.2922
      2 C           0.2738    2.7475   -0.0192 C.2     1  LIG1        0.1927
      3 H          -0.3488    3.6651   -0.0217 H       1  LIG1        0.1117
      4 O           0.1259    0.3615   -0.0583 O.2     1  LIG1       -0.2811
      5 C          -0.4704    1.4050   -0.0583 C.2     1  LIG1        0.2566
      6 O          -2.6524    0.4343   -0.1291 O.2     1  LIG1       -0.2922
      7 C          -2.0049    1.4454   -0.0974 C.2     1  LIG1        0.1927
      8 H          -2.4793    2.4477   -0.0948 H       1  LIG1        0.1117
@<TRIPOS>BOND
     1     6     7    2
     2     7     8    1
     3     7     5    1
     4     4     5    2
     5     5     2    1
     6     3     2    1
     7     2     1    2
