@<TRIPOS>MOLECULE
mol_data/opt/cam/geoms/mol2/111111-.out
 8 7 0 0 0
SMALL
GASTEIGER

@<TRIPOS>ATOM
      1 O           1.4739    2.7502    0.0161 O.2     1  LIG1       -0.2922
      2 C           0.2721    2.7334   -0.0181 C.2     1  LIG1        0.1927
      3 H          -0.3454    3.6473   -0.0225 H       1  LIG1        0.1117
      4 O           0.0935    0.3350   -0.0562 O.2     1  LIG1       -0.2811
      5 C          -0.4803    1.3947   -0.0583 C.2     1  LIG1        0.2566
      6 O          -2.6098    2.4808   -0.1013 O.2     1  LIG1       -0.2922
      7 C          -2.0017    1.4401   -0.0992 C.2     1  LIG1        0.1927
      8 H          -2.4854    0.4450   -0.1256 H       1  LIG1        0.1117
@<TRIPOS>BOND
     1     8     7    1
     2     6     7    2
     3     7     5    1
     4     5     4    2
     5     5     2    1
     6     3     2    1
     7     2     1    2
