@<TRIPOS>MOLECULE
mol_data/opt/cam/geoms/mol2/1111-1111-.out
 10 9 0 0 0
SMALL
GASTEIGER

@<TRIPOS>ATOM
      1 O           0.7891    2.1671    1.1997 O.2     1  LIG1       -0.2922
      2 C          -0.0632    2.5310    0.4300 C.2     1  LIG1        0.1935
      3 H          -0.5642    3.5151    0.4738 H       1  LIG1        0.1117
      4 O          -1.2537    1.9907   -1.5719 O.2     1  LIG1       -0.2803
      5 C          -0.4982    1.6239   -0.7101 C.2     1  LIG1        0.2673
      6 O           0.9289   -0.1198   -1.5589 O.2     1  LIG1       -0.2803
      7 C           0.1419    0.2249   -0.7165 C.2     1  LIG1        0.2673
      8 O          -1.2151   -0.3670    1.1296 O.2     1  LIG1       -0.2922
      9 C          -0.3347   -0.7113    0.3828 C.2     1  LIG1        0.1935
     10 H           0.1647   -1.6964    0.4195 H       1  LIG1        0.1117
@<TRIPOS>BOND
     1     4     5    2
     2     6     7    2
     3     7     5    1
     4     7     9    1
     5     5     2    1
     6     9    10    1
     7     9     8    2
     8     2     3    1
     9     2     1    2
