@<TRIPOS>MOLECULE
mol_data/opt/cam/geoms/mol2/11111111.out
 10 9 0 0 0
SMALL
GASTEIGER

@<TRIPOS>ATOM
      1 O           1.5665    2.7714   -0.0453 O.2     1  LIG1       -0.2922
      2 C           0.3962    2.6817    0.2028 C.2     1  LIG1        0.1935
      3 H          -0.1638    3.4898    0.7179 H       1  LIG1        0.1117
      4 O           0.1636    0.4303   -0.5667 O.2     1  LIG1       -0.2803
      5 C          -0.3976    1.4156   -0.1695 C.2     1  LIG1        0.2673
      6 O          -2.5001    0.4454    0.4107 O.2     1  LIG1       -0.2803
      7 C          -1.9276    1.4243    0.0135 C.2     1  LIG1        0.2673
      8 O          -3.8761    2.8025   -0.1105 O.2     1  LIG1       -0.2922
      9 C          -2.7069    2.6994   -0.3587 C.2     1  LIG1        0.1935
     10 H          -2.1377    3.5012   -0.8737 H       1  LIG1        0.1117
@<TRIPOS>BOND
     1    10     9    1
     2     4     5    2
     3     9     8    2
     4     9     7    1
     5     5     7    1
     6     5     2    1
     7     1     2    2
     8     7     6    2
     9     2     3    1
