@<TRIPOS>MOLECULE
mol_data/opt/cam/geoms/mol2/1111-1111.out
 10 9 0 0 0
SMALL
GASTEIGER

@<TRIPOS>ATOM
      1 O           1.2356    2.8869   -0.7341 O.2     1  LIG1       -0.2922
      2 C           0.1863    2.8679   -0.1499 C.2     1  LIG1        0.1935
      3 H          -0.3649    3.7746    0.1654 H       1  LIG1        0.1117
      4 O          -1.7524    1.5889    0.3548 O.2     1  LIG1       -0.2803
      5 C          -0.5619    1.5704    0.1431 C.2     1  LIG1        0.2673
      6 O           1.3282    0.1898    0.5972 O.2     1  LIG1       -0.2803
      7 C           0.2031    0.2506    0.1771 C.2     1  LIG1        0.2673
      8 O          -0.0428   -2.0792   -0.2396 O.2     1  LIG1       -0.2922
      9 C          -0.5771   -1.0041   -0.2555 C.2     1  LIG1        0.1935
     10 H          -1.6209   -0.8516   -0.5819 H       1  LIG1        0.1117
@<TRIPOS>BOND
     1     1     2    2
     2    10     9    1
     3     9     8    2
     4     9     7    1
     5     2     5    1
     6     2     3    1
     7     5     7    1
     8     5     4    2
     9     7     6    2
