@<TRIPOS>MOLECULE
mol_data/opt/cam/geoms/mol2/1212-.out
 16 17 0 0 0
SMALL
GASTEIGER

@<TRIPOS>ATOM
      1 C           0.2076    1.8188   -0.0000 C.ar    1  LIG1        0.0927
      2 C           1.5618    1.8171   -0.0000 C.ar    1  LIG1       -0.0232
      3 C           1.9632    3.1880    0.0000 C.ar    1  LIG1       -0.0128
      4 C           0.8143    3.9173   -0.0000 C.ar    1  LIG1        0.1696
      5 O          -0.2664    3.0919   -0.0001 O.2     1  LIG1       -0.4598
      6 H          -0.5382    1.0404   -0.0000 H       1  LIG1        0.1029
      7 H           2.2022    0.9480   -0.0000 H       1  LIG1        0.0649
      8 H           2.9660    3.5858    0.0001 H       1  LIG1        0.0656
      9 C           0.5440    5.3326   -0.0001 C.ar    1  LIG1        0.1696
     10 C          -0.6049    6.0620   -0.0001 C.ar    1  LIG1       -0.0128
     11 C          -0.2036    7.4328   -0.0001 C.ar    1  LIG1       -0.0232
     12 C           1.1507    7.4311   -0.0001 C.ar    1  LIG1        0.0927
     13 O           1.6247    6.1581   -0.0000 O.2     1  LIG1       -0.4598
     14 H           1.8965    8.2095   -0.0000 H       1  LIG1        0.1029
     15 H          -1.6078    5.6641   -0.0001 H       1  LIG1        0.0656
     16 H          -0.8440    8.3019   -0.0001 H       1  LIG1        0.0649
@<TRIPOS>BOND
     1    15    10    1
     2    10    11   ar
     3    10     9   ar
     4    16    11    1
     5    11    12   ar
     6     5     4   ar
     7     5     1   ar
     8     9     4    1
     9     9    13   ar
    10    12    14    1
    11    12    13   ar
    12     4     3   ar
    13     7     2    1
    14     6     1    1
    15     2     1   ar
    16     2     3   ar
    17     3     8    1
