@<TRIPOS>MOLECULE
mol_data/opt/cam/geoms/mol2/121213.out
 24 26 0 0 0
SMALL
GASTEIGER

@<TRIPOS>ATOM
      1 C           0.3373    1.7221   -0.0000 C.ar    1  LIG1        0.0927
      2 C           1.6902    1.7886   -0.0002 C.ar    1  LIG1       -0.0232
      3 C           2.0206    3.1772   -0.0001 C.ar    1  LIG1       -0.0128
      4 C           0.8348    3.8504   -0.0001 C.ar    1  LIG1        0.1697
      5 O          -0.2002    2.9690   -0.0000 O.2     1  LIG1       -0.4598
      6 H          -0.3677    0.9066    0.0001 H       1  LIG1        0.1029
      7 H           2.3747    0.9538   -0.0003 H       1  LIG1        0.0649
      8 H           3.0064    3.6170   -0.0002 H       1  LIG1        0.0656
      9 C           0.5074    5.2546   -0.0001 C.ar    1  LIG1        0.1706
     10 C           1.2654    6.3869   -0.0001 C.ar    1  LIG1       -0.0121
     11 C           0.3579    7.4843   -0.0001 C.ar    1  LIG1       -0.0137
     12 C          -0.8959    6.9492    0.0000 C.ar    1  LIG1        0.1519
     13 O          -0.8144    5.5879    0.0000 O.2     1  LIG1       -0.4503
     14 H           2.3440    6.4322   -0.0001 H       1  LIG1        0.0657
     15 H           0.6029    8.5352   -0.0001 H       1  LIG1        0.0656
     16 C          -2.2302    7.4961    0.0001 C.ar    1  LIG1        0.0821
     17 C          -2.6934    8.7962   -0.0001 C.ar    1  LIG1       -0.0334
     18 C          -4.1083    8.7404    0.0005 C.ar    1  LIG1       -0.0437
     19 C          -4.4686    7.4143    0.0001 C.ar    1  LIG1        0.0023
     20 N          -3.3247    6.6686    0.0002 N.ar    1  LIG1       -0.3583
     21 H          -3.2620    5.6634    0.0002 H       1  LIG1        0.1654
     22 H          -5.4409    6.9464    0.0001 H       1  LIG1        0.0807
     23 H          -2.0780    9.6838   -0.0002 H       1  LIG1        0.0640
     24 H          -4.7873    9.5801    0.0008 H       1  LIG1        0.0633
@<TRIPOS>BOND
     1     7     2    1
     2    23    17    1
     3     2     3   ar
     4     2     1   ar
     5     8     3    1
     6    15    11    1
     7     3     4   ar
     8    14    10    1
     9    11    10   ar
    10    11    12   ar
    11     4     9    1
    12     4     5   ar
    13    10     9   ar
    14    17    16   ar
    15    17    18   ar
    16     9    13   ar
    17     5     1   ar
    18     1     6    1
    19    12    13   ar
    20    12    16    1
    21    22    19    1
    22    19    20   ar
    23    19    18   ar
    24    16    20   ar
    25    21    20    1
    26    18    24    1
