@<TRIPOS>MOLECULE
mol_data/opt/cam/geoms/mol2/12124-4.out
 36 39 0 0 0
SMALL
GASTEIGER

@<TRIPOS>ATOM
      1 C           0.5691    1.6674   -0.3850 C.ar    1  LIG1        0.0927
      2 C           1.9145    1.7683   -0.2595 C.ar    1  LIG1       -0.0232
      3 C           2.1915    3.1535   -0.0571 C.ar    1  LIG1       -0.0128
      4 C           0.9852    3.7890   -0.0756 C.ar    1  LIG1        0.1697
      5 O          -0.0120    2.8882   -0.2755 O.2     1  LIG1       -0.4598
      6 H          -0.1027    0.8404   -0.5484 H       1  LIG1        0.1029
      7 H           2.6271    0.9587   -0.3049 H       1  LIG1        0.0649
      8 H           3.1567    3.6158    0.0834 H       1  LIG1        0.0656
      9 C           0.6096    5.1738    0.0724 C.ar    1  LIG1        0.1705
     10 C           1.3331    6.3111    0.2810 C.ar    1  LIG1       -0.0122
     11 C           0.3927    7.3757    0.3386 C.ar    1  LIG1       -0.0151
     12 C          -0.8424    6.8218    0.1620 C.ar    1  LIG1        0.1358
     13 O          -0.7115    5.4751   -0.0007 O.2     1  LIG1       -0.4517
     14 H           2.4059    6.3784    0.3811 H       1  LIG1        0.0657
     15 H           0.6105    8.4214    0.4929 H       1  LIG1        0.0656
     16 C          -3.2964    6.5261   -0.0694 C.ar    1  LIG1       -0.0505
     17 C          -4.5789    7.0485   -0.1108 C.ar    1  LIG1       -0.0534
     18 C          -2.1931    7.3640    0.1177 C.ar    1  LIG1        0.0173
     19 C          -4.8101    8.4195    0.0324 C.ar    1  LIG1       -0.0178
     20 H          -5.4177    6.3817   -0.2816 H       1  LIG1        0.0624
     21 C          -2.4175    8.7370    0.2614 C.ar    1  LIG1       -0.0505
     22 C          -3.7015    9.2519    0.2196 C.ar    1  LIG1       -0.0534
     23 H          -1.5793    9.4085    0.4156 H       1  LIG1        0.0625
     24 H          -3.1383    5.4609   -0.1909 H       1  LIG1        0.0625
     25 H          -3.8518   10.3175    0.3575 H       1  LIG1        0.0624
     26 C          -6.4429   10.1955   -0.6442 C.ar    1  LIG1       -0.0540
     27 C          -7.7291   10.7166   -0.6873 C.ar    1  LIG1       -0.0612
     28 C          -6.1838    8.9747   -0.0137 C.ar    1  LIG1       -0.0179
     29 C          -8.7840   10.0261   -0.1017 C.ar    1  LIG1       -0.0617
     30 H          -7.9093   11.6624   -1.1883 H       1  LIG1        0.0618
     31 C          -7.2539    8.2912    0.5716 C.ar    1  LIG1       -0.0540
     32 C          -8.5408    8.8107    0.5275 C.ar    1  LIG1       -0.0612
     33 H          -7.0694    7.3541    1.0867 H       1  LIG1        0.0624
     34 H          -9.7895   10.4326   -0.1357 H       1  LIG1        0.0618
     35 H          -5.6301   10.7291   -1.1262 H       1  LIG1        0.0624
     36 H          -9.3559    8.2671    0.9945 H       1  LIG1        0.0618
@<TRIPOS>BOND
     1    30    27    1
     2    35    26    1
     3    27    26   ar
     4    27    29   ar
     5    26    28   ar
     6     6     1    1
     7     1     5   ar
     8     1     2   ar
     9     7     2    1
    10    20    17    1
    11     5     4   ar
    12     2     3   ar
    13    24    16    1
    14    34    29    1
    15    17    16   ar
    16    17    19   ar
    17    29    32   ar
    18     4     3   ar
    19     4     9    1
    20    16    18   ar
    21     3     8    1
    22    28    19    1
    23    28    31   ar
    24    13     9   ar
    25    13    12   ar
    26    19    22   ar
    27     9    10   ar
    28    18    12    1
    29    18    21   ar
    30    12    11   ar
    31    22    21   ar
    32    22    25    1
    33    21    23    1
    34    10    11   ar
    35    10    14    1
    36    11    15    1
    37    32    31   ar
    38    32    36    1
    39    31    33    1
