@<TRIPOS>MOLECULE
mol_data/opt/cam/geoms/mol2/1212-58-.out
 29 32 0 0 0
SMALL
GASTEIGER

@<TRIPOS>ATOM
      1 C           0.1015    1.7169    0.0002 C.ar    1  LIG1        0.0927
      2 C           1.4559    1.6792   -0.0005 C.ar    1  LIG1       -0.0232
      3 C           1.8930    3.0383   -0.0001 C.ar    1  LIG1       -0.0128
      4 C           0.7623    3.7973   -0.0001 C.ar    1  LIG1        0.1697
      5 O          -0.3395    3.0006    0.0001 O.2     1  LIG1       -0.4598
      6 H          -0.6636    0.9574    0.0005 H       1  LIG1        0.1029
      7 H           2.0732    0.7937   -0.0009 H       1  LIG1        0.0649
      8 H           2.9063    3.4086   -0.0001 H       1  LIG1        0.0656
      9 C           0.5288    5.2164   -0.0001 C.ar    1  LIG1        0.1706
     10 C          -0.6063    5.9725   -0.0000 C.ar    1  LIG1       -0.0121
     11 C          -0.1790    7.3273   -0.0001 C.ar    1  LIG1       -0.0146
     12 C           1.1861    7.3083   -0.0001 C.ar    1  LIG1        0.1424
     13 O           1.6258    6.0163   -0.0001 O.2     1  LIG1       -0.4512
     14 H          -1.6175    5.5969    0.0000 H       1  LIG1        0.0657
     15 H          -0.8041    8.2081   -0.0001 H       1  LIG1        0.0656
     16 C           2.2016    8.3301   -0.0002 C.ar    1  LIG1        0.0551
     17 C           3.5638    8.1450   -0.0004 C.ar    1  LIG1       -0.0433
     18 C           4.2782    9.3622   -0.0004 C.ar    1  LIG1       -0.0431
     19 C           3.4590   10.4608   -0.0001 C.ar    1  LIG1        0.0605
     20 S           1.7815   10.0110   -0.0000 S.2     1  LIG1       -0.0820
     21 H           4.0203    7.1644   -0.0006 H       1  LIG1        0.0630
     22 H           5.3569    9.4481   -0.0005 H       1  LIG1        0.0630
     23 C           3.8550   11.8532    0.0000 C.ar    1  LIG1        0.2099
     24 N           2.8820   12.7798    0.0002 N.ar    1  LIG1       -0.1253
     25 C           4.5448   14.3024   -0.0001 C.ar    1  LIG1        0.1605
     26 N           5.1716   12.1323   -0.0002 N.ar    1  LIG1       -0.1253
     27 N           3.2394   14.0394    0.0002 N.ar    1  LIG1       -0.1339
     28 N           5.5208   13.3927   -0.0002 N.ar    1  LIG1       -0.1339
     29 H           4.8407   15.3449    0.0002 H       1  LIG1        0.1085
@<TRIPOS>BOND
     1     7     2    1
     2    21    17    1
     3    22    18    1
     4     2     3   ar
     5     2     1   ar
     6    17    18   ar
     7    17    16   ar
     8    18    19   ar
     9    16    12    1
    10    16    20   ar
    11    26    28   ar
    12    26    23   ar
    13    28    25   ar
    14    19    20   ar
    15    19    23    1
    16    12    13   ar
    17    12    11   ar
    18    13     9   ar
    19     8     3    1
    20     9     4    1
    21     9    10   ar
    22     4     3   ar
    23     4     5   ar
    24    25    27   ar
    25    25    29    1
    26    11    15    1
    27    11    10   ar
    28    10    14    1
    29    23    24   ar
    30     5     1   ar
    31    24    27   ar
    32     1     6    1
