@<TRIPOS>MOLECULE
mol_data/opt/cam/geoms/mol2/1212-55-.out
 30 33 0 0 0
SMALL
GASTEIGER

@<TRIPOS>ATOM
      1 C           0.1029    1.6803   -0.0002 C.ar    1  LIG1        0.0927
      2 C           1.4573    1.6494   -0.0006 C.ar    1  LIG1       -0.0232
      3 C           1.8880    3.0110   -0.0004 C.ar    1  LIG1       -0.0128
      4 C           0.7538    3.7646   -0.0001 C.ar    1  LIG1        0.1697
      5 O          -0.3442    2.9626   -0.0000 O.2     1  LIG1       -0.4598
      6 H          -0.6588    0.9175   -0.0001 H       1  LIG1        0.1029
      7 H           2.0789    0.7668   -0.0008 H       1  LIG1        0.0649
      8 H           2.8994    3.3865   -0.0006 H       1  LIG1        0.0656
      9 C           0.5138    5.1829    0.0000 C.ar    1  LIG1        0.1706
     10 C          -0.6218    5.9358    0.0003 C.ar    1  LIG1       -0.0121
     11 C          -0.1977    7.2934    0.0004 C.ar    1  LIG1       -0.0146
     12 C           1.1671    7.2773    0.0001 C.ar    1  LIG1        0.1424
     13 O           1.6100    5.9872   -0.0001 O.2     1  LIG1       -0.4512
     14 H          -1.6322    5.5578    0.0005 H       1  LIG1        0.0657
     15 H          -0.8250    8.1724    0.0006 H       1  LIG1        0.0656
     16 C           2.1818    8.3010    0.0000 C.ar    1  LIG1        0.0550
     17 C           3.5401    8.1355   -0.0004 C.ar    1  LIG1       -0.0434
     18 C           4.2482    9.3631   -0.0004 C.ar    1  LIG1       -0.0457
     19 C           3.4360   10.4651    0.0001 C.ar    1  LIG1        0.0266
     20 S           1.7594    9.9869    0.0006 S.2     1  LIG1       -0.0847
     21 H           4.0081    7.1600   -0.0008 H       1  LIG1        0.0630
     22 H           5.3297    9.4283   -0.0008 H       1  LIG1        0.0629
     23 C           3.8054   11.8688    0.0002 C.ar    1  LIG1        0.0259
     24 C           2.9903   12.9690   -0.0001 C.ar    1  LIG1       -0.0464
     25 C           3.7039   14.1996    0.0002 C.ar    1  LIG1       -0.0541
     26 C           5.0521   14.0241    0.0008 C.ar    1  LIG1       -0.0237
     27 S           5.4784   12.3530    0.0009 S.2     1  LIG1       -0.0961
     28 H           5.8260   14.7778    0.0011 H       1  LIG1        0.0693
     29 H           1.9088   12.9031   -0.0006 H       1  LIG1        0.0629
     30 H           3.2274   15.1719   -0.0000 H       1  LIG1        0.0623
@<TRIPOS>BOND
     1     7     2    1
     2    22    18    1
     3    21    17    1
     4    29    24    1
     5     2     3   ar
     6     2     1   ar
     7     8     3    1
     8    17    18   ar
     9    17    16   ar
    10    18    19   ar
    11     3     4   ar
    12     1     6    1
    13     1     5   ar
    14     4     5   ar
    15     4     9    1
    16    24    25   ar
    17    24    23   ar
    18    13     9   ar
    19    13    12   ar
    20    30    25    1
    21     9    10   ar
    22    16    12    1
    23    16    20   ar
    24    19    23    1
    25    19    20   ar
    26    12    11   ar
    27    25    26   ar
    28    23    27   ar
    29    10    11   ar
    30    10    14    1
    31    11    15    1
    32    26    27   ar
    33    26    28    1
