@<TRIPOS>MOLECULE
mol_data/opt/cam/geoms/mol2/1212-13-8.out
 30 33 0 0 0
SMALL
GASTEIGER

@<TRIPOS>ATOM
      1 C           0.1257    1.7512    0.0001 C.ar    1  LIG1        0.0927
      2 C           1.4802    1.7327    0.0001 C.ar    1  LIG1       -0.0232
      3 C           1.8985    3.0980   -0.0003 C.ar    1  LIG1       -0.0128
      4 C           0.7573    3.8413    0.0000 C.ar    1  LIG1        0.1697
      5 O          -0.3330    3.0293    0.0002 O.2     1  LIG1       -0.4598
      6 H          -0.6289    0.9813    0.0003 H       1  LIG1        0.1029
      7 H           2.1103    0.8562    0.0001 H       1  LIG1        0.0649
      8 H           2.9075    3.4800   -0.0005 H       1  LIG1        0.0656
      9 C           0.5023    5.2568    0.0000 C.ar    1  LIG1        0.1706
     10 C          -0.6401    5.9991    0.0003 C.ar    1  LIG1       -0.0121
     11 C          -0.2330    7.3626    0.0001 C.ar    1  LIG1       -0.0137
     12 C           1.1299    7.3615   -0.0002 C.ar    1  LIG1        0.1519
     13 O           1.5900    6.0756   -0.0003 O.2     1  LIG1       -0.4503
     14 H          -1.6463    5.6100    0.0005 H       1  LIG1        0.0657
     15 H          -0.8693    8.2345    0.0002 H       1  LIG1        0.0656
     16 C           2.1332    8.3945   -0.0004 C.ar    1  LIG1        0.0826
     17 C           2.0162    9.7801   -0.0004 C.ar    1  LIG1       -0.0327
     18 C           3.3153   10.3119   -0.0007 C.ar    1  LIG1       -0.0325
     19 C           4.1980    9.2447   -0.0010 C.ar    1  LIG1        0.0880
     20 N           3.4587    8.0899   -0.0008 N.ar    1  LIG1       -0.3492
     21 H           3.8567    7.1626   -0.0010 H       1  LIG1        0.1661
     22 H           1.0884   10.3322   -0.0001 H       1  LIG1        0.0640
     23 H           3.6021   11.3523   -0.0007 H       1  LIG1        0.0640
     24 C           5.6358    9.1981   -0.0015 C.ar    1  LIG1        0.2193
     25 N           6.2110    7.9812   -0.0017 N.ar    1  LIG1       -0.1243
     26 C           8.1783    9.0821   -0.0022 C.ar    1  LIG1        0.1605
     27 N           6.3148   10.3626   -0.0016 N.ar    1  LIG1       -0.1243
     28 N           7.5199    7.9255   -0.0021 N.ar    1  LIG1       -0.1338
     29 N           7.6195   10.2956   -0.0020 N.ar    1  LIG1       -0.1338
     30 H           9.2609    9.0371   -0.0026 H       1  LIG1        0.1085
@<TRIPOS>BOND
     1    30    26    1
     2    26    28   ar
     3    26    29   ar
     4    28    25   ar
     5    29    27   ar
     6    25    24   ar
     7    27    24   ar
     8    24    19    1
     9    19    20   ar
    10    19    18   ar
    11    21    20    1
    12    20    16   ar
    13    23    18    1
    14    18    17   ar
    15     8     3    1
    16    16    17   ar
    17    16    12    1
    18    17    22    1
    19     3     4   ar
    20     3     2   ar
    21    13    12   ar
    22    13     9   ar
    23    12    11   ar
    24     4     9    1
    25     4     5   ar
    26     9    10   ar
    27     2     7    1
    28     2     1   ar
    29    11    15    1
    30    11    10   ar
    31     1     5   ar
    32     1     6    1
    33    10    14    1
