@<TRIPOS>MOLECULE
mol_data/opt/cam/geoms/mol2/1212128-.out
 29 32 0 0 0
SMALL
GASTEIGER

@<TRIPOS>ATOM
      1 C           0.7184    1.6699    0.0002 C.ar    1  LIG1        0.0927
      2 C           2.0624    1.8493   -0.0003 C.ar    1  LIG1       -0.0232
      3 C           2.2733    3.2598    0.0001 C.ar    1  LIG1       -0.0128
      4 C           1.0335    3.8284   -0.0000 C.ar    1  LIG1        0.1697
      5 O           0.0786    2.8637    0.0000 O.2     1  LIG1       -0.4598
      6 H           0.0846    0.7979    0.0004 H       1  LIG1        0.1029
      7 H           2.8147    1.0752   -0.0006 H       1  LIG1        0.0649
      8 H           3.2182    3.7819    0.0001 H       1  LIG1        0.0656
      9 C           0.5922    5.2010   -0.0001 C.ar    1  LIG1        0.1707
     10 C           1.2694    6.3880   -0.0001 C.ar    1  LIG1       -0.0121
     11 C           0.2835    7.4086   -0.0001 C.ar    1  LIG1       -0.0121
     12 C          -0.9259    6.7740   -0.0001 C.ar    1  LIG1        0.1707
     13 O          -0.7441    5.4280   -0.0001 O.2     1  LIG1       -0.4486
     14 H           2.3413    6.5136   -0.0000 H       1  LIG1        0.0657
     15 H           0.4470    8.4758   -0.0001 H       1  LIG1        0.0657
     16 C          -2.2778    7.2662   -0.0002 C.ar    1  LIG1        0.1707
     17 C          -2.7906    8.5381   -0.0002 C.ar    1  LIG1       -0.0121
     18 C          -4.1978    8.3941   -0.0002 C.ar    1  LIG1       -0.0119
     19 C          -4.4462    7.0507   -0.0002 C.ar    1  LIG1        0.1761
     20 O          -3.2765    6.3578   -0.0002 O.2     1  LIG1       -0.4485
     21 H          -2.2244    9.4568   -0.0002 H       1  LIG1        0.0657
     22 H          -4.9483    9.1692   -0.0003 H       1  LIG1        0.0657
     23 C          -5.6873    6.3096   -0.0002 C.ar    1  LIG1        0.2381
     24 N          -5.6443    4.9679   -0.0002 N.ar    1  LIG1       -0.1226
     25 C          -7.9025    5.0685   -0.0005 C.ar    1  LIG1        0.1605
     26 N          -6.8150    7.0447   -0.0003 N.ar    1  LIG1       -0.1226
     27 N          -6.7927    4.3337   -0.0003 N.ar    1  LIG1       -0.1338
     28 N          -7.9532    6.4024   -0.0004 N.ar    1  LIG1       -0.1338
     29 H          -8.8480    4.5388   -0.0003 H       1  LIG1        0.1085
@<TRIPOS>BOND
     1     7     2    1
     2    25    28   ar
     3    25    29    1
     4    25    27   ar
     5    28    26   ar
     6    27    24   ar
     7    26    23   ar
     8     2     3   ar
     9     2     1   ar
    10    22    18    1
    11    18    17   ar
    12    18    19   ar
    13    24    23   ar
    14    21    17    1
    15    17    16   ar
    16    19    23    1
    17    19    20   ar
    18    20    16   ar
    19    16    12    1
    20    15    11    1
    21    12    11   ar
    22    12    13   ar
    23    11    10   ar
    24    13     9   ar
    25     9    10   ar
    26     9     4    1
    27    10    14    1
    28     4     5   ar
    29     4     3   ar
    30     5     1   ar
    31     3     8    1
    32     1     6    1
