@<TRIPOS>MOLECULE
mol_data/opt/cam/geoms/mol2/121254-.out
 33 36 0 0 0
SMALL
GASTEIGER

@<TRIPOS>ATOM
      1 C           0.5520    1.7021    0.2505 C.ar    1  LIG1        0.0927
      2 C           1.9028    1.8060    0.2190 C.ar    1  LIG1       -0.0232
      3 C           2.1911    3.1988    0.1063 C.ar    1  LIG1       -0.0128
      4 C           0.9851    3.8352    0.0779 C.ar    1  LIG1        0.1697
      5 O          -0.0218    2.9278    0.1654 O.2     1  LIG1       -0.4598
      6 H          -0.1285    0.8695    0.3271 H       1  LIG1        0.1029
      7 H           2.6116    0.9934    0.2697 H       1  LIG1        0.0649
      8 H           3.1630    3.6656    0.0540 H       1  LIG1        0.0656
      9 C           0.6194    5.2261   -0.0235 C.ar    1  LIG1        0.1706
     10 C           1.3540    6.3707   -0.1327 C.ar    1  LIG1       -0.0121
     11 C           0.4224    7.4424   -0.1930 C.ar    1  LIG1       -0.0146
     12 C          -0.8204    6.8817   -0.1179 C.ar    1  LIG1        0.1424
     13 O          -0.7052    5.5291   -0.0142 O.2     1  LIG1       -0.4512
     14 H           2.4309    6.4382   -0.1656 H       1  LIG1        0.0657
     15 H           0.6441    8.4952   -0.2796 H       1  LIG1        0.0656
     16 C          -2.1570    7.4240   -0.1264 C.ar    1  LIG1        0.0550
     17 C          -2.5348    8.7354   -0.2459 C.ar    1  LIG1       -0.0434
     18 C          -3.9403    8.9114   -0.2149 C.ar    1  LIG1       -0.0462
     19 C          -4.6358    7.7408   -0.0726 C.ar    1  LIG1        0.0200
     20 S          -3.5432    6.3914    0.0340 S.2     1  LIG1       -0.0852
     21 H          -1.8276    9.5472   -0.3636 H       1  LIG1        0.0630
     22 H          -4.4247    9.8738   -0.3248 H       1  LIG1        0.0629
     23 C          -6.6952    6.3707   -0.4455 C.ar    1  LIG1       -0.0535
     24 C          -8.0724    6.2114   -0.3809 C.ar    1  LIG1       -0.0612
     25 C          -6.0905    7.5529   -0.0051 C.ar    1  LIG1       -0.0113
     26 C          -8.8742    7.2322    0.1159 C.ar    1  LIG1       -0.0617
     27 H          -8.5214    5.2870   -0.7295 H       1  LIG1        0.0618
     28 C          -6.9074    8.5694    0.5033 C.ar    1  LIG1       -0.0535
     29 C          -8.2848    8.4125    0.5558 C.ar    1  LIG1       -0.0612
     30 H          -6.4533    9.4803    0.8783 H       1  LIG1        0.0624
     31 H          -9.9509    7.1082    0.1632 H       1  LIG1        0.0618
     32 H          -6.0818    5.5765   -0.8590 H       1  LIG1        0.0624
     33 H          -8.9004    9.2125    0.9543 H       1  LIG1        0.0618
@<TRIPOS>BOND
     1    32    23    1
     2    27    24    1
     3    23    24   ar
     4    23    25   ar
     5    24    26   ar
     6    21    17    1
     7    22    18    1
     8    15    11    1
     9    17    18   ar
    10    17    16   ar
    11    18    19   ar
    12    11    10   ar
    13    11    12   ar
    14    14    10    1
    15    10     9   ar
    16    16    12    1
    17    16    20   ar
    18    12    13   ar
    19    19    25    1
    20    19    20   ar
    21     9    13   ar
    22     9     4    1
    23    25    28   ar
    24     8     3    1
    25     4     3   ar
    26     4     5   ar
    27     3     2   ar
    28    26    31    1
    29    26    29   ar
    30     5     1   ar
    31     2     1   ar
    32     2     7    1
    33     1     6    1
    34    28    29   ar
    35    28    30    1
    36    29    33    1
