@<TRIPOS>MOLECULE
mol_data/opt/cam/geoms/mol2/1212.out
 16 17 0 0 0
SMALL
GASTEIGER

@<TRIPOS>ATOM
      1 C           0.2462    1.7861   -0.0001 C.ar    1  LIG1        0.0927
      2 C           1.6001    1.8337    0.0000 C.ar    1  LIG1       -0.0232
      3 C           1.9481    3.2177    0.0000 C.ar    1  LIG1       -0.0128
      4 C           0.7719    3.9062   -0.0001 C.ar    1  LIG1        0.1696
      5 O          -0.2739    3.0389   -0.0001 O.2     1  LIG1       -0.4598
      6 H          -0.4704    0.9808   -0.0001 H       1  LIG1        0.1029
      7 H           2.2731    0.9896    0.0000 H       1  LIG1        0.0649
      8 H           2.9395    3.6449    0.0000 H       1  LIG1        0.0656
      9 C           0.4665    5.3178   -0.0001 C.ar    1  LIG1        0.1696
     10 C           1.2528    6.4310   -0.0001 C.ar    1  LIG1       -0.0128
     11 C           0.3637    7.5473   -0.0002 C.ar    1  LIG1       -0.0232
     12 C          -0.8886    7.0309   -0.0002 C.ar    1  LIG1        0.0927
     13 O          -0.8443    5.6751   -0.0001 O.2     1  LIG1       -0.4598
     14 H          -1.8741    7.4679   -0.0003 H       1  LIG1        0.1029
     15 H           2.3321    6.4518   -0.0000 H       1  LIG1        0.0656
     16 H           0.6276    8.5941   -0.0002 H       1  LIG1        0.0649
@<TRIPOS>BOND
     1    14    12    1
     2    12    11   ar
     3    12    13   ar
     4    16    11    1
     5    11    10   ar
     6    13     9   ar
     7     9    10   ar
     8     9     4    1
     9     6     1    1
    10     5     4   ar
    11     5     1   ar
    12    10    15    1
    13     4     3   ar
    14     1     2   ar
    15     2     3   ar
    16     2     7    1
    17     3     8    1
