@<TRIPOS>MOLECULE
mol_data/opt/cam/geoms/mol2/12128-5-.out
 29 32 0 0 0
SMALL
GASTEIGER

@<TRIPOS>ATOM
      1 C           0.5976    1.6478   -0.0001 C.ar    1  LIG1        0.0927
      2 C           1.9429    1.8189    0.0001 C.ar    1  LIG1       -0.0232
      3 C           2.1619    3.2276   -0.0002 C.ar    1  LIG1       -0.0128
      4 C           0.9255    3.8036   -0.0001 C.ar    1  LIG1        0.1697
      5 O          -0.0354    2.8446   -0.0001 O.2     1  LIG1       -0.4598
      6 H          -0.0408    0.7791   -0.0000 H       1  LIG1        0.1029
      7 H           2.6905    1.0403    0.0002 H       1  LIG1        0.0649
      8 H           3.1097    3.7444   -0.0002 H       1  LIG1        0.0656
      9 C           0.4952    5.1794   -0.0001 C.ar    1  LIG1        0.1707
     10 C           1.1898    6.3596   -0.0002 C.ar    1  LIG1       -0.0121
     11 C           0.2175    7.3892   -0.0002 C.ar    1  LIG1       -0.0119
     12 C          -0.9982    6.7675   -0.0001 C.ar    1  LIG1        0.1761
     13 O          -0.8347    5.4183   -0.0001 O.2     1  LIG1       -0.4485
     14 H           2.2633    6.4708   -0.0003 H       1  LIG1        0.0657
     15 H           0.3755    8.4564   -0.0002 H       1  LIG1        0.0657
     16 C          -2.3438    7.2975   -0.0001 C.ar    1  LIG1        0.2381
     17 N          -3.3820    6.4459    0.0000 N.ar    1  LIG1       -0.1220
     18 C          -4.7007    8.2949    0.0000 C.ar    1  LIG1        0.2099
     19 N          -2.4577    8.6369   -0.0001 N.ar    1  LIG1       -0.1220
     20 N          -4.5831    6.9577    0.0001 N.ar    1  LIG1       -0.1246
     21 N          -3.6577    9.1423   -0.0001 N.ar    1  LIG1       -0.1246
     22 C          -6.0370    8.8625    0.0000 C.ar    1  LIG1        0.0598
     23 C          -7.2256    8.1828    0.0001 C.ar    1  LIG1       -0.0438
     24 C          -8.3489    9.0492    0.0002 C.ar    1  LIG1       -0.0540
     25 C          -7.9891   10.3651    0.0003 C.ar    1  LIG1       -0.0236
     26 S          -6.2834   10.5792   -0.0001 S.2     1  LIG1       -0.0934
     27 H          -8.6395   11.2283    0.0004 H       1  LIG1        0.0693
     28 H          -7.2723    7.1018    0.0001 H       1  LIG1        0.0630
     29 H          -9.3763    8.7083    0.0003 H       1  LIG1        0.0623
@<TRIPOS>BOND
     1    14    10    1
     2     8     3    1
     3    15    11    1
     4    10    11   ar
     5    10     9   ar
     6    11    12   ar
     7     3     4   ar
     8     3     2   ar
     9     9     4    1
    10     9    13   ar
    11    12    16    1
    12    12    13   ar
    13    19    16   ar
    14    19    21   ar
    15     4     5   ar
    16    26    22   ar
    17    26    25   ar
    18    16    17   ar
    19     1     5   ar
    20     1     6    1
    21     1     2   ar
    22    21    18   ar
    23    17    20   ar
    24    18    22    1
    25    18    20   ar
    26    22    23   ar
    27     2     7    1
    28    23    28    1
    29    23    24   ar
    30    24    25   ar
    31    24    29    1
    32    25    27    1
