@<TRIPOS>MOLECULE
mol_data/opt/cam/geoms/mol2/1212-4.out
 26 28 0 0 0
SMALL
GASTEIGER

@<TRIPOS>ATOM
      1 C           0.1394    1.7424   -0.0004 C.ar    1  LIG1        0.0927
      2 C           1.4939    1.7220   -0.0002 C.ar    1  LIG1       -0.0232
      3 C           1.9139    3.0872    0.0003 C.ar    1  LIG1       -0.0128
      4 C           0.7741    3.8322   -0.0001 C.ar    1  LIG1        0.1697
      5 O          -0.3174    3.0213   -0.0005 O.2     1  LIG1       -0.4598
      6 H          -0.6164    0.9737   -0.0006 H       1  LIG1        0.1029
      7 H           2.1224    0.8443   -0.0002 H       1  LIG1        0.0649
      8 H           2.9224    3.4704    0.0006 H       1  LIG1        0.0656
      9 C           0.5227    5.2492   -0.0000 C.ar    1  LIG1        0.1705
     10 C          -0.6182    5.9932   -0.0003 C.ar    1  LIG1       -0.0122
     11 C          -0.2018    7.3536   -0.0000 C.ar    1  LIG1       -0.0151
     12 C           1.1626    7.3521    0.0004 C.ar    1  LIG1        0.1358
     13 O           1.6103    6.0627    0.0005 O.2     1  LIG1       -0.4517
     14 H          -1.6261    5.6081   -0.0007 H       1  LIG1        0.0657
     15 H          -0.8406    8.2236   -0.0002 H       1  LIG1        0.0656
     16 C           3.5337    8.0894    0.0015 C.ar    1  LIG1       -0.0511
     17 C           4.4879    9.0971    0.0019 C.ar    1  LIG1       -0.0611
     18 C           2.1714    8.4044    0.0009 C.ar    1  LIG1        0.0173
     19 C           4.1014   10.4323    0.0018 C.ar    1  LIG1       -0.0617
     20 H           5.5413    8.8362    0.0024 H       1  LIG1        0.0618
     21 C           1.7904    9.7508    0.0007 C.ar    1  LIG1       -0.0511
     22 C           2.7476   10.7535    0.0012 C.ar    1  LIG1       -0.0611
     23 H           0.7377   10.0133    0.0002 H       1  LIG1        0.0625
     24 H           4.8492   11.2184    0.0021 H       1  LIG1        0.0618
     25 H           3.8369    7.0491    0.0016 H       1  LIG1        0.0625
     26 H           2.4349   11.7927    0.0010 H       1  LIG1        0.0618
@<TRIPOS>BOND
     1    14    10    1
     2     6     1    1
     3     5     1   ar
     4     5     4   ar
     5     1     2   ar
     6    10    11   ar
     7    10     9   ar
     8     7     2    1
     9     2     3   ar
    10    15    11    1
    11     4     9    1
    12     4     3   ar
    13    11    12   ar
    14     9    13   ar
    15    23    21    1
    16     3     8    1
    17    12    13   ar
    18    12    18    1
    19    21    18   ar
    20    21    22   ar
    21    18    16   ar
    22    26    22    1
    23    22    19   ar
    24    16    25    1
    25    16    17   ar
    26    19    17   ar
    27    19    24    1
    28    17    20    1
