@<TRIPOS>MOLECULE
mol_data/opt/cam/geoms/mol2/1212-5.out
 23 25 0 0 0
SMALL
GASTEIGER

@<TRIPOS>ATOM
      1 C           0.1326    1.7541    0.0004 C.ar    1  LIG1        0.0927
      2 C           1.4869    1.7248   -0.0002 C.ar    1  LIG1       -0.0232
      3 C           1.9161    3.0870   -0.0000 C.ar    1  LIG1       -0.0128
      4 C           0.7811    3.8395   -0.0000 C.ar    1  LIG1        0.1697
      5 O          -0.3158    3.0360    0.0002 O.2     1  LIG1       -0.4598
      6 H          -0.6282    0.9903    0.0006 H       1  LIG1        0.1029
      7 H           2.1095    0.8429   -0.0005 H       1  LIG1        0.0649
      8 H           2.9270    3.4638   -0.0002 H       1  LIG1        0.0656
      9 C           0.5397    5.2578   -0.0001 C.ar    1  LIG1        0.1706
     10 C          -0.5961    6.0097    0.0000 C.ar    1  LIG1       -0.0121
     11 C          -0.1725    7.3681   -0.0002 C.ar    1  LIG1       -0.0146
     12 C           1.1914    7.3531   -0.0003 C.ar    1  LIG1        0.1424
     13 O           1.6352    6.0636   -0.0002 O.2     1  LIG1       -0.4512
     14 H          -1.6063    5.6311    0.0001 H       1  LIG1        0.0657
     15 H          -0.8001    8.2469   -0.0002 H       1  LIG1        0.0656
     16 C           2.2067    8.3799   -0.0004 C.ar    1  LIG1        0.0544
     17 C           3.5647    8.2136   -0.0008 C.ar    1  LIG1       -0.0440
     18 C           4.2738    9.4473   -0.0007 C.ar    1  LIG1       -0.0540
     19 C           3.4495   10.5290   -0.0003 C.ar    1  LIG1       -0.0236
     20 S           1.7867   10.0658   -0.0003 S.2     1  LIG1       -0.0936
     21 H           3.7166   11.5757   -0.0001 H       1  LIG1        0.0693
     22 H           4.0312    7.2373   -0.0010 H       1  LIG1        0.0630
     23 H           5.3541    9.5210   -0.0009 H       1  LIG1        0.0623
@<TRIPOS>BOND
     1    22    17    1
     2    23    18    1
     3    17    18   ar
     4    17    16   ar
     5    18    19   ar
     6     7     2    1
     7    16    20   ar
     8    16    12    1
     9    20    19   ar
    10    19    21    1
    11    12    13   ar
    12    12    11   ar
    13     2     3   ar
    14     2     1   ar
    15    13     9   ar
    16    15    11    1
    17     8     3    1
    18    11    10   ar
    19     9     4    1
    20     9    10   ar
    21     3     4   ar
    22     4     5   ar
    23    10    14    1
    24     5     1   ar
    25     1     6    1
