@<TRIPOS>MOLECULE
mol_data/opt/cam/geoms/mol2/1212-4-13.out
 34 37 0 0 0
SMALL
GASTEIGER

@<TRIPOS>ATOM
      1 C           0.0363    1.6779    0.0014 C.ar    1  LIG1        0.0927
      2 C           1.3903    1.6372    0.0012 C.ar    1  LIG1       -0.0232
      3 C           1.8309    2.9959    0.0005 C.ar    1  LIG1       -0.0128
      4 C           0.7024    3.7580    0.0004 C.ar    1  LIG1        0.1697
      5 O          -0.4013    2.9636    0.0010 O.2     1  LIG1       -0.4598
      6 H          -0.7310    0.9207    0.0018 H       1  LIG1        0.1029
      7 H           2.0056    0.7502    0.0014 H       1  LIG1        0.0649
      8 H           2.8451    3.3637    0.0001 H       1  LIG1        0.0656
      9 C           0.4721    5.1784   -0.0001 C.ar    1  LIG1        0.1705
     10 C          -0.6578    5.9393   -0.0002 C.ar    1  LIG1       -0.0122
     11 C          -0.2219    7.2934   -0.0008 C.ar    1  LIG1       -0.0151
     12 C           1.1430    7.2720   -0.0011 C.ar    1  LIG1        0.1358
     13 O           1.5718    5.9762   -0.0007 O.2     1  LIG1       -0.4517
     14 H          -1.6711    5.5689    0.0002 H       1  LIG1        0.0657
     15 H          -0.8481    8.1726   -0.0010 H       1  LIG1        0.0656
     16 C           1.8156    9.6601   -0.0023 C.ar    1  LIG1       -0.0505
     17 C           2.7869   10.6458   -0.0029 C.ar    1  LIG1       -0.0520
     18 C           2.1656    8.3071   -0.0018 C.ar    1  LIG1        0.0173
     19 C           4.1510   10.3280   -0.0030 C.ar    1  LIG1       -0.0017
     20 H           2.4601   11.6810   -0.0035 H       1  LIG1        0.0624
     21 C           3.5263    7.9811   -0.0019 C.ar    1  LIG1       -0.0505
     22 C           4.4929    8.9696   -0.0024 C.ar    1  LIG1       -0.0520
     23 H           3.8212    6.9384   -0.0014 H       1  LIG1        0.0625
     24 H           0.7695    9.9478   -0.0023 H       1  LIG1        0.0625
     25 H           5.5383    8.6826   -0.0024 H       1  LIG1        0.0624
     26 C           5.1930   11.3533   -0.0036 C.ar    1  LIG1        0.0465
     27 C           6.5701   11.2390   -0.0053 C.ar    1  LIG1       -0.0364
     28 C           7.1200   12.5429   -0.0054 C.ar    1  LIG1       -0.0438
     29 C           6.0698   13.4263   -0.0034 C.ar    1  LIG1        0.0022
     30 N           4.9124   12.7006   -0.0025 N.ar    1  LIG1       -0.3607
     31 H           3.9897   13.0994   -0.0011 H       1  LIG1        0.1653
     32 H           6.0521   14.5054   -0.0026 H       1  LIG1        0.0807
     33 H           7.1261   10.3134   -0.0065 H       1  LIG1        0.0639
     34 H           8.1680   12.8036   -0.0067 H       1  LIG1        0.0633
@<TRIPOS>BOND
     1    34    28    1
     2    33    27    1
     3    28    27   ar
     4    28    29   ar
     5    27    26   ar
     6    26    19    1
     7    26    30   ar
     8    20    17    1
     9    29    32    1
    10    29    30   ar
    11    19    17   ar
    12    19    22   ar
    13    17    16   ar
    14    30    31    1
    15    22    25    1
    16    22    21   ar
    17    16    24    1
    18    16    18   ar
    19    21    18   ar
    20    21    23    1
    21    18    12    1
    22    12    11   ar
    23    12    13   ar
    24    15    11    1
    25    11    10   ar
    26    13     9   ar
    27    10     9   ar
    28    10    14    1
    29     9     4    1
    30     8     3    1
    31     4     3   ar
    32     4     5   ar
    33     3     2   ar
    34     5     1   ar
    35     2     1   ar
    36     2     7    1
    37     1     6    1
