@<TRIPOS>MOLECULE
mol_data/opt/cam/geoms/mol2/1212-5-.out
 23 25 0 0 0
SMALL
GASTEIGER

@<TRIPOS>ATOM
      1 C           0.1683    1.7691   -0.0000 C.ar    1  LIG1        0.0927
      2 C           1.5229    1.7610   -0.0003 C.ar    1  LIG1       -0.0232
      3 C           1.9311    3.1297    0.0001 C.ar    1  LIG1       -0.0128
      4 C           0.7845    3.8641   -0.0000 C.ar    1  LIG1        0.1697
      5 O          -0.3001    3.0440   -0.0002 O.2     1  LIG1       -0.4598
      6 H          -0.5805    0.9936    0.0000 H       1  LIG1        0.1029
      7 H           2.1592    0.8890   -0.0004 H       1  LIG1        0.0649
      8 H           2.9360    3.5224    0.0003 H       1  LIG1        0.0656
      9 C           0.5212    5.2783   -0.0000 C.ar    1  LIG1        0.1706
     10 C          -0.6248    6.0148   -0.0002 C.ar    1  LIG1       -0.0121
     11 C          -0.2220    7.3795   -0.0001 C.ar    1  LIG1       -0.0146
     12 C           1.1425    7.3845    0.0001 C.ar    1  LIG1        0.1424
     13 O           1.6036    6.1016    0.0002 O.2     1  LIG1       -0.4512
     14 H          -1.6295    5.6217   -0.0003 H       1  LIG1        0.0657
     15 H          -0.8625    8.2482   -0.0002 H       1  LIG1        0.0656
     16 C           2.1341    8.4342    0.0003 C.ar    1  LIG1        0.0544
     17 C           1.9294    9.7883    0.0004 C.ar    1  LIG1       -0.0440
     18 C           3.1410   10.5320    0.0004 C.ar    1  LIG1       -0.0540
     19 C           4.2452    9.7365    0.0003 C.ar    1  LIG1       -0.0236
     20 S           3.8313    8.0630    0.0005 S.2     1  LIG1       -0.0936
     21 H           5.2834   10.0352    0.0002 H       1  LIG1        0.0693
     22 H           0.9440   10.2376    0.0004 H       1  LIG1        0.0630
     23 H           3.1832   11.6140    0.0005 H       1  LIG1        0.0623
@<TRIPOS>BOND
     1     7     2    1
     2    14    10    1
     3     2     1   ar
     4     2     3   ar
     5    15    11    1
     6    10    11   ar
     7    10     9   ar
     8     5     4   ar
     9     5     1   ar
    10    11    12   ar
    11     4     9    1
    12     4     3   ar
    13     9    13   ar
    14     1     6    1
    15    12    13   ar
    16    12    16    1
    17     3     8    1
    18    21    19    1
    19    19    18   ar
    20    19    20   ar
    21    16    17   ar
    22    16    20   ar
    23    22    17    1
    24    17    18   ar
    25    18    23    1
