@<TRIPOS>MOLECULE
mol_data/opt/cam/geoms/mol2/1212-413.out
 34 37 0 0 0
SMALL
GASTEIGER

@<TRIPOS>ATOM
      1 C           0.0856    1.6759   -0.0010 C.ar    1  LIG1        0.0927
      2 C           1.4400    1.6533    0.0001 C.ar    1  LIG1       -0.0232
      3 C           1.8623    3.0177    0.0005 C.ar    1  LIG1       -0.0128
      4 C           0.7237    3.7647   -0.0003 C.ar    1  LIG1        0.1697
      5 O          -0.3692    2.9556   -0.0013 O.2     1  LIG1       -0.4598
      6 H          -0.6715    0.9084   -0.0017 H       1  LIG1        0.1029
      7 H           2.0671    0.7746    0.0005 H       1  LIG1        0.0649
      8 H           2.8715    3.3991    0.0014 H       1  LIG1        0.0656
      9 C           0.4744    5.1819   -0.0004 C.ar    1  LIG1        0.1705
     10 C          -0.6655    5.9276   -0.0012 C.ar    1  LIG1       -0.0122
     11 C          -0.2478    7.2874   -0.0008 C.ar    1  LIG1       -0.0151
     12 C           1.1172    7.2843    0.0003 C.ar    1  LIG1        0.1358
     13 O           1.5633    5.9943    0.0006 O.2     1  LIG1       -0.4517
     14 H          -1.6738    5.5437   -0.0021 H       1  LIG1        0.0657
     15 H          -0.8857    8.1581   -0.0012 H       1  LIG1        0.0656
     16 C           3.4908    8.0252    0.0024 C.ar    1  LIG1       -0.0505
     17 C           4.4441    9.0266    0.0033 C.ar    1  LIG1       -0.0520
     18 C           2.1259    8.3330    0.0012 C.ar    1  LIG1        0.0173
     19 C           4.0841   10.3803    0.0030 C.ar    1  LIG1       -0.0017
     20 H           5.4933    8.7536    0.0043 H       1  LIG1        0.0624
     21 C           1.7579    9.6812    0.0009 C.ar    1  LIG1       -0.0505
     22 C           2.7159   10.6797    0.0018 C.ar    1  LIG1       -0.0520
     23 H           0.7080    9.9549   -0.0001 H       1  LIG1        0.0625
     24 H           3.7997    6.9866    0.0027 H       1  LIG1        0.0625
     25 H           2.3752   11.7105    0.0013 H       1  LIG1        0.0624
     26 C           5.1123   11.4194    0.0039 C.ar    1  LIG1        0.0465
     27 C           6.4908   11.3236    0.0036 C.ar    1  LIG1       -0.0364
     28 C           7.0232   12.6347    0.0048 C.ar    1  LIG1       -0.0438
     29 C           5.9613   13.5040    0.0060 C.ar    1  LIG1        0.0022
     30 N           4.8137   12.7628    0.0054 N.ar    1  LIG1       -0.3607
     31 H           3.8857   13.1493    0.0061 H       1  LIG1        0.1653
     32 H           5.9292   14.5827    0.0073 H       1  LIG1        0.0807
     33 H           7.0592   10.4055    0.0025 H       1  LIG1        0.0639
     34 H           8.0676   12.9094    0.0047 H       1  LIG1        0.0633
@<TRIPOS>BOND
     1    14    10    1
     2     6     1    1
     3     5     1   ar
     4     5     4   ar
     5    10    11   ar
     6    10     9   ar
     7    15    11    1
     8     1     2   ar
     9    11    12   ar
    10     9     4    1
    11     9    13   ar
    12     4     3   ar
    13    23    21    1
    14     2     7    1
    15     2     3   ar
    16    12    13   ar
    17    12    18    1
    18     3     8    1
    19    21    18   ar
    20    21    22   ar
    21    18    16   ar
    22    25    22    1
    23    22    19   ar
    24    16    24    1
    25    16    17   ar
    26    33    27    1
    27    19    17   ar
    28    19    26    1
    29    17    20    1
    30    27    26   ar
    31    27    28   ar
    32    26    30   ar
    33    34    28    1
    34    28    29   ar
    35    30    29   ar
    36    30    31    1
    37    29    32    1
