@<TRIPOS>MOLECULE
mol_data/opt/cam/geoms/mol2/12125-12.out
 30 33 0 0 0
SMALL
GASTEIGER

@<TRIPOS>ATOM
      1 C           0.4881    1.6471    0.0001 C.ar    1  LIG1        0.0927
      2 C           1.8384    1.7617   -0.0001 C.ar    1  LIG1       -0.0232
      3 C           2.1178    3.1609   -0.0001 C.ar    1  LIG1       -0.0128
      4 C           0.9078    3.7900   -0.0000 C.ar    1  LIG1        0.1697
      5 O          -0.0938    2.8721    0.0001 O.2     1  LIG1       -0.4598
      6 H          -0.1870    0.8066    0.0002 H       1  LIG1        0.1029
      7 H           2.5524    0.9522   -0.0001 H       1  LIG1        0.0649
      8 H           3.0869    3.6365   -0.0001 H       1  LIG1        0.0656
      9 C           0.5325    5.1823   -0.0001 C.ar    1  LIG1        0.1706
     10 C           1.2607    6.3361   -0.0001 C.ar    1  LIG1       -0.0121
     11 C           0.3206    7.4021   -0.0002 C.ar    1  LIG1       -0.0146
     12 C          -0.9181    6.8282   -0.0001 C.ar    1  LIG1        0.1424
     13 O          -0.7947    5.4719   -0.0000 O.2     1  LIG1       -0.4512
     14 H           2.3374    6.4131   -0.0002 H       1  LIG1        0.0657
     15 H           0.5346    8.4606   -0.0002 H       1  LIG1        0.0656
     16 C          -2.2641    7.3449   -0.0000 C.ar    1  LIG1        0.0551
     17 C          -3.4334    6.6339    0.0002 C.ar    1  LIG1       -0.0433
     18 C          -4.5860    7.4593    0.0002 C.ar    1  LIG1       -0.0433
     19 C          -4.2915    8.7953    0.0000 C.ar    1  LIG1        0.0551
     20 S          -2.5722    9.0569   -0.0002 S.2     1  LIG1       -0.0821
     21 H          -3.4540    5.5520    0.0003 H       1  LIG1        0.0630
     22 H          -5.6029    7.0894    0.0003 H       1  LIG1        0.0630
     23 C          -5.2149    9.9058   -0.0000 C.ar    1  LIG1        0.1413
     24 C          -5.0660   11.2611    0.0000 C.ar    1  LIG1       -0.0154
     25 C          -6.3833   11.8113   -0.0000 C.ar    1  LIG1       -0.0233
     26 C          -7.2319   10.7557   -0.0001 C.ar    1  LIG1        0.0926
     27 O          -6.5395    9.5889   -0.0001 O.2     1  LIG1       -0.4624
     28 H          -8.3062   10.6652   -0.0002 H       1  LIG1        0.1029
     29 H          -4.1312   11.8017    0.0001 H       1  LIG1        0.0655
     30 H          -6.6564   12.8557   -0.0000 H       1  LIG1        0.0649
@<TRIPOS>BOND
     1    15    11    1
     2    14    10    1
     3    20    16   ar
     4    20    19   ar
     5    28    26    1
     6    11    10   ar
     7    11    12   ar
     8    10     9   ar
     9     7     2    1
    10     8     3    1
    11    26    27   ar
    12    26    25   ar
    13    27    23   ar
    14     2     3   ar
    15     2     1   ar
    16     9     4    1
    17     9    13   ar
    18    12    13   ar
    19    12    16    1
    20     3     4   ar
    21     4     5   ar
    22    25    30    1
    23    25    24   ar
    24    23    19    1
    25    23    24   ar
    26    16    17   ar
    27    19    18   ar
    28    24    29    1
    29     5     1   ar
    30     1     6    1
    31    17    18   ar
    32    17    21    1
    33    18    22    1
