@<TRIPOS>MOLECULE
mol_data/opt/cam/geoms/mol2/1212-8-13.out
 30 33 0 0 0
SMALL
GASTEIGER

@<TRIPOS>ATOM
      1 C           0.0064    1.7520   -0.0003 C.ar    1  LIG1        0.0927
      2 C           1.3595    1.6727    0.0002 C.ar    1  LIG1       -0.0232
      3 C           1.8383    3.0172   -0.0000 C.ar    1  LIG1       -0.0128
      4 C           0.7309    3.8096   -0.0001 C.ar    1  LIG1        0.1697
      5 O          -0.3956    3.0477   -0.0002 O.2     1  LIG1       -0.4598
      6 H          -0.7812    1.0157   -0.0005 H       1  LIG1        0.1029
      7 H           1.9493    0.7686    0.0005 H       1  LIG1        0.0649
      8 H           2.8616    3.3594    0.0000 H       1  LIG1        0.0656
      9 C           0.5454    5.2358   -0.0001 C.ar    1  LIG1        0.1707
     10 C          -0.5666    6.0310   -0.0002 C.ar    1  LIG1       -0.0121
     11 C          -0.0921    7.3675   -0.0002 C.ar    1  LIG1       -0.0119
     12 C           1.2707    7.2924   -0.0001 C.ar    1  LIG1        0.1761
     13 O           1.6675    5.9913   -0.0000 O.2     1  LIG1       -0.4485
     14 H          -1.5899    5.6898   -0.0003 H       1  LIG1        0.0657
     15 H          -0.6685    8.2795   -0.0002 H       1  LIG1        0.0657
     16 C           2.2922    8.3176   -0.0000 C.ar    1  LIG1        0.2381
     17 N           1.8647    9.5906   -0.0001 N.ar    1  LIG1       -0.1220
     18 C           4.0629   10.1669    0.0001 C.ar    1  LIG1        0.2194
     19 N           3.5847    7.9486    0.0001 N.ar    1  LIG1       -0.1220
     20 N           2.7668   10.5308   -0.0000 N.ar    1  LIG1       -0.1236
     21 N           4.4866    8.8905    0.0002 N.ar    1  LIG1       -0.1236
     22 C           5.0437   11.2236    0.0002 C.ar    1  LIG1        0.0875
     23 C           6.4253   11.1938    0.0004 C.ar    1  LIG1       -0.0333
     24 C           6.8700   12.5323   -0.0001 C.ar    1  LIG1       -0.0437
     25 C           5.7503   13.3386    0.0006 C.ar    1  LIG1        0.0023
     26 N           4.6524   12.5394    0.0002 N.ar    1  LIG1       -0.3582
     27 H           3.6846   12.8224    0.0001 H       1  LIG1        0.1654
     28 H           5.6601   14.4142    0.0008 H       1  LIG1        0.0807
     29 H           7.0254   10.2968    0.0005 H       1  LIG1        0.0640
     30 H           7.8941   12.8745   -0.0004 H       1  LIG1        0.0633
@<TRIPOS>BOND
     1     6     1    1
     2    30    24    1
     3     1     5   ar
     4     1     2   ar
     5    14    10    1
     6    15    11    1
     7     5     4   ar
     8    10    11   ar
     9    10     9   ar
    10    11    12   ar
    11     9     4    1
    12     9    13   ar
    13    24    23   ar
    14    24    25   ar
    15     4     3   ar
    16    12    13   ar
    17    12    16    1
    18    17    16   ar
    19    17    20   ar
    20     3     8    1
    21     3     2   ar
    22    16    19   ar
    23    20    18   ar
    24    19    21   ar
    25    18    21   ar
    26    18    22    1
    27    27    26    1
    28    22    26   ar
    29    22    23   ar
    30    26    25   ar
    31     2     7    1
    32    23    29    1
    33    25    28    1
