@<TRIPOS>MOLECULE
mol_data/opt/cam/geoms/mol2/12125.out
 23 25 0 0 0
SMALL
GASTEIGER

@<TRIPOS>ATOM
      1 C           0.3493    1.7196    0.0002 C.ar    1  LIG1        0.0927
      2 C           1.7024    1.7952   -0.0001 C.ar    1  LIG1       -0.0232
      3 C           2.0221    3.1859    0.0002 C.ar    1  LIG1       -0.0128
      4 C           0.8306    3.8494   -0.0000 C.ar    1  LIG1        0.1697
      5 O          -0.1966    2.9609   -0.0001 O.2     1  LIG1       -0.4598
      6 H          -0.3499    0.8992    0.0002 H       1  LIG1        0.1029
      7 H           2.3928    0.9654   -0.0002 H       1  LIG1        0.0649
      8 H           3.0045    3.6332    0.0003 H       1  LIG1        0.0656
      9 C           0.4961    5.2521   -0.0001 C.ar    1  LIG1        0.1706
     10 C           1.2565    6.3847   -0.0000 C.ar    1  LIG1       -0.0121
     11 C           0.3481    7.4785   -0.0002 C.ar    1  LIG1       -0.0146
     12 C          -0.9067    6.9415   -0.0004 C.ar    1  LIG1        0.1424
     13 O          -0.8218    5.5829   -0.0003 O.2     1  LIG1       -0.4512
     14 H           2.3350    6.4304    0.0001 H       1  LIG1        0.0657
     15 H           0.5931    8.5297   -0.0002 H       1  LIG1        0.0656
     16 C          -2.2333    7.5121   -0.0006 C.ar    1  LIG1        0.0544
     17 C          -2.5814    8.8368   -0.0009 C.ar    1  LIG1       -0.0440
     18 C          -3.9882    9.0397   -0.0009 C.ar    1  LIG1       -0.0540
     19 C          -4.6863    7.8712   -0.0005 C.ar    1  LIG1       -0.0236
     20 S          -3.6439    6.4985   -0.0006 S.2     1  LIG1       -0.0936
     21 H          -5.7579    7.7341   -0.0003 H       1  LIG1        0.0693
     22 H          -1.8544    9.6395   -0.0011 H       1  LIG1        0.0630
     23 H          -4.4559   10.0164   -0.0011 H       1  LIG1        0.0623
@<TRIPOS>BOND
     1    22    17    1
     2    23    18    1
     3    17    18   ar
     4    17    16   ar
     5    18    19   ar
     6    16    20   ar
     7    16    12    1
     8    20    19   ar
     9    19    21    1
    10    12    13   ar
    11    12    11   ar
    12    13     9   ar
    13     7     2    1
    14    11    15    1
    15    11    10   ar
    16     9    10   ar
    17     9     4    1
    18     2     1   ar
    19     2     3   ar
    20     5     4   ar
    21     5     1   ar
    22    10    14    1
    23     4     3   ar
    24     1     6    1
    25     3     8    1
