@<TRIPOS>MOLECULE
mol_data/opt/cam/geoms/mol2/12128-13-.out
 30 33 0 0 0
SMALL
GASTEIGER

@<TRIPOS>ATOM
      1 C           0.5892    1.6540   -0.0002 C.ar    1  LIG1        0.0927
      2 C           1.9346    1.8242    0.0003 C.ar    1  LIG1       -0.0232
      3 C           2.1546    3.2330    0.0000 C.ar    1  LIG1       -0.0128
      4 C           0.9186    3.8098   -0.0000 C.ar    1  LIG1        0.1697
      5 O          -0.0429    2.8514   -0.0001 O.2     1  LIG1       -0.4598
      6 H          -0.0500    0.7858   -0.0004 H       1  LIG1        0.1029
      7 H           2.6816    1.0450    0.0006 H       1  LIG1        0.0649
      8 H           3.1027    3.7492    0.0001 H       1  LIG1        0.0656
      9 C           0.4888    5.1861   -0.0001 C.ar    1  LIG1        0.1707
     10 C           1.1831    6.3659   -0.0000 C.ar    1  LIG1       -0.0121
     11 C           0.2102    7.3960   -0.0000 C.ar    1  LIG1       -0.0119
     12 C          -1.0052    6.7743   -0.0001 C.ar    1  LIG1        0.1761
     13 O          -0.8415    5.4255   -0.0001 O.2     1  LIG1       -0.4485
     14 H           2.2566    6.4771    0.0000 H       1  LIG1        0.0657
     15 H           0.3685    8.4631   -0.0000 H       1  LIG1        0.0657
     16 C          -2.3528    7.3033   -0.0002 C.ar    1  LIG1        0.2381
     17 N          -3.3899    6.4483   -0.0003 N.ar    1  LIG1       -0.1220
     18 C          -4.7146    8.2910   -0.0004 C.ar    1  LIG1        0.2194
     19 N          -2.4696    8.6409   -0.0002 N.ar    1  LIG1       -0.1220
     20 N          -4.5928    6.9515   -0.0004 N.ar    1  LIG1       -0.1236
     21 N          -3.6723    9.1426   -0.0003 N.ar    1  LIG1       -0.1236
     22 C          -6.0363    8.8672   -0.0005 C.ar    1  LIG1        0.0875
     23 C          -7.2905    8.2870   -0.0007 C.ar    1  LIG1       -0.0333
     24 C          -8.2337    9.3358   -0.0002 C.ar    1  LIG1       -0.0437
     25 C          -7.5302   10.5228   -0.0010 C.ar    1  LIG1        0.0023
     26 N          -6.2042   10.2296   -0.0006 N.ar    1  LIG1       -0.3582
     27 H          -5.4303   10.8761   -0.0005 H       1  LIG1        0.1654
     28 H          -7.8779   11.5446   -0.0013 H       1  LIG1        0.0807
     29 H          -7.4814    7.2248   -0.0008 H       1  LIG1        0.0640
     30 H          -9.3091    9.2397    0.0001 H       1  LIG1        0.0633
@<TRIPOS>BOND
     1    28    25    1
     2    25    26   ar
     3    25    24   ar
     4    29    23    1
     5    23    22   ar
     6    23    24   ar
     7    26    27    1
     8    26    22   ar
     9    22    18    1
    10    20    18   ar
    11    20    17   ar
    12    18    21   ar
    13     6     1    1
    14    21    19   ar
    15    17    16   ar
    16    19    16   ar
    17    16    12    1
    18     1     5   ar
    19     1     2   ar
    20    24    30    1
    21     5     4   ar
    22    12    13   ar
    23    12    11   ar
    24    13     9   ar
    25     9     4    1
    26     9    10   ar
    27    11    15    1
    28    11    10   ar
    29     4     3   ar
    30    10    14    1
    31     3     8    1
    32     3     2   ar
    33     2     7    1
