@<TRIPOS>MOLECULE
mol_data/opt/cam/geoms/mol2/1212134.out
 34 37 0 0 0
SMALL
GASTEIGER

@<TRIPOS>ATOM
      1 C           0.4851    1.7201   -0.0001 C.ar    1  LIG1        0.0927
      2 C           1.8372    1.8046   -0.0006 C.ar    1  LIG1       -0.0232
      3 C           2.1490    3.1973   -0.0009 C.ar    1  LIG1       -0.0128
      4 C           0.9542    3.8545   -0.0005 C.ar    1  LIG1        0.1697
      5 O          -0.0690    2.9595    0.0000 O.2     1  LIG1       -0.4598
      6 H          -0.2089    0.8952    0.0002 H       1  LIG1        0.1029
      7 H           2.5327    0.9790   -0.0008 H       1  LIG1        0.0649
      8 H           3.1288    3.6503   -0.0013 H       1  LIG1        0.0656
      9 C           0.6081    5.2539   -0.0004 C.ar    1  LIG1        0.1706
     10 C           1.3512    6.3966   -0.0007 C.ar    1  LIG1       -0.0121
     11 C           0.4299    7.4814   -0.0004 C.ar    1  LIG1       -0.0137
     12 C          -0.8173    6.9296    0.0001 C.ar    1  LIG1        0.1519
     13 O          -0.7177    5.5692    0.0001 O.2     1  LIG1       -0.4503
     14 H           2.4292    6.4559   -0.0011 H       1  LIG1        0.0657
     15 H           0.6610    8.5356   -0.0006 H       1  LIG1        0.0656
     16 C          -2.1569    7.4581    0.0006 C.ar    1  LIG1        0.0825
     17 C          -2.6373    8.7535    0.0007 C.ar    1  LIG1       -0.0328
     18 C          -4.0447    8.6766    0.0011 C.ar    1  LIG1       -0.0357
     19 C          -4.4058    7.3396    0.0014 C.ar    1  LIG1        0.0470
     20 N          -3.2386    6.6187    0.0011 N.ar    1  LIG1       -0.3518
     21 H          -3.1528    5.6155    0.0009 H       1  LIG1        0.1660
     22 H          -2.0356    9.6503    0.0004 H       1  LIG1        0.0640
     23 H          -4.7256    9.5144    0.0014 H       1  LIG1        0.0639
     24 C          -6.8830    7.4976    0.0014 C.ar    1  LIG1       -0.0526
     25 C          -8.1423    6.9189    0.0020 C.ar    1  LIG1       -0.0611
     26 C          -5.7257    6.7086    0.0020 C.ar    1  LIG1       -0.0017
     27 C          -8.2824    5.5348    0.0031 C.ar    1  LIG1       -0.0617
     28 H          -9.0220    7.5545    0.0015 H       1  LIG1        0.0618
     29 C          -5.8821    5.3178    0.0032 C.ar    1  LIG1       -0.0526
     30 C          -7.1440    4.7390    0.0037 C.ar    1  LIG1       -0.0611
     31 H          -5.0148    4.6650    0.0037 H       1  LIG1        0.0624
     32 H          -9.2684    5.0825    0.0035 H       1  LIG1        0.0618
     33 H          -6.7935    8.5782    0.0005 H       1  LIG1        0.0624
     34 H          -7.2350    3.6576    0.0046 H       1  LIG1        0.0618
@<TRIPOS>BOND
     1     8     3    1
     2    14    10    1
     3     3     2   ar
     4     3     4   ar
     5     7     2    1
     6    10    11   ar
     7    10     9   ar
     8     2     1   ar
     9    15    11    1
    10     4     9    1
    11     4     5   ar
    12    11    12   ar
    13     9    13   ar
    14     1     5   ar
    15     1     6    1
    16    12    13   ar
    17    12    16    1
    18    22    17    1
    19    33    24    1
    20    16    17   ar
    21    16    20   ar
    22    17    18   ar
    23    21    20    1
    24    20    19   ar
    25    18    23    1
    26    18    19   ar
    27    19    26    1
    28    24    25   ar
    29    24    26   ar
    30    28    25    1
    31    25    27   ar
    32    26    29   ar
    33    27    32    1
    34    27    30   ar
    35    29    30   ar
    36    29    31    1
    37    30    34    1
