@<TRIPOS>MOLECULE
mol_data/opt/cam/geoms/mol2/1212-124-.out
 33 36 0 0 0
SMALL
GASTEIGER

@<TRIPOS>ATOM
      1 C           0.1864    1.6872    0.0004 C.ar    1  LIG1        0.0927
      2 C           1.5411    1.6824    0.0007 C.ar    1  LIG1       -0.0232
      3 C           1.9456    3.0521    0.0004 C.ar    1  LIG1       -0.0128
      4 C           0.7972    3.7839    0.0001 C.ar    1  LIG1        0.1697
      5 O          -0.2851    2.9608    0.0001 O.2     1  LIG1       -0.4598
      6 H          -0.5605    0.9100    0.0004 H       1  LIG1        0.1029
      7 H           2.1796    0.8119    0.0009 H       1  LIG1        0.0649
      8 H           2.9495    3.4472    0.0005 H       1  LIG1        0.0656
      9 C           0.5303    5.1975   -0.0002 C.ar    1  LIG1        0.1707
     10 C          -0.6184    5.9305   -0.0005 C.ar    1  LIG1       -0.0121
     11 C          -0.2208    7.2970   -0.0007 C.ar    1  LIG1       -0.0121
     12 C           1.1423    7.2995   -0.0005 C.ar    1  LIG1        0.1707
     13 O           1.6132    6.0219   -0.0001 O.2     1  LIG1       -0.4486
     14 H          -1.6216    5.5334   -0.0005 H       1  LIG1        0.0657
     15 H          -0.8553    8.1696   -0.0009 H       1  LIG1        0.0657
     16 C           2.1264    8.3461   -0.0005 C.ar    1  LIG1        0.1706
     17 C           3.4893    8.3447   -0.0003 C.ar    1  LIG1       -0.0122
     18 C           3.8847    9.7107   -0.0005 C.ar    1  LIG1       -0.0151
     19 C           2.7418   10.4563   -0.0008 C.ar    1  LIG1        0.1358
     20 O           1.6613    9.6224   -0.0008 O.2     1  LIG1       -0.4517
     21 H           4.1227    7.4713   -0.0000 H       1  LIG1        0.0657
     22 H           4.8955   10.0892   -0.0004 H       1  LIG1        0.0656
     23 C           1.1621   12.3723   -0.0015 C.ar    1  LIG1       -0.0511
     24 C           0.9164   13.7381   -0.0018 C.ar    1  LIG1       -0.0611
     25 C           2.4743   11.8891   -0.0011 C.ar    1  LIG1        0.0173
     26 C           1.9716   14.6430   -0.0017 C.ar    1  LIG1       -0.0617
     27 H          -0.1077   14.0973   -0.0022 H       1  LIG1        0.0618
     28 C           3.5310   12.8064   -0.0010 C.ar    1  LIG1       -0.0511
     29 C           3.2800   14.1697   -0.0013 C.ar    1  LIG1       -0.0611
     30 H           4.5554   12.4491   -0.0006 H       1  LIG1        0.0625
     31 H           1.7770   15.7103   -0.0019 H       1  LIG1        0.0618
     32 H           0.3383   11.6684   -0.0016 H       1  LIG1        0.0625
     33 H           4.1111   14.8675   -0.0011 H       1  LIG1        0.0618
@<TRIPOS>BOND
     1    27    24    1
     2    31    26    1
     3    24    26   ar
     4    24    23   ar
     5    26    29   ar
     6    32    23    1
     7    23    25   ar
     8    29    33    1
     9    29    28   ar
    10    25    28   ar
    11    25    19    1
    12    28    30    1
    13    15    11    1
    14    20    19   ar
    15    20    16   ar
    16    19    18   ar
    17    11    10   ar
    18    11    12   ar
    19    14    10    1
    20    16    12    1
    21    16    17   ar
    22    18    22    1
    23    18    17   ar
    24    10     9   ar
    25    12    13   ar
    26    17    21    1
    27     9    13   ar
    28     9     4    1
    29     5     4   ar
    30     5     1   ar
    31     4     3   ar
    32     1     6    1
    33     1     2   ar
    34     3     8    1
    35     3     2   ar
    36     2     7    1
