@<TRIPOS>MOLECULE
mol_data/opt/cam/geoms/mol2/121213-.out
 24 26 0 0 0
SMALL
GASTEIGER

@<TRIPOS>ATOM
      1 C           0.3660    1.7054    0.0000 C.ar    1  LIG1        0.0927
      2 C           1.7184    1.7885    0.0000 C.ar    1  LIG1       -0.0232
      3 C           2.0308    3.1811    0.0001 C.ar    1  LIG1       -0.0128
      4 C           0.8359    3.8386   -0.0000 C.ar    1  LIG1        0.1697
      5 O          -0.1866    2.9444   -0.0001 O.2     1  LIG1       -0.4598
      6 H          -0.3290    0.8814   -0.0000 H       1  LIG1        0.1029
      7 H           2.4133    0.9623    0.0001 H       1  LIG1        0.0649
      8 H           3.0108    3.6338    0.0002 H       1  LIG1        0.0656
      9 C           0.4935    5.2398   -0.0001 C.ar    1  LIG1        0.1706
     10 C           1.2468    6.3755   -0.0000 C.ar    1  LIG1       -0.0121
     11 C           0.3298    7.4644   -0.0002 C.ar    1  LIG1       -0.0137
     12 C          -0.9215    6.9180   -0.0003 C.ar    1  LIG1        0.1519
     13 O          -0.8285    5.5624   -0.0003 O.2     1  LIG1       -0.4503
     14 H           2.3250    6.4284    0.0001 H       1  LIG1        0.0657
     15 H           0.5780    8.5156   -0.0002 H       1  LIG1        0.0656
     16 C          -2.2549    7.4667   -0.0005 C.ar    1  LIG1        0.0821
     17 C          -3.4811    6.8362   -0.0004 C.ar    1  LIG1       -0.0334
     18 C          -4.4773    7.8431   -0.0010 C.ar    1  LIG1       -0.0437
     19 C          -3.8360    9.0567   -0.0006 C.ar    1  LIG1        0.0023
     20 N          -2.4884    8.8210   -0.0006 N.ar    1  LIG1       -0.3583
     21 H          -1.7755    9.5306   -0.0006 H       1  LIG1        0.1654
     22 H          -4.2254   10.0631   -0.0006 H       1  LIG1        0.0807
     23 H          -3.6268    5.7667   -0.0002 H       1  LIG1        0.0640
     24 H          -5.5468    7.6936   -0.0013 H       1  LIG1        0.0633
@<TRIPOS>BOND
     1    24    18    1
     2    18    19   ar
     3    18    17   ar
     4    20    21    1
     5    20    19   ar
     6    20    16   ar
     7    22    19    1
     8    16    17   ar
     9    16    12    1
    10    17    23    1
    11    12    13   ar
    12    12    11   ar
    13    13     9   ar
    14    11    15    1
    15    11    10   ar
    16     5     4   ar
    17     5     1   ar
    18     9     4    1
    19     9    10   ar
    20     4     3   ar
    21    10    14    1
    22     6     1    1
    23     1     2   ar
    24     2     7    1
    25     2     3   ar
    26     3     8    1
