@<TRIPOS>MOLECULE
mol_data/opt/cam/geoms/mol2/121312-.out
 24 26 0 0 0
SMALL
GASTEIGER

@<TRIPOS>ATOM
      1 C           0.2372    1.7692   -0.0006 C.ar    1  LIG1        0.0926
      2 C           1.5903    1.7592   -0.0003 C.ar    1  LIG1       -0.0233
      3 C           2.0044    3.1273   -0.0001 C.ar    1  LIG1       -0.0144
      4 C           0.8648    3.8726    0.0000 C.ar    1  LIG1        0.1509
      5 O          -0.2243    3.0502   -0.0003 O.2     1  LIG1       -0.4615
      6 H          -0.5148    0.9971   -0.0009 H       1  LIG1        0.1029
      7 H           2.2244    0.8855   -0.0004 H       1  LIG1        0.0649
      8 H           3.0147    3.5067    0.0002 H       1  LIG1        0.0656
      9 C           0.5870    5.2883    0.0003 C.ar    1  LIG1        0.0826
     10 C           1.4208    6.3893    0.0006 C.ar    1  LIG1       -0.0327
     11 C           0.6038    7.5403    0.0004 C.ar    1  LIG1       -0.0327
     12 C          -0.7116    7.1194    0.0008 C.ar    1  LIG1        0.0826
     13 N          -0.7042    5.7487    0.0006 N.ar    1  LIG1       -0.3494
     14 H          -1.5111    5.1463    0.0005 H       1  LIG1        0.1661
     15 H           2.5004    6.3611    0.0007 H       1  LIG1        0.0640
     16 H           0.9249    8.5706    0.0003 H       1  LIG1        0.0640
     17 C          -1.9367    7.8808    0.0011 C.ar    1  LIG1        0.1509
     18 C          -3.2587    7.5454    0.0017 C.ar    1  LIG1       -0.0144
     19 C          -3.9859    8.7757    0.0016 C.ar    1  LIG1       -0.0233
     20 C          -3.0583    9.7613    0.0012 C.ar    1  LIG1        0.0926
     21 O          -1.8062    9.2341    0.0007 O.2     1  LIG1       -0.4615
     22 H          -3.1155   10.8377    0.0010 H       1  LIG1        0.1029
     23 H          -3.6732    6.5480    0.0021 H       1  LIG1        0.0656
     24 H          -5.0580    8.9017    0.0020 H       1  LIG1        0.0649
@<TRIPOS>BOND
     1     6     1    1
     2     1     2   ar
     3     1     5   ar
     4     7     2    1
     5     2     3   ar
     6     5     4   ar
     7     3     4   ar
     8     3     8    1
     9     4     9    1
    10     9    13   ar
    11     9    10   ar
    12    16    11    1
    13    11    10   ar
    14    11    12   ar
    15    14    13    1
    16    13    12   ar
    17    10    15    1
    18    21    17   ar
    19    21    20   ar
    20    12    17    1
    21    22    20    1
    22    17    18   ar
    23    20    19   ar
    24    19    18   ar
    25    19    24    1
    26    18    23    1
