@<TRIPOS>MOLECULE
mol_data/opt/cam/geoms/mol2/1213-13-.out
 25 27 0 0 0
SMALL
GASTEIGER

@<TRIPOS>ATOM
      1 C           0.1685    1.7194    0.0010 C.ar    1  LIG1        0.0926
      2 C           1.5216    1.7141    0.0026 C.ar    1  LIG1       -0.0233
      3 C           1.9247    3.0856    0.0020 C.ar    1  LIG1       -0.0144
      4 C           0.7771    3.8239    0.0001 C.ar    1  LIG1        0.1509
      5 O          -0.3003    2.9952   -0.0005 O.2     1  LIG1       -0.4615
      6 H          -0.5795    0.9434    0.0007 H       1  LIG1        0.1029
      7 H           2.1613    0.8444    0.0041 H       1  LIG1        0.0649
      8 H           2.9378    3.4604    0.0029 H       1  LIG1        0.0656
      9 C           0.4969    5.2381   -0.0013 C.ar    1  LIG1        0.0826
     10 C          -0.7020    5.9169   -0.0033 C.ar    1  LIG1       -0.0328
     11 C          -0.4104    7.2984   -0.0038 C.ar    1  LIG1       -0.0343
     12 C           0.9628    7.4464   -0.0022 C.ar    1  LIG1        0.0634
     13 N           1.5004    6.1802   -0.0007 N.ar    1  LIG1       -0.3506
     14 H           2.4793    5.9520    0.0023 H       1  LIG1        0.1660
     15 H          -1.6767    5.4536   -0.0044 H       1  LIG1        0.0640
     16 H          -1.1239    8.1087   -0.0055 H       1  LIG1        0.0639
     17 C           1.7609    8.6563   -0.0017 C.ar    1  LIG1        0.0629
     18 C           1.3563    9.9752    0.0028 C.ar    1  LIG1       -0.0350
     19 C           2.5167   10.7882    0.0009 C.ar    1  LIG1       -0.0438
     20 C           3.6029    9.9528   -0.0050 C.ar    1  LIG1        0.0022
     21 N           3.1381    8.6625   -0.0065 N.ar    1  LIG1       -0.3595
     22 H           3.7338    7.8529   -0.0118 H       1  LIG1        0.1654
     23 H           4.6611   10.1632   -0.0084 H       1  LIG1        0.0807
     24 H           0.3303   10.3119    0.0075 H       1  LIG1        0.0639
     25 H           2.5488   11.8677    0.0036 H       1  LIG1        0.0633
@<TRIPOS>BOND
     1    22    21    1
     2    23    20    1
     3    21    20   ar
     4    21    17   ar
     5    16    11    1
     6    20    19   ar
     7    15    10    1
     8    11    10   ar
     9    11    12   ar
    10    10     9   ar
    11    12    17    1
    12    12    13   ar
    13    17    18   ar
    14     9    13   ar
    15     9     4    1
    16    13    14    1
    17     5     4   ar
    18     5     1   ar
    19     4     3   ar
    20     6     1    1
    21    19    18   ar
    22    19    25    1
    23     1     2   ar
    24     3     2   ar
    25     3     8    1
    26     2     7    1
    27    18    24    1
