@<TRIPOS>MOLECULE
mol_data/opt/cam/geoms/mol2/12131313-.out
 33 36 0 0 0
SMALL
GASTEIGER

@<TRIPOS>ATOM
      1 C           0.4707    1.8080   -0.7544 C.ar    1  LIG1        0.0926
      2 C           1.7691    1.7690   -0.3761 C.ar    1  LIG1       -0.0233
      3 C           2.1049    3.0903    0.0537 C.ar    1  LIG1       -0.0144
      4 C           0.9780    3.8401   -0.0951 C.ar    1  LIG1        0.1509
      5 O          -0.0299    3.0640   -0.5899 O.2     1  LIG1       -0.4615
      6 H          -0.2162    1.0738   -1.1427 H       1  LIG1        0.1029
      7 H           2.4168    0.9055   -0.3980 H       1  LIG1        0.0649
      8 H           3.0575    3.4371    0.4237 H       1  LIG1        0.0656
      9 C           0.6477    5.2239    0.1463 C.ar    1  LIG1        0.0826
     10 C           1.3962    6.2794    0.6237 C.ar    1  LIG1       -0.0328
     11 C           0.5600    7.4194    0.6431 C.ar    1  LIG1       -0.0343
     12 C          -0.6813    7.0419    0.1734 C.ar    1  LIG1        0.0634
     13 N          -0.6143    5.6991   -0.1139 N.ar    1  LIG1       -0.3506
     14 H          -1.3199    5.1623   -0.5925 H       1  LIG1        0.1660
     15 H           2.4278    6.2270    0.9394 H       1  LIG1        0.0640
     16 H           0.8171    8.4081    0.9929 H       1  LIG1        0.0639
     17 C          -1.8982    7.8076   -0.0153 C.ar    1  LIG1        0.0634
     18 C          -2.0922    9.1114   -0.4166 C.ar    1  LIG1       -0.0343
     19 C          -3.4868    9.3556   -0.4313 C.ar    1  LIG1       -0.0343
     20 C          -4.1223    8.1930   -0.0457 C.ar    1  LIG1        0.0633
     21 N          -3.1441    7.2605    0.1955 N.ar    1  LIG1       -0.3519
     22 H          -3.3205    6.3383    0.5598 H       1  LIG1        0.1660
     23 H          -1.3070    9.8013   -0.6879 H       1  LIG1        0.0639
     24 H          -3.9748   10.2892   -0.6727 H       1  LIG1        0.0639
     25 C          -5.5272    7.8748    0.1195 C.ar    1  LIG1        0.0629
     26 C          -6.1697    6.9725    0.9420 C.ar    1  LIG1       -0.0350
     27 C          -7.5622    7.0752    0.6891 C.ar    1  LIG1       -0.0438
     28 C          -7.7333    8.0355   -0.2746 C.ar    1  LIG1        0.0022
     29 N          -6.4962    8.5156   -0.6115 N.ar    1  LIG1       -0.3595
     30 H          -6.3026    9.1802   -1.3420 H       1  LIG1        0.1654
     31 H          -8.6272    8.4146   -0.7453 H       1  LIG1        0.0807
     32 H          -5.6934    6.3394    1.6774 H       1  LIG1        0.0639
     33 H          -8.3497    6.5151    1.1713 H       1  LIG1        0.0633
@<TRIPOS>BOND
     1    30    29    1
     2     6     1    1
     3     1     5   ar
     4     1     2   ar
     5    31    28    1
     6    23    18    1
     7    24    19    1
     8    29    28   ar
     9    29    25   ar
    10    14    13    1
    11     5     4   ar
    12    19    18   ar
    13    19    20   ar
    14    18    17   ar
    15     7     2    1
    16     2     3   ar
    17    28    27   ar
    18    13     9   ar
    19    13    12   ar
    20     4     3   ar
    21     4     9    1
    22    20    25    1
    23    20    21   ar
    24    17    12    1
    25    17    21   ar
    26     3     8    1
    27    25    26   ar
    28     9    10   ar
    29    12    11   ar
    30    21    22    1
    31    10    11   ar
    32    10    15    1
    33    11    16    1
    34    27    26   ar
    35    27    33    1
    36    26    32    1
