@<TRIPOS>MOLECULE
mol_data/opt/cam/geoms/mol2/12138-13-.out
 31 34 0 0 0
SMALL
GASTEIGER

@<TRIPOS>ATOM
      1 C           0.2523    1.7632   -0.0002 C.ar    1  LIG1        0.0926
      2 C           1.6062    1.7541   -0.0004 C.ar    1  LIG1       -0.0233
      3 C           2.0170    3.1221   -0.0002 C.ar    1  LIG1       -0.0144
      4 C           0.8753    3.8641    0.0000 C.ar    1  LIG1        0.1509
      5 O          -0.2114    3.0408    0.0001 O.2     1  LIG1       -0.4615
      6 H          -0.4983    0.9895   -0.0002 H       1  LIG1        0.1029
      7 H           2.2415    0.8813   -0.0006 H       1  LIG1        0.0649
      8 H           3.0266    3.5038   -0.0003 H       1  LIG1        0.0656
      9 C           0.5994    5.2803    0.0003 C.ar    1  LIG1        0.0826
     10 C           1.4510    6.3767    0.0002 C.ar    1  LIG1       -0.0327
     11 C           0.6506    7.5324    0.0005 C.ar    1  LIG1       -0.0325
     12 C          -0.6699    7.1187    0.0008 C.ar    1  LIG1        0.0880
     13 N          -0.6791    5.7484    0.0006 N.ar    1  LIG1       -0.3492
     14 H          -1.5180    5.1874    0.0007 H       1  LIG1        0.1661
     15 H           2.5300    6.3344   -0.0000 H       1  LIG1        0.0640
     16 H           0.9778    8.5608    0.0006 H       1  LIG1        0.0640
     17 C          -1.9044    7.8633    0.0011 C.ar    1  LIG1        0.2194
     18 N          -3.0504    7.1561    0.0013 N.ar    1  LIG1       -0.1237
     19 C          -4.1249    9.1482    0.0018 C.ar    1  LIG1        0.2194
     20 N          -1.8485    9.2065    0.0013 N.ar    1  LIG1       -0.1237
     21 N          -4.1803    7.8053    0.0016 N.ar    1  LIG1       -0.1237
     22 N          -2.9788    9.8548    0.0016 N.ar    1  LIG1       -0.1237
     23 C          -5.3595    9.8956    0.0021 C.ar    1  LIG1        0.0875
     24 C          -6.6799    9.4892    0.0024 C.ar    1  LIG1       -0.0333
     25 C          -7.4741   10.6556    0.0026 C.ar    1  LIG1       -0.0437
     26 C          -6.6180   11.7370    0.0027 C.ar    1  LIG1        0.0023
     27 N          -5.3430   11.2678    0.0023 N.ar    1  LIG1       -0.3582
     28 H          -4.4890   11.8039    0.0022 H       1  LIG1        0.1654
     29 H          -6.8249   12.7964    0.0029 H       1  LIG1        0.0807
     30 H          -7.0126    8.4625    0.0024 H       1  LIG1        0.0640
     31 H          -8.5528   10.7045    0.0028 H       1  LIG1        0.0633
@<TRIPOS>BOND
     1     7     2    1
     2     2     3   ar
     3     2     1   ar
     4     8     3    1
     5     3     4   ar
     6     1     6    1
     7     1     5   ar
     8    15    10    1
     9     4     5   ar
    10     4     9    1
    11    10     9   ar
    12    10    11   ar
    13     9    13   ar
    14    11    16    1
    15    11    12   ar
    16    13    14    1
    17    13    12   ar
    18    12    17    1
    19    17    18   ar
    20    17    20   ar
    21    18    21   ar
    22    20    22   ar
    23    21    19   ar
    24    22    19   ar
    25    19    23    1
    26    23    27   ar
    27    23    24   ar
    28    28    27    1
    29    27    26   ar
    30    30    24    1
    31    24    25   ar
    32    25    26   ar
    33    25    31    1
    34    26    29    1
