@<TRIPOS>MOLECULE
mol_data/opt/cam/geoms/mol2/1213-134-.out
 35 38 0 0 0
SMALL
GASTEIGER

@<TRIPOS>ATOM
      1 C           0.2143    1.6314    0.0012 C.ar    1  LIG1        0.0926
      2 C           1.5676    1.6482    0.0024 C.ar    1  LIG1       -0.0233
      3 C           1.9480    3.0258    0.0017 C.ar    1  LIG1       -0.0144
      4 C           0.7887    3.7446    0.0003 C.ar    1  LIG1        0.1509
      5 O          -0.2757    2.8988   -0.0000 O.2     1  LIG1       -0.4615
      6 H          -0.5208    0.8430    0.0012 H       1  LIG1        0.1029
      7 H           2.2215    0.7893    0.0035 H       1  LIG1        0.0649
      8 H           2.9542    3.4185    0.0023 H       1  LIG1        0.0656
      9 C           0.4853    5.1545   -0.0009 C.ar    1  LIG1        0.0826
     10 C          -0.7283    5.8090   -0.0022 C.ar    1  LIG1       -0.0328
     11 C          -0.4627    7.1964   -0.0029 C.ar    1  LIG1       -0.0343
     12 C           0.9096    7.3660   -0.0022 C.ar    1  LIG1        0.0634
     13 N           1.4684    6.1134   -0.0009 N.ar    1  LIG1       -0.3506
     14 H           2.4575    5.9294    0.0001 H       1  LIG1        0.1660
     15 H          -1.6938    5.3271   -0.0026 H       1  LIG1        0.0640
     16 H          -1.2021    7.9847   -0.0040 H       1  LIG1        0.0639
     17 C           1.7268    8.5586   -0.0024 C.ar    1  LIG1        0.0633
     18 C           3.0989    8.7264   -0.0028 C.ar    1  LIG1       -0.0344
     19 C           3.3601   10.1132   -0.0030 C.ar    1  LIG1       -0.0358
     20 C           2.1491   10.7786   -0.0026 C.ar    1  LIG1        0.0469
     21 N           1.1719    9.8109   -0.0022 N.ar    1  LIG1       -0.3530
     22 H           0.1818    9.9863   -0.0018 H       1  LIG1        0.1659
     23 H           3.8392    7.9389   -0.0032 H       1  LIG1        0.0639
     24 H           4.3357   10.5755   -0.0033 H       1  LIG1        0.0639
     25 C           0.5329   12.6926   -0.0021 C.ar    1  LIG1       -0.0526
     26 C           0.2699   14.0558   -0.0020 C.ar    1  LIG1       -0.0611
     27 C           1.8466   12.2096   -0.0024 C.ar    1  LIG1       -0.0017
     28 C           1.3127   14.9730   -0.0023 C.ar    1  LIG1       -0.0617
     29 H          -0.7591   14.4008   -0.0017 H       1  LIG1        0.0618
     30 C           2.8874   13.1477   -0.0027 C.ar    1  LIG1       -0.0526
     31 C           2.6241   14.5081   -0.0026 C.ar    1  LIG1       -0.0611
     32 H           3.9158   12.8043   -0.0030 H       1  LIG1        0.0624
     33 H           1.1073   16.0381   -0.0022 H       1  LIG1        0.0618
     34 H          -0.3085   12.0064   -0.0019 H       1  LIG1        0.0624
     35 H           3.4504   15.2117   -0.0029 H       1  LIG1        0.0618
@<TRIPOS>BOND
     1    16    11    1
     2    24    19    1
     3    23    18    1
     4    32    30    1
     5    19    18   ar
     6    19    20   ar
     7    11    10   ar
     8    11    12   ar
     9    35    31    1
    10    18    17   ar
    11    30    31   ar
    12    30    27   ar
    13    31    28   ar
    14    15    10    1
    15    20    27    1
    16    20    21   ar
    17    27    25   ar
    18    17    21   ar
    19    17    12    1
    20    28    33    1
    21    28    26   ar
    22    21    22    1
    23    10     9   ar
    24    12    13   ar
    25    25    26   ar
    26    25    34    1
    27    26    29    1
    28    13     9   ar
    29    13    14    1
    30     9     4    1
    31     5     4   ar
    32     5     1   ar
    33     4     3   ar
    34     6     1    1
    35     1     2   ar
    36     3     8    1
    37     3     2   ar
    38     2     7    1
