@<TRIPOS>MOLECULE
mol_data/opt/cam/geoms/mol2/1213-48-.out
 33 36 0 0 0
SMALL
GASTEIGER

@<TRIPOS>ATOM
      1 C           0.1539    1.6590   -0.0005 C.ar    1  LIG1        0.0926
      2 C           1.5077    1.6597    0.0008 C.ar    1  LIG1       -0.0233
      3 C           1.9036    3.0325    0.0007 C.ar    1  LIG1       -0.0144
      4 C           0.7526    3.7643   -0.0002 C.ar    1  LIG1        0.1509
      5 O          -0.3214    2.9309   -0.0009 O.2     1  LIG1       -0.4615
      6 H          -0.5899    0.8788   -0.0010 H       1  LIG1        0.1029
      7 H           2.1516    0.7934    0.0016 H       1  LIG1        0.0649
      8 H           2.9145    3.4131    0.0013 H       1  LIG1        0.0656
      9 C           0.4640    5.1778   -0.0007 C.ar    1  LIG1        0.0825
     10 C          -0.7470    5.8426   -0.0015 C.ar    1  LIG1       -0.0328
     11 C          -0.4681    7.2229   -0.0014 C.ar    1  LIG1       -0.0357
     12 C           0.9067    7.3873   -0.0007 C.ar    1  LIG1        0.0470
     13 N           1.4526    6.1239   -0.0003 N.ar    1  LIG1       -0.3518
     14 H           2.4367    5.9172    0.0006 H       1  LIG1        0.1660
     15 H          -1.7163    5.3685   -0.0021 H       1  LIG1        0.0640
     16 H          -1.1984    8.0180   -0.0020 H       1  LIG1        0.0639
     17 C           3.1194    8.5572   -0.0007 C.ar    1  LIG1       -0.0520
     18 C           3.8730    9.7170   -0.0005 C.ar    1  LIG1       -0.0503
     19 C           1.7179    8.5978   -0.0005 C.ar    1  LIG1       -0.0017
     20 C           3.2486   10.9659    0.0001 C.ar    1  LIG1        0.0227
     21 H           4.9551    9.6674   -0.0007 H       1  LIG1        0.0625
     22 C           1.1037    9.8596    0.0001 C.ar    1  LIG1       -0.0520
     23 C           1.8509   11.0208    0.0004 C.ar    1  LIG1       -0.0503
     24 H           0.0222    9.9281    0.0004 H       1  LIG1        0.0624
     25 H           3.6455    7.6081   -0.0013 H       1  LIG1        0.0624
     26 H           1.3612   11.9870    0.0008 H       1  LIG1        0.0625
     27 C           4.0468   12.2001    0.0004 C.ar    1  LIG1        0.2033
     28 N           3.3953   13.3753    0.0010 N.ar    1  LIG1       -0.1258
     29 C           5.4328   14.3424    0.0012 C.ar    1  LIG1        0.1605
     30 N           5.3858   12.0877    0.0001 N.ar    1  LIG1       -0.1258
     31 N           4.1075   14.4740    0.0014 N.ar    1  LIG1       -0.1339
     32 N           6.0963   13.1874    0.0005 N.ar    1  LIG1       -0.1339
     33 H           6.0215   15.2525    0.0012 H       1  LIG1        0.1085
@<TRIPOS>BOND
     1    15    10    1
     2    16    11    1
     3    10    11   ar
     4    10     9   ar
     5    11    12   ar
     6    25    17    1
     7     6     1    1
     8     5     1   ar
     9     5     4   ar
    10    17    18   ar
    11    17    19   ar
    12    12    19    1
    13    12    13   ar
    14    21    18    1
    15     9    13   ar
    16     9     4    1
    17     1     2   ar
    18    18    20   ar
    19    19    22   ar
    20    13    14    1
    21     4     3   ar
    22    20    23   ar
    23    20    27    1
    24    22    23   ar
    25    22    24    1
    26    30    27   ar
    27    30    32   ar
    28    23    26    1
    29    27    28   ar
    30    32    29   ar
    31     3     2   ar
    32     3     8    1
    33     2     7    1
    34    28    31   ar
    35    33    29    1
    36    29    31   ar
