@<TRIPOS>MOLECULE
mol_data/opt/cam/geoms/mol2/1213-13.out
 25 27 0 0 0
SMALL
GASTEIGER

@<TRIPOS>ATOM
      1 C           0.2057    1.7273    0.0003 C.ar    1  LIG1        0.0926
      2 C           1.5589    1.7401    0.0009 C.ar    1  LIG1       -0.0233
      3 C           1.9437    3.1167    0.0006 C.ar    1  LIG1       -0.0144
      4 C           0.7866    3.8391   -0.0001 C.ar    1  LIG1        0.1509
      5 O          -0.2803    2.9964   -0.0003 O.2     1  LIG1       -0.4615
      6 H          -0.5317    0.9411    0.0002 H       1  LIG1        0.1029
      7 H           2.2102    0.8791    0.0014 H       1  LIG1        0.0649
      8 H           2.9510    3.5067    0.0008 H       1  LIG1        0.0656
      9 C           0.4879    5.2500   -0.0007 C.ar    1  LIG1        0.0826
     10 C          -0.7227    5.9091   -0.0012 C.ar    1  LIG1       -0.0328
     11 C          -0.4515    7.2961   -0.0016 C.ar    1  LIG1       -0.0343
     12 C           0.9209    7.4601   -0.0012 C.ar    1  LIG1        0.0634
     13 N           1.4748    6.2060   -0.0007 N.ar    1  LIG1       -0.3506
     14 H           2.4633    6.0189   -0.0001 H       1  LIG1        0.1660
     15 H          -1.6902    5.4310   -0.0014 H       1  LIG1        0.0640
     16 H          -1.1874    8.0877   -0.0021 H       1  LIG1        0.0639
     17 C           1.7439    8.6513   -0.0014 C.ar    1  LIG1        0.0629
     18 C           3.1147    8.8152   -0.0024 C.ar    1  LIG1       -0.0350
     19 C           3.3839   10.2075   -0.0022 C.ar    1  LIG1       -0.0438
     20 C           2.1765   10.8569   -0.0005 C.ar    1  LIG1        0.0022
     21 N           1.1904    9.9073   -0.0002 N.ar    1  LIG1       -0.3595
     22 H           0.2022   10.0950    0.0008 H       1  LIG1        0.1654
     23 H           1.9381   11.9091    0.0003 H       1  LIG1        0.0807
     24 H           3.8509    8.0236   -0.0035 H       1  LIG1        0.0639
     25 H           4.3563   10.6773   -0.0031 H       1  LIG1        0.0633
@<TRIPOS>BOND
     1    24    18    1
     2    25    19    1
     3    18    19   ar
     4    18    17   ar
     5    19    20   ar
     6    16    11    1
     7    11    12   ar
     8    11    10   ar
     9    15    10    1
    10    17    12    1
    11    17    21   ar
    12    12    13   ar
    13    10     9   ar
    14    13     9   ar
    15    13    14    1
    16     9     4    1
    17    20    21   ar
    18    20    23    1
    19     5     4   ar
    20     5     1   ar
    21    21    22    1
    22     4     3   ar
    23     6     1    1
    24     1     2   ar
    25     3     8    1
    26     3     2   ar
    27     2     7    1
