@<TRIPOS>MOLECULE
mol_data/opt/cam/geoms/mol2/1213135.out
 32 35 0 0 0
SMALL
GASTEIGER

@<TRIPOS>ATOM
      1 C           0.4383    1.8052   -0.6746 C.ar    1  LIG1        0.0926
      2 C           1.7418    1.7688   -0.3141 C.ar    1  LIG1       -0.0233
      3 C           2.0880    3.0969    0.0855 C.ar    1  LIG1       -0.0144
      4 C           0.9616    3.8475   -0.0616 C.ar    1  LIG1        0.1509
      5 O          -0.0558    3.0657   -0.5272 O.2     1  LIG1       -0.4615
      6 H          -0.2565    1.0661   -1.0389 H       1  LIG1        0.1029
      7 H           2.3864    0.9028   -0.3287 H       1  LIG1        0.0649
      8 H           3.0470    3.4473    0.4352 H       1  LIG1        0.0656
      9 C           0.6393    5.2367    0.1583 C.ar    1  LIG1        0.0826
     10 C           1.3986    6.2983    0.6046 C.ar    1  LIG1       -0.0328
     11 C           0.5672    7.4417    0.6132 C.ar    1  LIG1       -0.0343
     12 C          -0.6821    7.0598    0.1691 C.ar    1  LIG1        0.0634
     13 N          -0.6247    5.7111   -0.0924 N.ar    1  LIG1       -0.3506
     14 H          -1.3376    5.1677   -0.5526 H       1  LIG1        0.1660
     15 H           2.4344    6.2481    0.9062 H       1  LIG1        0.0640
     16 H           0.8331    8.4360    0.9397 H       1  LIG1        0.0639
     17 C          -1.8977    7.8279   -0.0148 C.ar    1  LIG1        0.0633
     18 C          -2.0887    9.1299   -0.4279 C.ar    1  LIG1       -0.0344
     19 C          -3.4796    9.3810   -0.4341 C.ar    1  LIG1       -0.0353
     20 C          -4.1192    8.2262   -0.0324 C.ar    1  LIG1        0.0536
     21 N          -3.1419    7.2895    0.2154 N.ar    1  LIG1       -0.3526
     22 H          -3.3104    6.3702    0.5921 H       1  LIG1        0.1660
     23 H          -1.3023    9.8124   -0.7138 H       1  LIG1        0.0639
     24 H          -3.9714   10.3076   -0.6909 H       1  LIG1        0.0639
     25 C          -5.5316    7.9404    0.1338 C.ar    1  LIG1        0.0355
     26 C          -6.5899    8.5104   -0.5181 C.ar    1  LIG1       -0.0455
     27 C          -7.8513    8.0020   -0.0956 C.ar    1  LIG1       -0.0541
     28 C          -7.7431    7.0453    0.8639 C.ar    1  LIG1       -0.0237
     29 S          -6.0942    6.7679    1.2949 S.2     1  LIG1       -0.0952
     30 H          -8.5307    6.4870    1.3480 H       1  LIG1        0.0693
     31 H          -6.4645    9.2542   -1.2949 H       1  LIG1        0.0629
     32 H          -8.7993    8.3289   -0.5048 H       1  LIG1        0.0623
@<TRIPOS>BOND
     1    31    26    1
     2     6     1    1
     3    23    18    1
     4    24    19    1
     5     1     5   ar
     6     1     2   ar
     7    14    13    1
     8     5     4   ar
     9    26    27   ar
    10    26    25   ar
    11    32    27    1
    12    19    18   ar
    13    19    20   ar
    14    18    17   ar
    15     7     2    1
    16     2     3   ar
    17    27    28   ar
    18    13     9   ar
    19    13    12   ar
    20     4     3   ar
    21     4     9    1
    22    20    25    1
    23    20    21   ar
    24    17    12    1
    25    17    21   ar
    26     3     8    1
    27    25    29   ar
    28     9    10   ar
    29    12    11   ar
    30    21    22    1
    31    10    11   ar
    32    10    15    1
    33    11    16    1
    34    28    29   ar
    35    28    30    1
