@<TRIPOS>MOLECULE
mol_data/opt/cam/geoms/mol2/12135-.out
 24 26 0 0 0
SMALL
GASTEIGER

@<TRIPOS>ATOM
      1 C           0.2859    1.7411   -0.0005 C.ar    1  LIG1        0.0926
      2 C           1.6390    1.7470   -0.0009 C.ar    1  LIG1       -0.0233
      3 C           2.0369    3.1198   -0.0003 C.ar    1  LIG1       -0.0144
      4 C           0.8886    3.8516   -0.0000 C.ar    1  LIG1        0.1509
      5 O          -0.1907    3.0164   -0.0002 O.2     1  LIG1       -0.4615
      6 H          -0.4570    0.9601   -0.0006 H       1  LIG1        0.1029
      7 H           2.2833    0.8807   -0.0014 H       1  LIG1        0.0649
      8 H           3.0427    3.5110   -0.0003 H       1  LIG1        0.0656
      9 C           0.5939    5.2638    0.0004 C.ar    1  LIG1        0.0825
     10 C           1.4147    6.3744    0.0005 C.ar    1  LIG1       -0.0328
     11 C           0.5820    7.5131    0.0012 C.ar    1  LIG1       -0.0352
     12 C          -0.7317    7.0807    0.0010 C.ar    1  LIG1        0.0536
     13 N          -0.7016    5.7091    0.0006 N.ar    1  LIG1       -0.3514
     14 H          -1.4997    5.0955    0.0002 H       1  LIG1        0.1660
     15 H           2.4944    6.3606    0.0003 H       1  LIG1        0.0640
     16 H           0.9025    8.5448    0.0017 H       1  LIG1        0.0639
     17 C          -1.9785    7.8188    0.0013 C.ar    1  LIG1        0.0355
     18 C          -3.2619    7.3403    0.0027 C.ar    1  LIG1       -0.0455
     19 C          -4.2469    8.3685    0.0024 C.ar    1  LIG1       -0.0541
     20 C          -3.7053    9.6149    0.0007 C.ar    1  LIG1       -0.0237
     21 S          -1.9799    9.5576    0.0002 S.2     1  LIG1       -0.0952
     22 H          -4.2143   10.5675    0.0001 H       1  LIG1        0.0693
     23 H          -3.5088    6.2851    0.0039 H       1  LIG1        0.0629
     24 H          -5.3132    8.1797    0.0032 H       1  LIG1        0.0623
@<TRIPOS>BOND
     1     7     2    1
     2     2     1   ar
     3     2     3   ar
     4     6     1    1
     5     1     5   ar
     6     3     8    1
     7     3     4   ar
     8     5     4   ar
     9     4     9    1
    10    22    20    1
    11    14    13    1
    12    21    20   ar
    13    21    17   ar
    14    15    10    1
    15     9    10   ar
    16     9    13   ar
    17    10    11   ar
    18    13    12   ar
    19    20    19   ar
    20    12    11   ar
    21    12    17    1
    22    11    16    1
    23    17    18   ar
    24    19    18   ar
    25    19    24    1
    26    18    23    1
