@<TRIPOS>MOLECULE
mol_data/opt/cam/geoms/mol2/121312.out
 24 26 0 0 0
SMALL
GASTEIGER

@<TRIPOS>ATOM
      1 C           0.2453    1.7723   -0.0005 C.ar    1  LIG1        0.0926
      2 C           1.5986    1.7657   -0.0002 C.ar    1  LIG1       -0.0233
      3 C           2.0085    3.1349   -0.0001 C.ar    1  LIG1       -0.0144
      4 C           0.8664    3.8767    0.0000 C.ar    1  LIG1        0.1509
      5 O          -0.2198    3.0514   -0.0002 O.2     1  LIG1       -0.4615
      6 H          -0.5048    0.9982   -0.0008 H       1  LIG1        0.1029
      7 H           2.2351    0.8936   -0.0001 H       1  LIG1        0.0649
      8 H           3.0178    3.5172    0.0001 H       1  LIG1        0.0656
      9 C           0.5857    5.2920    0.0003 C.ar    1  LIG1        0.0826
     10 C           1.4215    6.3930    0.0004 C.ar    1  LIG1       -0.0327
     11 C           0.6064    7.5449    0.0003 C.ar    1  LIG1       -0.0327
     12 C          -0.7100    7.1231    0.0007 C.ar    1  LIG1        0.0826
     13 N          -0.7029    5.7541    0.0006 N.ar    1  LIG1       -0.3494
     14 H          -1.5255    5.1720    0.0006 H       1  LIG1        0.1661
     15 H           2.5010    6.3637    0.0004 H       1  LIG1        0.0640
     16 H           0.9380    8.5727    0.0003 H       1  LIG1        0.0640
     17 C          -1.9513    7.8587    0.0010 C.ar    1  LIG1        0.1509
     18 C          -2.2708    9.1825    0.0010 C.ar    1  LIG1       -0.0144
     19 C          -3.6984    9.2515    0.0016 C.ar    1  LIG1       -0.0233
     20 C          -4.1424    7.9731    0.0014 C.ar    1  LIG1        0.0926
     21 O          -3.0909    7.1090    0.0013 O.2     1  LIG1       -0.4615
     22 H          -5.1219    7.5233    0.0016 H       1  LIG1        0.1029
     23 H          -1.5745   10.0071    0.0008 H       1  LIG1        0.0656
     24 H          -4.3090   10.1419    0.0020 H       1  LIG1        0.0649
@<TRIPOS>BOND
     1     6     1    1
     2     1     5   ar
     3     1     2   ar
     4     5     4   ar
     5     2     7    1
     6     2     3   ar
     7     3     4   ar
     8     3     8    1
     9     4     9    1
    10     9    10   ar
    11     9    13   ar
    12    16    11    1
    13    11    10   ar
    14    11    12   ar
    15    15    10    1
    16    13    14    1
    17    13    12   ar
    18    12    17    1
    19    23    18    1
    20    18    17   ar
    21    18    19   ar
    22    17    21   ar
    23    21    20   ar
    24    20    22    1
    25    20    19   ar
    26    19    24    1
