@<TRIPOS>MOLECULE
mol_data/opt/cam/geoms/mol2/1213-.out
 17 18 0 0 0
SMALL
GASTEIGER

@<TRIPOS>ATOM
      1 C           0.2227    1.7903    0.0000 C.ar    1  LIG1        0.0926
      2 C           1.5756    1.7979    0.0002 C.ar    1  LIG1       -0.0233
      3 C           1.9652    3.1731    0.0001 C.ar    1  LIG1       -0.0144
      4 C           0.8119    3.9004   -0.0002 C.ar    1  LIG1        0.1508
      5 O          -0.2582    3.0615   -0.0002 O.2     1  LIG1       -0.4615
      6 H          -0.5185    1.0077    0.0000 H       1  LIG1        0.1029
      7 H           2.2237    0.9345    0.0005 H       1  LIG1        0.0649
      8 H           2.9741    3.5589    0.0002 H       1  LIG1        0.0656
      9 C           0.5168    5.3139   -0.0004 C.ar    1  LIG1        0.0821
     10 C          -0.6914    5.9773   -0.0004 C.ar    1  LIG1       -0.0334
     11 C          -0.4153    7.3666   -0.0005 C.ar    1  LIG1       -0.0437
     12 C           0.9490    7.5147   -0.0008 C.ar    1  LIG1        0.0023
     13 N           1.5075    6.2657   -0.0007 N.ar    1  LIG1       -0.3583
     14 H           2.4944    6.0713   -0.0006 H       1  LIG1        0.1654
     15 H           1.5654    8.4003   -0.0011 H       1  LIG1        0.0807
     16 H          -1.6597    5.5004   -0.0003 H       1  LIG1        0.0640
     17 H          -1.1382    8.1690   -0.0005 H       1  LIG1        0.0633
@<TRIPOS>BOND
     1    15    12    1
     2    12    13   ar
     3    12    11   ar
     4    13    14    1
     5    13     9   ar
     6    11    17    1
     7    11    10   ar
     8    10     9   ar
     9    10    16    1
    10     9     4    1
    11     5     4   ar
    12     5     1   ar
    13     4     3   ar
    14     6     1    1
    15     1     2   ar
    16     3     2   ar
    17     3     8    1
    18     2     7    1
