@<TRIPOS>MOLECULE
mol_data/opt/cam/geoms/mol2/1213-13-5.out
 32 35 0 0 0
SMALL
GASTEIGER

@<TRIPOS>ATOM
      1 C           0.0376    1.6870    0.0269 C.ar    1  LIG1        0.0926
      2 C           1.3710    1.6691    0.2578 C.ar    1  LIG1       -0.0233
      3 C           1.7977    3.0329    0.2276 C.ar    1  LIG1       -0.0144
      4 C           0.6824    3.7791   -0.0169 C.ar    1  LIG1        0.1509
      5 O          -0.3978    2.9633   -0.1400 O.2     1  LIG1       -0.4615
      6 H          -0.7157    0.9196   -0.0467 H       1  LIG1        0.1029
      7 H           1.9830    0.7957    0.4253 H       1  LIG1        0.0649
      8 H           2.8058    3.3996    0.3534 H       1  LIG1        0.0656
      9 C           0.4406    5.1939   -0.1614 C.ar    1  LIG1        0.0826
     10 C          -0.6853    5.8759   -0.5686 C.ar    1  LIG1       -0.0328
     11 C          -0.3859    7.2579   -0.5302 C.ar    1  LIG1       -0.0343
     12 C           0.9149    7.3955   -0.0958 C.ar    1  LIG1        0.0634
     13 N           1.4146    6.1276    0.1077 N.ar    1  LIG1       -0.3506
     14 H           2.2652    5.9329    0.6106 H       1  LIG1        0.1660
     15 H          -1.6098    5.4152   -0.8817 H       1  LIG1        0.0640
     16 H          -1.0327    8.0717   -0.8225 H       1  LIG1        0.0639
     17 C           1.7242    8.5754    0.1305 C.ar    1  LIG1        0.0633
     18 C           1.3871    9.8306    0.5881 C.ar    1  LIG1       -0.0344
     19 C           2.5664   10.6122    0.6104 C.ar    1  LIG1       -0.0353
     20 C           3.6058    9.8206    0.1706 C.ar    1  LIG1        0.0536
     21 N           3.0825    8.5755   -0.1008 N.ar    1  LIG1       -0.3526
     22 H           3.5607    7.8783   -0.6488 H       1  LIG1        0.1660
     23 H           0.4013   10.1310    0.9106 H       1  LIG1        0.0639
     24 H           2.6601   11.6324    0.9533 H       1  LIG1        0.0639
     25 C           5.0180   10.0958   -0.0062 C.ar    1  LIG1        0.0355
     26 C           6.0681    9.2168    0.0195 C.ar    1  LIG1       -0.0455
     27 C           7.3286    9.8414   -0.2007 C.ar    1  LIG1       -0.0541
     28 C           7.2240   11.1844   -0.3851 C.ar    1  LIG1       -0.0237
     29 S           5.5814   11.7100   -0.3154 S.2     1  LIG1       -0.0952
     30 H           8.0149   11.8996   -0.5578 H       1  LIG1        0.0693
     31 H           5.9492    8.1598    0.2261 H       1  LIG1        0.0629
     32 H           8.2720    9.3094   -0.2064 H       1  LIG1        0.0623
@<TRIPOS>BOND
     1    15    10    1
     2    16    11    1
     3    22    21    1
     4    10    11   ar
     5    10     9   ar
     6    30    28    1
     7    11    12   ar
     8    28    29   ar
     9    28    27   ar
    10    29    25   ar
    11    32    27    1
    12    27    26   ar
    13     9     4    1
    14     9    13   ar
    15     5     4   ar
    16     5     1   ar
    17    21    17   ar
    18    21    20   ar
    19    12    13   ar
    20    12    17    1
    21     6     1    1
    22     4     3   ar
    23    25    26   ar
    24    25    20    1
    25    26    31    1
    26     1     2   ar
    27    13    14    1
    28    17    18   ar
    29    20    19   ar
    30     3     2   ar
    31     3     8    1
    32     2     7    1
    33    18    19   ar
    34    18    23    1
    35    19    24    1
