@<TRIPOS>MOLECULE
mol_data/opt/cam/geoms/mol2/1213-8.out
 23 25 0 0 0
SMALL
GASTEIGER

@<TRIPOS>ATOM
      1 C           0.2243    1.7680    0.0001 C.ar    1  LIG1        0.0926
      2 C           1.5788    1.7799    0.0005 C.ar    1  LIG1       -0.0233
      3 C           1.9628    3.1550    0.0000 C.ar    1  LIG1       -0.0144
      4 C           0.8054    3.8758   -0.0001 C.ar    1  LIG1        0.1509
      5 O          -0.2623    3.0340   -0.0001 O.2     1  LIG1       -0.4615
      6 H          -0.5122    0.9807    0.0001 H       1  LIG1        0.1029
      7 H           2.2299    0.9190    0.0008 H       1  LIG1        0.0649
      8 H           2.9693    3.5471   -0.0000 H       1  LIG1        0.0656
      9 C           0.5053    5.2871   -0.0004 C.ar    1  LIG1        0.0826
     10 C          -0.7233    5.9350   -0.0004 C.ar    1  LIG1       -0.0327
     11 C          -0.4728    7.3169   -0.0005 C.ar    1  LIG1       -0.0325
     12 C           0.9008    7.4855   -0.0010 C.ar    1  LIG1        0.0880
     13 N           1.4775    6.2396   -0.0008 N.ar    1  LIG1       -0.3492
     14 H           2.4764    6.0998   -0.0010 H       1  LIG1        0.1661
     15 H          -1.6827    5.4412   -0.0002 H       1  LIG1        0.0640
     16 H          -1.1948    8.1190   -0.0005 H       1  LIG1        0.0640
     17 C           1.7188    8.6687   -0.0015 C.ar    1  LIG1        0.2193
     18 N           3.0529    8.4912   -0.0018 N.ar    1  LIG1       -0.1243
     19 C           3.1973   10.7402   -0.0024 C.ar    1  LIG1        0.1605
     20 N           1.1098    9.8713   -0.0016 N.ar    1  LIG1       -0.1243
     21 N           3.8109    9.5594   -0.0022 N.ar    1  LIG1       -0.1338
     22 N           1.8748   10.9299   -0.0020 N.ar    1  LIG1       -0.1338
     23 H           3.8229   11.6249   -0.0026 H       1  LIG1        0.1085
@<TRIPOS>BOND
     1    23    19    1
     2    19    21   ar
     3    19    22   ar
     4    21    18   ar
     5    22    20   ar
     6    18    17   ar
     7    20    17   ar
     8    17    12    1
     9    12    13   ar
    10    12    11   ar
    11    14    13    1
    12    13     9   ar
    13    11    16    1
    14    11    10   ar
    15    10     9   ar
    16    10    15    1
    17     9     4    1
    18     4     5   ar
    19     4     3   ar
    20     5     1   ar
    21     8     3    1
    22     3     2   ar
    23     1     6    1
    24     1     2   ar
    25     2     7    1
