@<TRIPOS>MOLECULE
mol_data/opt/cam/geoms/mol2/1213-13-8-.out
 31 34 0 0 0
SMALL
GASTEIGER

@<TRIPOS>ATOM
      1 C           0.1076    1.6966    0.0004 C.ar    1  LIG1        0.0926
      2 C           1.4611    1.6764    0.0018 C.ar    1  LIG1       -0.0233
      3 C           1.8784    3.0430    0.0011 C.ar    1  LIG1       -0.0144
      4 C           0.7387    3.7924   -0.0000 C.ar    1  LIG1        0.1509
      5 O          -0.3480    2.9760   -0.0004 O.2     1  LIG1       -0.4615
      6 H          -0.6483    0.9282    0.0001 H       1  LIG1        0.1029
      7 H           2.0916    0.8003    0.0028 H       1  LIG1        0.0649
      8 H           2.8956    3.4069    0.0016 H       1  LIG1        0.0656
      9 C           0.4719    5.2098   -0.0009 C.ar    1  LIG1        0.0826
     10 C          -0.7259    5.8952   -0.0018 C.ar    1  LIG1       -0.0328
     11 C          -0.4269    7.2727   -0.0022 C.ar    1  LIG1       -0.0343
     12 C           0.9483    7.4109   -0.0015 C.ar    1  LIG1        0.0634
     13 N           1.4798    6.1413   -0.0008 N.ar    1  LIG1       -0.3506
     14 H           2.4585    5.9090    0.0005 H       1  LIG1        0.1660
     15 H          -1.7025    5.4363   -0.0022 H       1  LIG1        0.0640
     16 H          -1.1357    8.0873   -0.0030 H       1  LIG1        0.0639
     17 C           1.7510    8.6120   -0.0016 C.ar    1  LIG1        0.0634
     18 C           1.3407    9.9427   -0.0002 C.ar    1  LIG1       -0.0343
     19 C           2.4882   10.7494   -0.0009 C.ar    1  LIG1       -0.0326
     20 C           3.5842    9.9052   -0.0028 C.ar    1  LIG1        0.0880
     21 N           3.1143    8.6120   -0.0030 N.ar    1  LIG1       -0.3505
     22 H           3.7460    7.8263   -0.0046 H       1  LIG1        0.1660
     23 H           0.3143   10.2767    0.0012 H       1  LIG1        0.0639
     24 H           2.5370   11.8276   -0.0001 H       1  LIG1        0.0640
     25 C           4.9964   10.1603   -0.0043 C.ar    1  LIG1        0.2193
     26 N           5.4236   11.4403   -0.0038 N.ar    1  LIG1       -0.1243
     27 C           7.5101   10.5669   -0.0067 C.ar    1  LIG1        0.1605
     28 N           5.8106    9.0870   -0.0059 N.ar    1  LIG1       -0.1243
     29 N           6.7135   11.6403   -0.0051 N.ar    1  LIG1       -0.1338
     30 N           7.1028    9.3002   -0.0072 N.ar    1  LIG1       -0.1338
     31 H           8.5788   10.7452   -0.0080 H       1  LIG1        0.1085
@<TRIPOS>BOND
     1    31    27    1
     2    30    27   ar
     3    30    28   ar
     4    27    29   ar
     5    28    25   ar
     6    29    26   ar
     7    22    21    1
     8    25    26   ar
     9    25    20    1
    10    16    11    1
    11    21    20   ar
    12    21    17   ar
    13    20    19   ar
    14    15    10    1
    15    11    10   ar
    16    11    12   ar
    17    10     9   ar
    18    17    12    1
    19    17    18   ar
    20    12    13   ar
    21    19    18   ar
    22    19    24    1
    23     9    13   ar
    24     9     4    1
    25    13    14    1
    26     5     4   ar
    27     5     1   ar
    28    18    23    1
    29     4     3   ar
    30     6     1    1
    31     1     2   ar
    32     3     8    1
    33     3     2   ar
    34     2     7    1
