@<TRIPOS>MOLECULE
mol_data/opt/cam/geoms/mol2/12138-.out
 23 25 0 0 0
SMALL
GASTEIGER

@<TRIPOS>ATOM
      1 C           0.2303    1.7808   -0.0004 C.ar    1  LIG1        0.0926
      2 C           1.5845    1.7758   -0.0002 C.ar    1  LIG1       -0.0233
      3 C           1.9907    3.1450   -0.0001 C.ar    1  LIG1       -0.0144
      4 C           0.8464    3.8829    0.0000 C.ar    1  LIG1        0.1509
      5 O          -0.2377    3.0563   -0.0001 O.2     1  LIG1       -0.4615
      6 H          -0.5177    1.0046   -0.0006 H       1  LIG1        0.1029
      7 H           2.2225    0.9050   -0.0002 H       1  LIG1        0.0649
      8 H           2.9991    3.5299   -0.0000 H       1  LIG1        0.0656
      9 C           0.5662    5.2984    0.0002 C.ar    1  LIG1        0.0826
     10 C           1.4179    6.3967    0.0003 C.ar    1  LIG1       -0.0327
     11 C           0.6171    7.5501    0.0003 C.ar    1  LIG1       -0.0325
     12 C          -0.7039    7.1343    0.0007 C.ar    1  LIG1        0.0880
     13 N          -0.7114    5.7629    0.0005 N.ar    1  LIG1       -0.3492
     14 H          -1.5493    5.2001    0.0005 H       1  LIG1        0.1661
     15 H           2.4968    6.3550    0.0002 H       1  LIG1        0.0640
     16 H           0.9418    8.5793    0.0003 H       1  LIG1        0.0640
     17 C          -1.9358    7.8778    0.0011 C.ar    1  LIG1        0.2193
     18 N          -3.0804    7.1699    0.0013 N.ar    1  LIG1       -0.1243
     19 C          -4.1315    9.1640    0.0017 C.ar    1  LIG1        0.1605
     20 N          -1.8716    9.2240    0.0012 N.ar    1  LIG1       -0.1243
     21 N          -4.2086    7.8353    0.0016 N.ar    1  LIG1       -0.1338
     22 N          -3.0026    9.8778    0.0015 N.ar    1  LIG1       -0.1338
     23 H          -5.0644    9.7153    0.0018 H       1  LIG1        0.1085
@<TRIPOS>BOND
     1     6     1    1
     2     1     2   ar
     3     1     5   ar
     4     7     2    1
     5     2     3   ar
     6     5     4   ar
     7     3     8    1
     8     3     4   ar
     9     4     9    1
    10    15    10    1
    11     9    10   ar
    12     9    13   ar
    13    10    11   ar
    14    16    11    1
    15    11    12   ar
    16    13    14    1
    17    13    12   ar
    18    12    17    1
    19    17    20   ar
    20    17    18   ar
    21    20    22   ar
    22    18    21   ar
    23    22    19   ar
    24    21    19   ar
    25    19    23    1
