@<TRIPOS>MOLECULE
mol_data/opt/cam/geoms/mol2/121313-8.out
 31 34 0 0 0
SMALL
GASTEIGER

@<TRIPOS>ATOM
      1 C           0.2703    1.7294   -0.0016 C.ar    1  LIG1        0.0926
      2 C           1.6235    1.7203   -0.0010 C.ar    1  LIG1       -0.0233
      3 C           2.0363    3.0885   -0.0003 C.ar    1  LIG1       -0.0144
      4 C           0.8961    3.8323   -0.0002 C.ar    1  LIG1        0.1509
      5 O          -0.1923    3.0095   -0.0010 O.2     1  LIG1       -0.4615
      6 H          -0.4809    0.9565   -0.0024 H       1  LIG1        0.1029
      7 H           2.2583    0.8471   -0.0012 H       1  LIG1        0.0649
      8 H           3.0465    3.4683    0.0003 H       1  LIG1        0.0656
      9 C           0.6160    5.2477    0.0006 C.ar    1  LIG1        0.0826
     10 C           1.4484    6.3500    0.0014 C.ar    1  LIG1       -0.0328
     11 C           0.6280    7.4975    0.0017 C.ar    1  LIG1       -0.0343
     12 C          -0.6900    7.0764    0.0013 C.ar    1  LIG1        0.0634
     13 N          -0.6741    5.7055    0.0006 N.ar    1  LIG1       -0.3506
     14 H          -1.4801    5.1016   -0.0002 H       1  LIG1        0.1660
     15 H           2.5279    6.3255    0.0017 H       1  LIG1        0.0640
     16 H           0.9679    8.5233    0.0024 H       1  LIG1        0.0639
     17 C          -1.9271    7.8214    0.0014 C.ar    1  LIG1        0.0634
     18 C          -3.2497    7.3865    0.0022 C.ar    1  LIG1       -0.0343
     19 C          -4.0756    8.5222    0.0022 C.ar    1  LIG1       -0.0326
     20 C          -3.2480    9.6302    0.0010 C.ar    1  LIG1        0.0880
     21 N          -1.9494    9.1818    0.0007 N.ar    1  LIG1       -0.3505
     22 H          -1.1554    9.8037   -0.0001 H       1  LIG1        0.1660
     23 H          -3.5793    6.3576    0.0030 H       1  LIG1        0.0639
     24 H          -5.1543    8.5542    0.0028 H       1  LIG1        0.0640
     25 C          -3.5380   11.0376    0.0004 C.ar    1  LIG1        0.2193
     26 N          -2.4882   11.8809   -0.0006 N.ar    1  LIG1       -0.1243
     27 C          -4.0162   13.5382   -0.0008 C.ar    1  LIG1        0.1605
     28 N          -4.8290   11.4280    0.0008 N.ar    1  LIG1       -0.1243
     29 N          -2.7384   13.1668   -0.0012 N.ar    1  LIG1       -0.1338
     30 N          -5.0666   12.7121    0.0002 N.ar    1  LIG1       -0.1338
     31 H          -4.2244   14.6016   -0.0013 H       1  LIG1        0.1085
@<TRIPOS>BOND
     1     6     1    1
     2     1     2   ar
     3     1     5   ar
     4    31    27    1
     5    29    27   ar
     6    29    26   ar
     7     7     2    1
     8     2     3   ar
     9     5     4   ar
    10    27    30   ar
    11    26    25   ar
    12     3     4   ar
    13     3     8    1
    14    14    13    1
    15     4     9    1
    16    22    21    1
    17    30    28   ar
    18    25    28   ar
    19    25    20    1
    20    13     9   ar
    21    13    12   ar
    22     9    10   ar
    23    21    20   ar
    24    21    17   ar
    25    20    19   ar
    26    12    17    1
    27    12    11   ar
    28    10    15    1
    29    10    11   ar
    30    17    18   ar
    31    11    16    1
    32    19    18   ar
    33    19    24    1
    34    18    23    1
