@<TRIPOS>MOLECULE
mol_data/opt/cam/geoms/mol2/1213.out
 17 18 0 0 0
SMALL
GASTEIGER

@<TRIPOS>ATOM
      1 C           0.2155    1.7999   -0.0003 C.ar    1  LIG1        0.0926
      2 C           1.5680    1.7945   -0.0002 C.ar    1  LIG1       -0.0233
      3 C           1.9775    3.1642    0.0001 C.ar    1  LIG1       -0.0144
      4 C           0.8367    3.9064    0.0000 C.ar    1  LIG1        0.1508
      5 O          -0.2499    3.0800   -0.0002 O.2     1  LIG1       -0.4615
      6 H          -0.5348    1.0261   -0.0006 H       1  LIG1        0.1029
      7 H           2.2051    0.9227   -0.0002 H       1  LIG1        0.0649
      8 H           2.9867    3.5466    0.0003 H       1  LIG1        0.0656
      9 C           0.5535    5.3226    0.0002 C.ar    1  LIG1        0.0821
     10 C           1.3821    6.4256    0.0003 C.ar    1  LIG1       -0.0334
     11 C           0.5562    7.5761    0.0003 C.ar    1  LIG1       -0.0437
     12 C          -0.7485    7.1465    0.0005 C.ar    1  LIG1        0.0023
     13 N          -0.7397    5.7804    0.0004 N.ar    1  LIG1       -0.3583
     14 H          -1.5443    5.1754    0.0003 H       1  LIG1        0.1654
     15 H          -1.6751    7.6993    0.0007 H       1  LIG1        0.0807
     16 H           2.4619    6.4008    0.0003 H       1  LIG1        0.0640
     17 H           0.8830    8.6054    0.0003 H       1  LIG1        0.0633
@<TRIPOS>BOND
     1     6     1    1
     2     1     5   ar
     3     1     2   ar
     4     5     4   ar
     5     7     2    1
     6     2     3   ar
     7     4     3   ar
     8     4     9    1
     9     3     8    1
    10     9    10   ar
    11     9    13   ar
    12    14    13    1
    13    16    10    1
    14    17    11    1
    15    10    11   ar
    16    11    12   ar
    17    13    12   ar
    18    12    15    1
