@<TRIPOS>MOLECULE
mol_data/opt/cam/geoms/mol2/1213-13-4.out
 35 38 0 0 0
SMALL
GASTEIGER

@<TRIPOS>ATOM
      1 C           0.0160    1.6856    0.3284 C.ar    1  LIG1        0.0926
      2 C           1.3207    1.6982    0.6878 C.ar    1  LIG1       -0.0233
      3 C           1.7530    3.0552    0.5669 C.ar    1  LIG1       -0.0144
      4 C           0.6692    3.7676    0.1446 C.ar    1  LIG1        0.1509
      5 O          -0.3969    2.9372   -0.0027 O.2     1  LIG1       -0.4615
      6 H          -0.7294    0.9103    0.2568 H       1  LIG1        0.1029
      7 H           1.9105    0.8487    0.9975 H       1  LIG1        0.0649
      8 H           2.7456    3.4383    0.7525 H       1  LIG1        0.0656
      9 C           0.4479    5.1604   -0.1590 C.ar    1  LIG1        0.0826
     10 C          -0.6258    5.7929   -0.7458 C.ar    1  LIG1       -0.0328
     11 C          -0.3268    7.1747   -0.8082 C.ar    1  LIG1       -0.0343
     12 C           0.9208    7.3620   -0.2545 C.ar    1  LIG1        0.0634
     13 N           1.3922    6.1221    0.1206 N.ar    1  LIG1       -0.3506
     14 H           2.1775    5.9811    0.7353 H       1  LIG1        0.1660
     15 H          -1.5135    5.2983   -1.1099 H       1  LIG1        0.0640
     16 H          -0.9358    7.9528   -1.2436 H       1  LIG1        0.0639
     17 C           1.7044    8.5662   -0.0575 C.ar    1  LIG1        0.0633
     18 C           1.3263    9.8460    0.2889 C.ar    1  LIG1       -0.0344
     19 C           2.4976   10.6346    0.3612 C.ar    1  LIG1       -0.0358
     20 C           3.5754    9.8279    0.0577 C.ar    1  LIG1        0.0469
     21 N           3.0732    8.5722   -0.1921 N.ar    1  LIG1       -0.3530
     22 H           3.6217    7.7835   -0.4927 H       1  LIG1        0.1659
     23 H           0.3134   10.1616    0.4901 H       1  LIG1        0.0639
     24 H           2.5509   11.6887    0.5907 H       1  LIG1        0.0639
     25 C           5.8592    9.3903   -0.8563 C.ar    1  LIG1       -0.0526
     26 C           7.2141    9.6862   -0.9267 C.ar    1  LIG1       -0.0611
     27 C           5.0041   10.1308   -0.0326 C.ar    1  LIG1       -0.0017
     28 C           7.7410   10.7376   -0.1866 C.ar    1  LIG1       -0.0617
     29 H           7.8580    9.0997   -1.5742 H       1  LIG1        0.0618
     30 C           5.5486   11.1848    0.7102 C.ar    1  LIG1       -0.0526
     31 C           6.8992   11.4881    0.6281 C.ar    1  LIG1       -0.0611
     32 H           4.9037   11.7558    1.3696 H       1  LIG1        0.0624
     33 H           8.7986   10.9719   -0.2449 H       1  LIG1        0.0618
     34 H           5.4594    8.5931   -1.4764 H       1  LIG1        0.0624
     35 H           7.3004   12.3092    1.2137 H       1  LIG1        0.0618
@<TRIPOS>BOND
     1    29    26    1
     2    34    25    1
     3    16    11    1
     4    15    10    1
     5    26    25   ar
     6    26    28   ar
     7    25    27   ar
     8    11    10   ar
     9    11    12   ar
    10    10     9   ar
    11    22    21    1
    12    12    17    1
    13    12    13   ar
    14    33    28    1
    15    21    17   ar
    16    21    20   ar
    17    28    31   ar
    18     9    13   ar
    19     9     4    1
    20    17    18   ar
    21    27    20    1
    22    27    30   ar
    23     5     4   ar
    24     5     1   ar
    25    20    19   ar
    26    13    14    1
    27     4     3   ar
    28     6     1    1
    29    18    19   ar
    30    18    23    1
    31     1     2   ar
    32    19    24    1
    33     3     2   ar
    34     3     8    1
    35    31    30   ar
    36    31    35    1
    37     2     7    1
    38    30    32    1
