@<TRIPOS>MOLECULE
mol_data/opt/cam/geoms/mol2/1213-125-.out
 31 34 0 0 0
SMALL
GASTEIGER

@<TRIPOS>ATOM
      1 C           0.2756    1.6523    0.0006 C.ar    1  LIG1        0.0926
      2 C           1.6287    1.6870    0.0007 C.ar    1  LIG1       -0.0233
      3 C           1.9905    3.0695    0.0004 C.ar    1  LIG1       -0.0144
      4 C           0.8215    3.7724   -0.0001 C.ar    1  LIG1        0.1509
      5 O          -0.2313    2.9125    0.0001 O.2     1  LIG1       -0.4615
      6 H          -0.4487    0.8541    0.0008 H       1  LIG1        0.1029
      7 H           2.2941    0.8369    0.0011 H       1  LIG1        0.0649
      8 H           2.9915    3.4754    0.0004 H       1  LIG1        0.0656
      9 C           0.4987    5.1781   -0.0006 C.ar    1  LIG1        0.0826
     10 C          -0.7261    5.8152   -0.0008 C.ar    1  LIG1       -0.0327
     11 C          -0.4840    7.2052   -0.0012 C.ar    1  LIG1       -0.0327
     12 C           0.8843    7.3914   -0.0013 C.ar    1  LIG1        0.0826
     13 N           1.4687    6.1487   -0.0009 N.ar    1  LIG1       -0.3494
     14 H           2.4598    5.9753   -0.0007 H       1  LIG1        0.1661
     15 H          -1.6833    5.3170   -0.0007 H       1  LIG1        0.0640
     16 H          -1.2170    7.9972   -0.0015 H       1  LIG1        0.0640
     17 C           1.6623    8.6027   -0.0018 C.ar    1  LIG1        0.1518
     18 C           3.0013    8.8698   -0.0022 C.ar    1  LIG1       -0.0138
     19 C           3.1306   10.2871   -0.0025 C.ar    1  LIG1       -0.0147
     20 C           1.8650   10.7932   -0.0022 C.ar    1  LIG1        0.1423
     21 O           0.9638    9.7695   -0.0018 O.2     1  LIG1       -0.4528
     22 H           3.8059    8.1493   -0.0023 H       1  LIG1        0.0656
     23 H           4.0469   10.8585   -0.0029 H       1  LIG1        0.0656
     24 C           1.3172   12.1290   -0.0023 C.ar    1  LIG1        0.0544
     25 C          -0.0017   12.4922   -0.0022 C.ar    1  LIG1       -0.0440
     26 C          -0.1877   13.9031   -0.0023 C.ar    1  LIG1       -0.0540
     27 C           0.9859   14.5899   -0.0026 C.ar    1  LIG1       -0.0236
     28 S           2.3476   13.5284   -0.0027 S.2     1  LIG1       -0.0936
     29 H           1.1374   15.6594   -0.0028 H       1  LIG1        0.0693
     30 H          -0.8047   11.7668   -0.0019 H       1  LIG1        0.0630
     31 H          -1.1589   14.3822   -0.0022 H       1  LIG1        0.0623
@<TRIPOS>BOND
     1    23    19    1
     2    29    27    1
     3    28    27   ar
     4    28    24   ar
     5    27    26   ar
     6    19    20   ar
     7    19    18   ar
     8    26    31    1
     9    26    25   ar
    10    24    20    1
    11    24    25   ar
    12    22    18    1
    13    20    21   ar
    14    18    17   ar
    15    25    30    1
    16    21    17   ar
    17    17    12    1
    18    16    11    1
    19    12    11   ar
    20    12    13   ar
    21    11    10   ar
    22    13    14    1
    23    13     9   ar
    24    10    15    1
    25    10     9   ar
    26     9     4    1
    27     4     5   ar
    28     4     3   ar
    29     5     1   ar
    30     3     8    1
    31     3     2   ar
    32     1     2   ar
    33     1     6    1
    34     2     7    1
