@<TRIPOS>MOLECULE
mol_data/opt/cam/geoms/mol2/1213-12.out
 24 26 0 0 0
SMALL
GASTEIGER

@<TRIPOS>ATOM
      1 C           0.2165    1.7450    0.0002 C.ar    1  LIG1        0.0926
      2 C           1.5698    1.7574    0.0006 C.ar    1  LIG1       -0.0233
      3 C           1.9545    3.1338    0.0002 C.ar    1  LIG1       -0.0144
      4 C           0.7974    3.8562   -0.0001 C.ar    1  LIG1        0.1509
      5 O          -0.2694    3.0136   -0.0001 O.2     1  LIG1       -0.4615
      6 H          -0.5210    0.9588    0.0003 H       1  LIG1        0.1029
      7 H           2.2210    0.8964    0.0010 H       1  LIG1        0.0649
      8 H           2.9619    3.5234    0.0002 H       1  LIG1        0.0656
      9 C           0.4981    5.2672   -0.0005 C.ar    1  LIG1        0.0826
     10 C          -0.7151    5.9252   -0.0008 C.ar    1  LIG1       -0.0327
     11 C          -0.4490    7.3116   -0.0007 C.ar    1  LIG1       -0.0327
     12 C           0.9216    7.4737   -0.0011 C.ar    1  LIG1        0.0826
     13 N           1.4847    6.2217   -0.0009 N.ar    1  LIG1       -0.3494
     14 H           2.4727    6.0321   -0.0008 H       1  LIG1        0.1661
     15 H          -1.6809    5.4438   -0.0007 H       1  LIG1        0.0640
     16 H          -1.1679    8.1164   -0.0006 H       1  LIG1        0.0640
     17 C           1.7220    8.6736   -0.0015 C.ar    1  LIG1        0.1509
     18 C           3.0643    8.9162   -0.0022 C.ar    1  LIG1       -0.0144
     19 C           3.2166   10.3372   -0.0023 C.ar    1  LIG1       -0.0233
     20 C           1.9640   10.8498   -0.0018 C.ar    1  LIG1        0.0926
     21 O           1.0430    9.8512   -0.0012 O.2     1  LIG1       -0.4615
     22 H           1.5700   11.8532   -0.0017 H       1  LIG1        0.1029
     23 H           3.8560    8.1814   -0.0026 H       1  LIG1        0.0656
     24 H           4.1402   10.8960   -0.0027 H       1  LIG1        0.0649
@<TRIPOS>BOND
     1    24    19    1
     2    23    18    1
     3    19    18   ar
     4    19    20   ar
     5    18    17   ar
     6    20    22    1
     7    20    21   ar
     8    17    21   ar
     9    17    12    1
    10    12    13   ar
    11    12    11   ar
    12    13    14    1
    13    13     9   ar
    14    10    15    1
    15    10    11   ar
    16    10     9   ar
    17    11    16    1
    18     9     4    1
    19     4     5   ar
    20     4     3   ar
    21     5     1   ar
    22     3     8    1
    23     3     2   ar
    24     1     6    1
    25     1     2   ar
    26     2     7    1
