@<TRIPOS>MOLECULE
mol_data/opt/cam/geoms/mol2/1213-4.out
 27 29 0 0 0
SMALL
GASTEIGER

@<TRIPOS>ATOM
      1 C           0.1883    1.7040   -0.0002 C.ar    1  LIG1        0.0926
      2 C           1.5417    1.7104    0.0012 C.ar    1  LIG1       -0.0233
      3 C           1.9324    3.0851    0.0009 C.ar    1  LIG1       -0.0144
      4 C           0.7786    3.8127   -0.0001 C.ar    1  LIG1        0.1509
      5 O          -0.2920    2.9748   -0.0007 O.2     1  LIG1       -0.4615
      6 H          -0.5527    0.9212   -0.0007 H       1  LIG1        0.1029
      7 H           2.1890    0.8465    0.0020 H       1  LIG1        0.0649
      8 H           2.9417    3.4701    0.0015 H       1  LIG1        0.0656
      9 C           0.4849    5.2251   -0.0006 C.ar    1  LIG1        0.0825
     10 C          -0.7253    5.8876   -0.0015 C.ar    1  LIG1       -0.0328
     11 C          -0.4483    7.2705   -0.0014 C.ar    1  LIG1       -0.0357
     12 C           0.9248    7.4365   -0.0009 C.ar    1  LIG1        0.0470
     13 N           1.4725    6.1757   -0.0004 N.ar    1  LIG1       -0.3518
     14 H           2.4571    5.9723    0.0005 H       1  LIG1        0.1660
     15 H          -1.6942    5.4123   -0.0021 H       1  LIG1        0.0640
     16 H          -1.1797    8.0646   -0.0020 H       1  LIG1        0.0639
     17 C           3.1378    8.6117   -0.0015 C.ar    1  LIG1       -0.0526
     18 C           3.8894    9.7791   -0.0013 C.ar    1  LIG1       -0.0611
     19 C           1.7388    8.6522   -0.0007 C.ar    1  LIG1       -0.0017
     20 C           3.2624   11.0183   -0.0004 C.ar    1  LIG1       -0.0617
     21 H           4.9729    9.7166   -0.0019 H       1  LIG1        0.0618
     22 C           1.1216    9.9099    0.0002 C.ar    1  LIG1       -0.0526
     23 C           1.8722   11.0746    0.0003 C.ar    1  LIG1       -0.0611
     24 H           0.0393    9.9735    0.0009 H       1  LIG1        0.0624
     25 H           3.8493   11.9306   -0.0002 H       1  LIG1        0.0618
     26 H           3.6637    7.6618   -0.0024 H       1  LIG1        0.0624
     27 H           1.3671   12.0352    0.0011 H       1  LIG1        0.0618
@<TRIPOS>BOND
     1    26    17    1
     2    15    10    1
     3    16    11    1
     4    21    18    1
     5    10    11   ar
     6    10     9   ar
     7    17    18   ar
     8    17    19   ar
     9    11    12   ar
    10    18    20   ar
    11    12    19    1
    12    12    13   ar
    13    19    22   ar
    14     5     1   ar
    15     5     4   ar
    16     6     1    1
    17     9    13   ar
    18     9     4    1
    19    20    25    1
    20    20    23   ar
    21    13    14    1
    22     1     2   ar
    23     4     3   ar
    24    22    23   ar
    25    22    24    1
    26    23    27    1
    27     3     2   ar
    28     3     8    1
    29     2     7    1
