@<TRIPOS>MOLECULE
mol_data/opt/cam/geoms/mol2/1213-4-5.out
 34 37 0 0 0
SMALL
GASTEIGER

@<TRIPOS>ATOM
      1 C           0.0578    1.6624    0.2708 C.ar    1  LIG1        0.0926
      2 C           1.4021    1.6497    0.4278 C.ar    1  LIG1       -0.0233
      3 C           1.8298    3.0073    0.2999 C.ar    1  LIG1       -0.0144
      4 C           0.7045    3.7452    0.0772 C.ar    1  LIG1        0.1509
      5 O          -0.3831    2.9298    0.0586 O.2     1  LIG1       -0.4615
      6 H          -0.7002    0.8962    0.2807 H       1  LIG1        0.1029
      7 H           2.0204    0.7834    0.6084 H       1  LIG1        0.0649
      8 H           2.8443    3.3745    0.3508 H       1  LIG1        0.0656
      9 C           0.4575    5.1512   -0.1318 C.ar    1  LIG1        0.0825
     10 C          -0.6953    5.8153   -0.4956 C.ar    1  LIG1       -0.0328
     11 C          -0.3908    7.1934   -0.5490 C.ar    1  LIG1       -0.0357
     12 C           0.9415    7.3498   -0.2207 C.ar    1  LIG1        0.0470
     13 N           1.4451    6.0925    0.0173 N.ar    1  LIG1       -0.3518
     14 H           2.3543    5.9101    0.4087 H       1  LIG1        0.1660
     15 H          -1.6416    5.3437   -0.7123 H       1  LIG1        0.0640
     16 H          -1.0617    7.9893   -0.8371 H       1  LIG1        0.0639
     17 C           1.1923    9.7950    0.1328 C.ar    1  LIG1       -0.0520
     18 C           1.9663   10.9395    0.2095 C.ar    1  LIG1       -0.0529
     19 C           1.7708    8.5485   -0.1308 C.ar    1  LIG1       -0.0017
     20 C           3.3553   10.8859    0.0476 C.ar    1  LIG1       -0.0113
     21 H           1.4849   11.8947    0.3935 H       1  LIG1        0.0624
     22 C           3.1587    8.4967   -0.3030 C.ar    1  LIG1       -0.0520
     23 C           3.9359    9.6387   -0.2024 C.ar    1  LIG1       -0.0529
     24 H           3.6405    7.5524   -0.5384 H       1  LIG1        0.0624
     25 H           0.1209    9.8608    0.2879 H       1  LIG1        0.0624
     26 H           5.0124    9.5643   -0.3131 H       1  LIG1        0.0624
     27 C           4.1898   12.0911    0.1276 C.ar    1  LIG1        0.0193
     28 C           5.3733   12.3446   -0.5098 C.ar    1  LIG1       -0.0469
     29 C           5.9208   13.6220   -0.2025 C.ar    1  LIG1       -0.0541
     30 C           5.1477   14.3282    0.6655 C.ar    1  LIG1       -0.0237
     31 S           3.7431   13.4432    1.1283 S.2     1  LIG1       -0.0967
     32 H           5.3213   15.3175    1.0635 H       1  LIG1        0.0693
     33 H           5.8267   11.6476   -1.2039 H       1  LIG1        0.0629
     34 H           6.8466   13.9981   -0.6201 H       1  LIG1        0.0623
@<TRIPOS>BOND
     1    33    28    1
     2    16    11    1
     3    15    10    1
     4    34    29    1
     5    11    10   ar
     6    11    12   ar
     7    24    22    1
     8    28    29   ar
     9    28    27   ar
    10    10     9   ar
    11    26    23    1
    12    22    23   ar
    13    22    19   ar
    14    12    19    1
    15    12    13   ar
    16    29    30   ar
    17    23    20   ar
    18     9    13   ar
    19     9     4    1
    20    19    17   ar
    21    13    14    1
    22    20    27    1
    23    20    18   ar
    24     5     4   ar
    25     5     1   ar
    26     4     3   ar
    27    27    31   ar
    28    17    18   ar
    29    17    25    1
    30    18    21    1
    31     1     6    1
    32     1     2   ar
    33     3     8    1
    34     3     2   ar
    35     2     7    1
    36    30    32    1
    37    30    31   ar
