@<TRIPOS>MOLECULE
mol_data/opt/cam/geoms/mol2/124-5-12-.out
 33 36 0 0 0
SMALL
GASTEIGER

@<TRIPOS>ATOM
      1 C           0.2466    1.6058    0.0005 C.ar    1  LIG1        0.0926
      2 C           1.6009    1.6226    0.0013 C.ar    1  LIG1       -0.0233
      3 C           1.9782    2.9991    0.0008 C.ar    1  LIG1       -0.0159
      4 C           0.8221    3.7220   -0.0003 C.ar    1  LIG1        0.1348
      5 O          -0.2421    2.8700   -0.0005 O.2     1  LIG1       -0.4629
      6 H          -0.4872    0.8159    0.0004 H       1  LIG1        0.1029
      7 H           2.2548    0.7636    0.0021 H       1  LIG1        0.0649
      8 H           2.9823    3.3952    0.0012 H       1  LIG1        0.0655
      9 C          -0.7909    5.6136   -0.0023 C.ar    1  LIG1       -0.0505
     10 C          -1.0655    6.9693   -0.0032 C.ar    1  LIG1       -0.0529
     11 C           0.5280    5.1493   -0.0012 C.ar    1  LIG1        0.0173
     12 C          -0.0382    7.9214   -0.0029 C.ar    1  LIG1       -0.0113
     13 H          -2.1006    7.2910   -0.0042 H       1  LIG1        0.0624
     14 C           1.5584    6.0936   -0.0009 C.ar    1  LIG1       -0.0505
     15 C           1.2799    7.4483   -0.0018 C.ar    1  LIG1       -0.0529
     16 H           2.5925    5.7659   -0.0000 H       1  LIG1        0.0625
     17 H          -1.6045    4.8979   -0.0025 H       1  LIG1        0.0625
     18 H           2.1077    8.1501   -0.0015 H       1  LIG1        0.0624
     19 C          -0.3420    9.3562   -0.0038 C.ar    1  LIG1        0.0200
     20 C          -1.5672    9.9702   -0.0034 C.ar    1  LIG1       -0.0462
     21 C          -1.4980   11.3846   -0.0046 C.ar    1  LIG1       -0.0434
     22 C          -0.2138   11.8580   -0.0059 C.ar    1  LIG1        0.0550
     23 S           0.9269   10.5510   -0.0057 S.2     1  LIG1       -0.0852
     24 H          -2.5047    9.4293   -0.0022 H       1  LIG1        0.0629
     25 H          -2.3678   12.0297   -0.0044 H       1  LIG1        0.0630
     26 C           0.2304   13.2326   -0.0072 C.ar    1  LIG1        0.1413
     27 C          -0.4232   14.4296   -0.0077 C.ar    1  LIG1       -0.0154
     28 C           0.5858   15.4392   -0.0092 C.ar    1  LIG1       -0.0233
     29 C           1.7734   14.7877   -0.0095 C.ar    1  LIG1        0.0926
     30 O           1.5751   13.4453   -0.0083 O.2     1  LIG1       -0.4624
     31 H           2.8012   15.1123   -0.0105 H       1  LIG1        0.1029
     32 H          -1.4929   14.5737   -0.0071 H       1  LIG1        0.0655
     33 H           0.4403   16.5089   -0.0100 H       1  LIG1        0.0649
@<TRIPOS>BOND
     1    31    29    1
     2    33    28    1
     3    29    28   ar
     4    29    30   ar
     5    28    27   ar
     6    30    26   ar
     7    27    26   ar
     8    27    32    1
     9    26    22    1
    10    22    23   ar
    11    22    21   ar
    12    23    19   ar
    13    21    25    1
    14    21    20   ar
    15    13    10    1
    16    19    20   ar
    17    19    12    1
    18    20    24    1
    19    10    12   ar
    20    10     9   ar
    21    12    15   ar
    22    17     9    1
    23     9    11   ar
    24    15    18    1
    25    15    14   ar
    26    11    14   ar
    27    11     4    1
    28    14    16    1
    29     5     4   ar
    30     5     1   ar
    31     4     3   ar
    32     6     1    1
    33     1     2   ar
    34     3     8    1
    35     3     2   ar
    36     2     7    1
