@<TRIPOS>MOLECULE
mol_data/opt/cam/geoms/mol2/124-128-.out
 32 35 0 0 0
SMALL
GASTEIGER

@<TRIPOS>ATOM
      1 C           0.3953    1.6266    0.0010 C.ar    1  LIG1        0.0926
      2 C           1.7490    1.6800    0.0010 C.ar    1  LIG1       -0.0233
      3 C           2.0883    3.0660    0.0007 C.ar    1  LIG1       -0.0159
      4 C           0.9125    3.7568   -0.0002 C.ar    1  LIG1        0.1348
      5 O          -0.1277    2.8761   -0.0001 O.2     1  LIG1       -0.4629
      6 H          -0.3165    0.8167    0.0013 H       1  LIG1        0.1029
      7 H           2.4260    0.8393    0.0015 H       1  LIG1        0.0649
      8 H           3.0814    3.4888    0.0008 H       1  LIG1        0.0655
      9 C          -0.7535    5.5993   -0.0021 C.ar    1  LIG1       -0.0504
     10 C          -1.0682    6.9473   -0.0030 C.ar    1  LIG1       -0.0504
     11 C           0.5789    5.1752   -0.0012 C.ar    1  LIG1        0.0173
     12 C          -0.0583    7.9140   -0.0031 C.ar    1  LIG1        0.0173
     13 H          -2.1051    7.2625   -0.0037 H       1  LIG1        0.0625
     14 C           1.5885    6.1451   -0.0012 C.ar    1  LIG1       -0.0504
     15 C           1.2755    7.4909   -0.0022 C.ar    1  LIG1       -0.0504
     16 H           2.6297    5.8415   -0.0005 H       1  LIG1        0.0625
     17 H          -1.5448    4.8594   -0.0021 H       1  LIG1        0.0625
     18 H           2.0764    8.2226   -0.0022 H       1  LIG1        0.0625
     19 C          -0.3863    9.3325   -0.0040 C.ar    1  LIG1        0.1358
     20 C           0.3705   10.4755   -0.0045 C.ar    1  LIG1       -0.0151
     21 C          -0.5371   11.5622   -0.0054 C.ar    1  LIG1       -0.0120
     22 C          -1.7872   11.0138   -0.0055 C.ar    1  LIG1        0.1760
     23 O          -1.7006    9.6587   -0.0047 O.2     1  LIG1       -0.4516
     24 H           1.4480   10.5317   -0.0041 H       1  LIG1        0.0656
     25 H          -0.3157   12.6182   -0.0060 H       1  LIG1        0.0657
     26 C          -3.1012   11.6164   -0.0064 C.ar    1  LIG1        0.2381
     27 N          -4.1799   10.8171   -0.0064 N.ar    1  LIG1       -0.1226
     28 C          -5.3833   12.7302   -0.0082 C.ar    1  LIG1        0.1605
     29 N          -3.1392   12.9619   -0.0072 N.ar    1  LIG1       -0.1226
     30 N          -5.3554   11.3996   -0.0073 N.ar    1  LIG1       -0.1338
     31 N          -4.3155   13.5313   -0.0081 N.ar    1  LIG1       -0.1338
     32 H          -6.3572   13.2058   -0.0086 H       1  LIG1        0.1085
@<TRIPOS>BOND
     1    32    28    1
     2    28    31   ar
     3    28    30   ar
     4    31    29   ar
     5    30    27   ar
     6    29    26   ar
     7    27    26   ar
     8    26    22    1
     9    25    21    1
    10    22    21   ar
    11    22    23   ar
    12    21    20   ar
    13    23    19   ar
    14    20    24    1
    15    20    19   ar
    16    19    12    1
    17    13    10    1
    18    12    10   ar
    19    12    15   ar
    20    10     9   ar
    21    15    18    1
    22    15    14   ar
    23     9    17    1
    24     9    11   ar
    25    14    11   ar
    26    14    16    1
    27    11     4    1
    28     4     5   ar
    29     4     3   ar
    30     5     1   ar
    31     3     8    1
    32     3     2   ar
    33     2     1   ar
    34     2     7    1
    35     1     6    1
