@<TRIPOS>MOLECULE
mol_data/opt/cam/geoms/mol2/124-85.out
 32 35 0 0 0
SMALL
GASTEIGER

@<TRIPOS>ATOM
      1 C           0.2438    1.6641    0.0013 C.ar    1  LIG1        0.0926
      2 C           1.5989    1.6737    0.0019 C.ar    1  LIG1       -0.0233
      3 C           1.9822    3.0476    0.0006 C.ar    1  LIG1       -0.0159
      4 C           0.8291    3.7760   -0.0001 C.ar    1  LIG1        0.1348
      5 O          -0.2392    2.9288    0.0004 O.2     1  LIG1       -0.4629
      6 H          -0.4933    0.8771    0.0017 H       1  LIG1        0.1029
      7 H           2.2484    0.8115    0.0029 H       1  LIG1        0.0649
      8 H           2.9881    3.4389    0.0005 H       1  LIG1        0.0655
      9 C          -0.7760    5.6711   -0.0019 C.ar    1  LIG1       -0.0504
     10 C          -1.0438    7.0286   -0.0030 C.ar    1  LIG1       -0.0503
     11 C           0.5431    5.2043   -0.0012 C.ar    1  LIG1        0.0173
     12 C           0.0005    7.9567   -0.0035 C.ar    1  LIG1        0.0227
     13 H          -2.0667    7.3852   -0.0035 H       1  LIG1        0.0625
     14 C           1.5859    6.1385   -0.0017 C.ar    1  LIG1       -0.0504
     15 C           1.3205    7.4949   -0.0028 C.ar    1  LIG1       -0.0503
     16 H           2.6158    5.7985   -0.0012 H       1  LIG1        0.0625
     17 H          -1.5910    4.9574   -0.0015 H       1  LIG1        0.0625
     18 H           2.1311    8.2132   -0.0032 H       1  LIG1        0.0625
     19 C          -0.2834    9.4003   -0.0047 C.ar    1  LIG1        0.2034
     20 N           0.7552   10.2528   -0.0052 N.ar    1  LIG1       -0.1252
     21 C          -0.7748   11.9240   -0.0068 C.ar    1  LIG1        0.2099
     22 N          -1.5650    9.7978   -0.0052 N.ar    1  LIG1       -0.1252
     23 N           0.5100   11.5330   -0.0062 N.ar    1  LIG1       -0.1247
     24 N          -1.8152   11.0777   -0.0063 N.ar    1  LIG1       -0.1247
     25 C          -1.0544   13.3490   -0.0079 C.ar    1  LIG1        0.0598
     26 C          -0.1445   14.3721   -0.0086 C.ar    1  LIG1       -0.0438
     27 C          -0.7610   15.6496   -0.0098 C.ar    1  LIG1       -0.0540
     28 C          -2.1229   15.5677   -0.0100 C.ar    1  LIG1       -0.0236
     29 S          -2.6836   13.9429   -0.0086 S.2     1  LIG1       -0.0934
     30 H          -2.8341   16.3817   -0.0109 H       1  LIG1        0.0693
     31 H           0.9231   14.1955   -0.0082 H       1  LIG1        0.0630
     32 H          -0.2162   16.5850   -0.0105 H       1  LIG1        0.0623
@<TRIPOS>BOND
     1    30    28    1
     2    32    27    1
     3    28    27   ar
     4    28    29   ar
     5    27    26   ar
     6    29    25   ar
     7    26    31    1
     8    26    25   ar
     9    25    21    1
    10    21    24   ar
    11    21    23   ar
    12    24    22   ar
    13    23    20   ar
    14    22    19   ar
    15    20    19   ar
    16    19    12    1
    17    13    10    1
    18    12    10   ar
    19    12    15   ar
    20    18    15    1
    21    10     9   ar
    22    15    14   ar
    23     9    17    1
    24     9    11   ar
    25    14    11   ar
    26    14    16    1
    27    11     4    1
    28     4     5   ar
    29     4     3   ar
    30     5     1   ar
    31     8     3    1
    32     3     2   ar
    33     1     6    1
    34     1     2   ar
    35     2     7    1
