@<TRIPOS>MOLECULE
mol_data/opt/cam/geoms/mol2/124-13-.out
 27 29 0 0 0
SMALL
GASTEIGER

@<TRIPOS>ATOM
      1 C           0.2479    1.6878   -0.1358 C.ar    1  LIG1        0.0926
      2 C           1.5912    1.6930    0.0357 C.ar    1  LIG1       -0.0233
      3 C           1.9722    3.0659    0.1248 C.ar    1  LIG1       -0.0159
      4 C           0.8289    3.7985    0.0011 C.ar    1  LIG1        0.1348
      5 O          -0.2305    2.9561   -0.1590 O.2     1  LIG1       -0.4629
      6 H          -0.4842    0.9049   -0.2524 H       1  LIG1        0.1029
      7 H           2.2357    0.8287    0.0922 H       1  LIG1        0.0649
      8 H           2.9704    3.4528    0.2623 H       1  LIG1        0.0655
      9 C          -0.7610    5.7032   -0.1643 C.ar    1  LIG1       -0.0505
     10 C          -1.0259    7.0614   -0.1678 C.ar    1  LIG1       -0.0520
     11 C           0.5435    5.2284    0.0071 C.ar    1  LIG1        0.0173
     12 C          -0.0041    7.9998    0.0132 C.ar    1  LIG1       -0.0017
     13 H          -2.0403    7.4090   -0.3316 H       1  LIG1        0.0624
     14 C           1.5686    6.1615    0.1858 C.ar    1  LIG1       -0.0505
     15 C           1.2982    7.5191    0.1952 C.ar    1  LIG1       -0.0520
     16 H           2.5882    5.8218    0.3343 H       1  LIG1        0.0625
     17 H          -1.5674    4.9938   -0.3085 H       1  LIG1        0.0625
     18 H           2.1110    8.2154    0.3788 H       1  LIG1        0.0624
     19 C          -0.3007    9.4313    0.0143 C.ar    1  LIG1        0.0465
     20 C          -1.4524   10.1163    0.3425 C.ar    1  LIG1       -0.0364
     21 C          -1.1969   11.5010    0.1813 C.ar    1  LIG1       -0.0438
     22 C           0.1010   11.6293   -0.2445 C.ar    1  LIG1        0.0022
     23 N           0.6392   10.3747   -0.3310 N.ar    1  LIG1       -0.3607
     24 H           1.5469   10.1600   -0.7085 H       1  LIG1        0.1653
     25 H           0.6811   12.5046   -0.4932 H       1  LIG1        0.0807
     26 H          -2.3674    9.6659    0.6986 H       1  LIG1        0.0639
     27 H          -1.8855   12.3123    0.3661 H       1  LIG1        0.0633
@<TRIPOS>BOND
     1    24    23    1
     2    25    22    1
     3    13    10    1
     4    23    22   ar
     5    23    19   ar
     6    17     9    1
     7     6     1    1
     8    22    21   ar
     9    10     9   ar
    10    10    12   ar
    11     9    11   ar
    12     5     1   ar
    13     5     4   ar
    14     1     2   ar
    15     4    11    1
    16     4     3   ar
    17    11    14   ar
    18    12    19    1
    19    12    15   ar
    20    19    20   ar
    21     2     7    1
    22     2     3   ar
    23     3     8    1
    24    21    20   ar
    25    21    27    1
    26    14    15   ar
    27    14    16    1
    28    15    18    1
    29    20    26    1
