@<TRIPOS>MOLECULE
mol_data/opt/cam/geoms/mol2/124-8-.out
 25 27 0 0 0
SMALL
GASTEIGER

@<TRIPOS>ATOM
      1 C           0.2407    1.7149    0.0006 C.ar    1  LIG1        0.0926
      2 C           1.5959    1.7269    0.0013 C.ar    1  LIG1       -0.0233
      3 C           1.9766    3.1013    0.0004 C.ar    1  LIG1       -0.0159
      4 C           0.8221    3.8276   -0.0003 C.ar    1  LIG1        0.1348
      5 O          -0.2447    2.9785   -0.0001 O.2     1  LIG1       -0.4629
      6 H          -0.4949    0.9265    0.0008 H       1  LIG1        0.1029
      7 H           2.2469    0.8660    0.0022 H       1  LIG1        0.0649
      8 H           2.9819    3.4944    0.0004 H       1  LIG1        0.0655
      9 C          -0.7870    5.7184   -0.0020 C.ar    1  LIG1       -0.0504
     10 C          -1.0578    7.0753   -0.0028 C.ar    1  LIG1       -0.0503
     11 C           0.5334    5.2551   -0.0013 C.ar    1  LIG1        0.0173
     12 C          -0.0151    8.0051   -0.0031 C.ar    1  LIG1        0.0227
     13 H          -2.0813    7.4299   -0.0034 H       1  LIG1        0.0625
     14 C           1.5746    6.1913   -0.0015 C.ar    1  LIG1       -0.0504
     15 C           1.3061    7.5471   -0.0024 C.ar    1  LIG1       -0.0503
     16 H           2.6050    5.8534   -0.0010 H       1  LIG1        0.0625
     17 H          -1.6002    5.0028   -0.0018 H       1  LIG1        0.0625
     18 H           2.1150    8.2674   -0.0025 H       1  LIG1        0.0625
     19 C          -0.3023    9.4486   -0.0040 C.ar    1  LIG1        0.2033
     20 N          -1.5880    9.8379   -0.0045 N.ar    1  LIG1       -0.1258
     21 C          -0.7998   11.9509   -0.0054 C.ar    1  LIG1        0.1605
     22 N           0.7365   10.3001   -0.0042 N.ar    1  LIG1       -0.1258
     23 N          -1.8426   11.1223   -0.0053 N.ar    1  LIG1       -0.1339
     24 N           0.4805   11.5845   -0.0049 N.ar    1  LIG1       -0.1339
     25 H          -1.0113   13.0140   -0.0062 H       1  LIG1        0.1085
@<TRIPOS>BOND
     1    25    21    1
     2    21    23   ar
     3    21    24   ar
     4    23    20   ar
     5    24    22   ar
     6    20    19   ar
     7    22    19   ar
     8    19    12    1
     9    13    10    1
    10    12    10   ar
    11    12    15   ar
    12    10     9   ar
    13    18    15    1
    14    15    14   ar
    15     9    17    1
    16     9    11   ar
    17    14    11   ar
    18    14    16    1
    19    11     4    1
    20     4     5   ar
    21     4     3   ar
    22     5     1   ar
    23     3     8    1
    24     3     2   ar
    25     1     6    1
    26     1     2   ar
    27     2     7    1
