@<TRIPOS>MOLECULE
mol_data/opt/cam/geoms/mol2/124-13.out
 27 29 0 0 0
SMALL
GASTEIGER

@<TRIPOS>ATOM
      1 C           0.2641    1.6762    0.0002 C.ar    1  LIG1        0.0926
      2 C           1.6181    1.6971    0.0012 C.ar    1  LIG1       -0.0233
      3 C           1.9916    3.0751    0.0007 C.ar    1  LIG1       -0.0159
      4 C           0.8335    3.7946   -0.0004 C.ar    1  LIG1        0.1348
      5 O          -0.2283    2.9396   -0.0007 O.2     1  LIG1       -0.4629
      6 H          -0.4676    0.8843    0.0000 H       1  LIG1        0.1029
      7 H           2.2745    0.8400    0.0021 H       1  LIG1        0.0649
      8 H           2.9946    3.4740    0.0012 H       1  LIG1        0.0655
      9 C          -0.7825    5.6827   -0.0025 C.ar    1  LIG1       -0.0505
     10 C          -1.0585    7.0404   -0.0033 C.ar    1  LIG1       -0.0520
     11 C           0.5353    5.2214   -0.0012 C.ar    1  LIG1        0.0173
     12 C          -0.0361    7.9955   -0.0029 C.ar    1  LIG1       -0.0017
     13 H          -2.1003    7.3461   -0.0044 H       1  LIG1        0.0624
     14 C           1.5636    6.1703   -0.0009 C.ar    1  LIG1       -0.0505
     15 C           1.2837    7.5232   -0.0017 C.ar    1  LIG1       -0.0520
     16 H           2.5984    5.8441    0.0001 H       1  LIG1        0.0625
     17 H          -1.5954    4.9662   -0.0028 H       1  LIG1        0.0625
     18 H           2.1046    8.2313   -0.0012 H       1  LIG1        0.0624
     19 C          -0.3058    9.4326   -0.0037 C.ar    1  LIG1        0.0465
     20 C           0.5561   10.5126   -0.0050 C.ar    1  LIG1       -0.0364
     21 C          -0.2208   11.6957   -0.0058 C.ar    1  LIG1       -0.0438
     22 C          -1.5393   11.3154   -0.0040 C.ar    1  LIG1        0.0022
     23 N          -1.5809    9.9498   -0.0032 N.ar    1  LIG1       -0.3607
     24 H          -2.4255    9.4047   -0.0021 H       1  LIG1        0.1653
     25 H          -2.4455   11.9016   -0.0036 H       1  LIG1        0.0807
     26 H           1.6345   10.4591   -0.0057 H       1  LIG1        0.0639
     27 H           0.1463   12.7113   -0.0071 H       1  LIG1        0.0633
@<TRIPOS>BOND
     1    27    21    1
     2    21    20   ar
     3    21    22   ar
     4    26    20    1
     5    20    19   ar
     6    13    10    1
     7    22    25    1
     8    22    23   ar
     9    19    23   ar
    10    19    12    1
    11    10    12   ar
    12    10     9   ar
    13    23    24    1
    14    12    15   ar
    15    17     9    1
    16     9    11   ar
    17    15    18    1
    18    15    14   ar
    19    11    14   ar
    20    11     4    1
    21    14    16    1
    22     5     4   ar
    23     5     1   ar
    24     4     3   ar
    25     6     1    1
    26     1     2   ar
    27     3     8    1
    28     3     2   ar
    29     2     7    1
