@<TRIPOS>MOLECULE
mol_data/opt/cam/geoms/mol2/124-.out
 19 20 0 0 0
SMALL
GASTEIGER

@<TRIPOS>ATOM
      1 C           0.2234    1.7665    0.0002 C.ar    1  LIG1        0.0926
      2 C           1.5773    1.7741    0.0005 C.ar    1  LIG1       -0.0233
      3 C           1.9635    3.1483    0.0001 C.ar    1  LIG1       -0.0159
      4 C           0.8134    3.8794   -0.0004 C.ar    1  LIG1        0.1348
      5 O          -0.2567    3.0340   -0.0003 O.2     1  LIG1       -0.4629
      6 H          -0.5163    0.9820    0.0003 H       1  LIG1        0.1029
      7 H           2.2256    0.9109    0.0010 H       1  LIG1        0.0649
      8 H           2.9704    3.5372    0.0001 H       1  LIG1        0.0655
      9 C          -0.7900    5.7768   -0.0016 C.ar    1  LIG1       -0.0511
     10 C          -1.0539    7.1393   -0.0021 C.ar    1  LIG1       -0.0611
     11 C           0.5280    5.3110   -0.0010 C.ar    1  LIG1        0.0172
     12 C          -0.0112    8.0582   -0.0021 C.ar    1  LIG1       -0.0617
     13 H          -2.0828    7.4847   -0.0025 H       1  LIG1        0.0618
     14 C           1.5717    6.2421   -0.0010 C.ar    1  LIG1       -0.0511
     15 C           1.3031    7.6022   -0.0015 C.ar    1  LIG1       -0.0611
     16 H           2.6006    5.8980   -0.0005 H       1  LIG1        0.0625
     17 H          -0.2200    9.1228   -0.0025 H       1  LIG1        0.0618
     18 H          -1.6040    5.0615   -0.0016 H       1  LIG1        0.0625
     19 H           2.1250    8.3109   -0.0015 H       1  LIG1        0.0618
@<TRIPOS>BOND
     1    13    10    1
     2    17    12    1
     3    10    12   ar
     4    10     9   ar
     5    12    15   ar
     6    18     9    1
     7     9    11   ar
     8    15    19    1
     9    15    14   ar
    10    11    14   ar
    11    11     4    1
    12    14    16    1
    13     4     5   ar
    14     4     3   ar
    15     5     1   ar
    16     3     8    1
    17     3     2   ar
    18     1     6    1
    19     1     2   ar
    20     2     7    1
