@<TRIPOS>MOLECULE
mol_data/opt/cam/geoms/mol2/124-12.out
 26 28 0 0 0
SMALL
GASTEIGER

@<TRIPOS>ATOM
      1 C           0.2621    1.6990    0.0009 C.ar    1  LIG1        0.0926
      2 C           1.6160    1.7211    0.0009 C.ar    1  LIG1       -0.0233
      3 C           1.9877    3.0989    0.0004 C.ar    1  LIG1       -0.0159
      4 C           0.8294    3.8181   -0.0003 C.ar    1  LIG1        0.1348
      5 O          -0.2315    2.9612   -0.0001 O.2     1  LIG1       -0.4629
      6 H          -0.4691    0.9065    0.0013 H       1  LIG1        0.1029
      7 H           2.2731    0.8646    0.0014 H       1  LIG1        0.0649
      8 H           2.9903    3.4987    0.0005 H       1  LIG1        0.0655
      9 C          -0.7903    5.7035   -0.0020 C.ar    1  LIG1       -0.0504
     10 C          -1.0702    7.0596   -0.0029 C.ar    1  LIG1       -0.0504
     11 C           0.5297    5.2442   -0.0012 C.ar    1  LIG1        0.0173
     12 C          -0.0401    8.0040   -0.0030 C.ar    1  LIG1        0.0173
     13 H          -2.0993    7.3989   -0.0035 H       1  LIG1        0.0625
     14 C           1.5610    6.1904   -0.0014 C.ar    1  LIG1       -0.0504
     15 C           1.2816    7.5437   -0.0022 C.ar    1  LIG1       -0.0504
     16 H           2.5949    5.8618   -0.0007 H       1  LIG1        0.0625
     17 H          -1.6008    4.9844   -0.0020 H       1  LIG1        0.0625
     18 H           2.1008    8.2548   -0.0023 H       1  LIG1        0.0625
     19 C          -0.3296    9.4323   -0.0040 C.ar    1  LIG1        0.1348
     20 C           0.4492   10.5514   -0.0045 C.ar    1  LIG1       -0.0159
     21 C          -0.4378   11.6693   -0.0054 C.ar    1  LIG1       -0.0233
     22 C          -1.6898   11.1535   -0.0053 C.ar    1  LIG1        0.0926
     23 O          -1.6431    9.7990   -0.0045 O.2     1  LIG1       -0.4629
     24 H          -2.6750   11.5916   -0.0057 H       1  LIG1        0.1029
     25 H           1.5281   10.5813   -0.0043 H       1  LIG1        0.0655
     26 H          -0.1736   12.7161   -0.0060 H       1  LIG1        0.0649
@<TRIPOS>BOND
     1    26    21    1
     2    24    22    1
     3    21    22   ar
     4    21    20   ar
     5    22    23   ar
     6    20    25    1
     7    20    19   ar
     8    23    19   ar
     9    19    12    1
    10    13    10    1
    11    12    10   ar
    12    12    15   ar
    13    10     9   ar
    14    18    15    1
    15    15    14   ar
    16     9    17    1
    17     9    11   ar
    18    14    11   ar
    19    14    16    1
    20    11     4    1
    21     4     5   ar
    22     4     3   ar
    23     5     1   ar
    24     3     8    1
    25     3     2   ar
    26     1     2   ar
    27     1     6    1
    28     2     7    1
