@<TRIPOS>MOLECULE
mol_data/opt/cam/geoms/mol2/124-812.out
 32 35 0 0 0
SMALL
GASTEIGER

@<TRIPOS>ATOM
      1 C           0.3050    1.6713    0.0015 C.ar    1  LIG1        0.0926
      2 C           1.6596    1.7051    0.0013 C.ar    1  LIG1       -0.0233
      3 C           2.0185    3.0855    0.0008 C.ar    1  LIG1       -0.0159
      4 C           0.8527    3.7933   -0.0001 C.ar    1  LIG1        0.1348
      5 O          -0.2003    2.9274    0.0003 O.2     1  LIG1       -0.4629
      6 H          -0.4181    0.8713    0.0020 H       1  LIG1        0.1029
      7 H           2.3243    0.8546    0.0018 H       1  LIG1        0.0649
      8 H           3.0174    3.4946    0.0008 H       1  LIG1        0.0655
      9 C          -0.7855    5.6595   -0.0020 C.ar    1  LIG1       -0.0504
     10 C          -1.0775    7.0121   -0.0031 C.ar    1  LIG1       -0.0503
     11 C           0.5416    5.2164   -0.0012 C.ar    1  LIG1        0.0173
     12 C          -0.0497    7.9585   -0.0034 C.ar    1  LIG1        0.0227
     13 H          -2.1062    7.3510   -0.0037 H       1  LIG1        0.0625
     14 C           1.5677    6.1688   -0.0015 C.ar    1  LIG1       -0.0504
     15 C           1.2782    7.5203   -0.0026 C.ar    1  LIG1       -0.0503
     16 H           2.6034    5.8470   -0.0009 H       1  LIG1        0.0625
     17 H          -1.5877    4.9315   -0.0018 H       1  LIG1        0.0625
     18 H           2.0760    8.2529   -0.0029 H       1  LIG1        0.0625
     19 C          -0.3598    9.3969   -0.0045 C.ar    1  LIG1        0.2034
     20 N           0.6644   10.2679   -0.0048 N.ar    1  LIG1       -0.1251
     21 C          -0.9004   11.9055   -0.0065 C.ar    1  LIG1        0.2381
     22 N          -1.6479    9.7707   -0.0052 N.ar    1  LIG1       -0.1251
     23 N           0.3926   11.5418   -0.0058 N.ar    1  LIG1       -0.1220
     24 N          -1.9292   11.0469   -0.0062 N.ar    1  LIG1       -0.1220
     25 C          -1.1697   13.3300   -0.0077 C.ar    1  LIG1        0.1751
     26 C          -0.3327   14.4064   -0.0082 C.ar    1  LIG1       -0.0126
     27 C          -1.1703   15.5568   -0.0093 C.ar    1  LIG1       -0.0232
     28 C          -2.4461   15.0895   -0.0093 C.ar    1  LIG1        0.0927
     29 O          -2.4642   13.7403   -0.0084 O.2     1  LIG1       -0.4597
     30 H          -3.4105   15.5724   -0.0100 H       1  LIG1        0.1029
     31 H           0.7453   14.3631   -0.0079 H       1  LIG1        0.0656
     32 H          -0.8646   16.5919   -0.0100 H       1  LIG1        0.0649
@<TRIPOS>BOND
     1    32    27    1
     2    30    28    1
     3    28    27   ar
     4    28    29   ar
     5    27    26   ar
     6    29    25   ar
     7    26    31    1
     8    26    25   ar
     9    25    21    1
    10    21    24   ar
    11    21    23   ar
    12    24    22   ar
    13    23    20   ar
    14    22    19   ar
    15    20    19   ar
    16    19    12    1
    17    13    10    1
    18    12    10   ar
    19    12    15   ar
    20    10     9   ar
    21    18    15    1
    22    15    14   ar
    23     9    17    1
    24     9    11   ar
    25    14    11   ar
    26    14    16    1
    27    11     4    1
    28     4     5   ar
    29     4     3   ar
    30     5     1   ar
    31     8     3    1
    32     3     2   ar
    33     2     1   ar
    34     2     7    1
    35     1     6    1
