@<TRIPOS>MOLECULE
mol_data/opt/cam/geoms/mol2/124-5.out
 26 28 0 0 0
SMALL
GASTEIGER

@<TRIPOS>ATOM
      1 C           0.2317    1.6853    0.0008 C.ar    1  LIG1        0.0926
      2 C           1.5858    1.6885    0.0012 C.ar    1  LIG1       -0.0233
      3 C           1.9768    3.0609    0.0008 C.ar    1  LIG1       -0.0159
      4 C           0.8286    3.7960   -0.0002 C.ar    1  LIG1        0.1348
      5 O          -0.2443    2.9543   -0.0003 O.2     1  LIG1       -0.4629
      6 H          -0.5105    0.9031    0.0010 H       1  LIG1        0.1029
      7 H           2.2308    0.8228    0.0019 H       1  LIG1        0.0649
      8 H           2.9848    3.4468    0.0010 H       1  LIG1        0.0655
      9 C          -0.7637    5.7043   -0.0023 C.ar    1  LIG1       -0.0505
     10 C          -1.0217    7.0645   -0.0033 C.ar    1  LIG1       -0.0529
     11 C           0.5486    5.2258   -0.0012 C.ar    1  LIG1        0.0173
     12 C           0.0138    8.0048   -0.0031 C.ar    1  LIG1       -0.0113
     13 H          -2.0547    7.3976   -0.0042 H       1  LIG1        0.0624
     14 C           1.5896    6.1601   -0.0011 C.ar    1  LIG1       -0.0505
     15 C           1.3275    7.5170   -0.0020 C.ar    1  LIG1       -0.0529
     16 H           2.6199    5.8204   -0.0002 H       1  LIG1        0.0625
     17 H          -1.5859    4.9987   -0.0024 H       1  LIG1        0.0625
     18 H           2.1611    8.2098   -0.0017 H       1  LIG1        0.0624
     19 C          -0.2509    9.4489   -0.0042 C.ar    1  LIG1        0.0193
     20 C           0.6459   10.4832   -0.0059 C.ar    1  LIG1       -0.0469
     21 C           0.0383   11.7689   -0.0065 C.ar    1  LIG1       -0.0541
     22 C          -1.3195   11.7061   -0.0051 C.ar    1  LIG1       -0.0237
     23 S          -1.8778   10.0764   -0.0033 S.2     1  LIG1       -0.0967
     24 H          -2.0290   12.5206   -0.0052 H       1  LIG1        0.0693
     25 H           1.7187   10.3389   -0.0069 H       1  LIG1        0.0629
     26 H           0.5944   12.6982   -0.0078 H       1  LIG1        0.0623
@<TRIPOS>BOND
     1    26    21    1
     2    25    20    1
     3    21    20   ar
     4    21    22   ar
     5    20    19   ar
     6    24    22    1
     7    22    23   ar
     8    13    10    1
     9    19    23   ar
    10    19    12    1
    11    10    12   ar
    12    10     9   ar
    13    12    15   ar
    14    17     9    1
    15     9    11   ar
    16    15    18    1
    17    15    14   ar
    18    11    14   ar
    19    11     4    1
    20    14    16    1
    21     5     4   ar
    22     5     1   ar
    23     4     3   ar
    24     3     8    1
    25     3     2   ar
    26     1     6    1
    27     1     2   ar
    28     2     7    1
