@<TRIPOS>MOLECULE
mol_data/opt/cam/geoms/mol2/124.out
 19 20 0 0 0
SMALL
GASTEIGER

@<TRIPOS>ATOM
      1 C           0.2529    1.7561   -0.0005 C.ar    1  LIG1        0.0926
      2 C           1.6066    1.7854   -0.0004 C.ar    1  LIG1       -0.0233
      3 C           1.9707    3.1655    0.0001 C.ar    1  LIG1       -0.0159
      4 C           0.8090    3.8782    0.0003 C.ar    1  LIG1        0.1348
      5 O          -0.2473    3.0158   -0.0001 O.2     1  LIG1       -0.4629
      6 H          -0.4741    0.9598   -0.0009 H       1  LIG1        0.1029
      7 H           2.2685    0.9326   -0.0006 H       1  LIG1        0.0649
      8 H           2.9712    3.5705    0.0004 H       1  LIG1        0.0655
      9 C           1.5295    6.2527    0.0013 C.ar    1  LIG1       -0.0511
     10 C           1.2391    7.6084    0.0018 C.ar    1  LIG1       -0.0611
     11 C           0.5008    5.3050    0.0008 C.ar    1  LIG1        0.0172
     12 C          -0.0823    8.0432    0.0018 C.ar    1  LIG1       -0.0617
     13 H           2.0496    8.3301    0.0022 H       1  LIG1        0.0618
     14 C          -0.8245    5.7496    0.0008 C.ar    1  LIG1       -0.0511
     15 C          -1.1102    7.1078    0.0013 C.ar    1  LIG1       -0.0611
     16 H          -1.6270    5.0214    0.0004 H       1  LIG1        0.0625
     17 H          -0.3081    9.1044    0.0022 H       1  LIG1        0.0618
     18 H           2.5638    5.9252    0.0014 H       1  LIG1        0.0625
     19 H          -2.1444    7.4367    0.0013 H       1  LIG1        0.0618
@<TRIPOS>BOND
     1     6     1    1
     2     7     2    1
     3     1     2   ar
     4     1     5   ar
     5     2     3   ar
     6     5     4   ar
     7     3     4   ar
     8     3     8    1
     9     4    11    1
    10    16    14    1
    11    14    11   ar
    12    14    15   ar
    13    11     9   ar
    14    19    15    1
    15    15    12   ar
    16     9    18    1
    17     9    10   ar
    18    12    10   ar
    19    12    17    1
    20    10    13    1
