@<TRIPOS>MOLECULE
mol_data/opt/cam/geoms/mol2/12413-4-.out
 37 40 0 0 0
SMALL
GASTEIGER

@<TRIPOS>ATOM
      1 C           0.2285    1.6049   -0.4156 C.ar    1  LIG1        0.0926
      2 C           1.5634    1.6054   -0.1872 C.ar    1  LIG1       -0.0233
      3 C           1.9279    2.9702    0.0183 C.ar    1  LIG1       -0.0159
      4 C           0.7842    3.7031   -0.0998 C.ar    1  LIG1        0.1348
      5 O          -0.2600    2.8685   -0.3662 O.2     1  LIG1       -0.4629
      6 H          -0.4908    0.8283   -0.6202 H       1  LIG1        0.1029
      7 H           2.2127    0.7432   -0.1670 H       1  LIG1        0.0649
      8 H           2.9161    3.3518    0.2255 H       1  LIG1        0.0655
      9 C           1.4927    6.0495    0.2968 C.ar    1  LIG1       -0.0505
     10 C           1.2102    7.4010    0.3932 C.ar    1  LIG1       -0.0520
     11 C           0.4858    5.1267   -0.0012 C.ar    1  LIG1        0.0173
     12 C          -0.0865    7.8864    0.1839 C.ar    1  LIG1       -0.0017
     13 H           2.0062    8.0870    0.6665 H       1  LIG1        0.0624
     14 C          -0.8133    5.6057   -0.2007 C.ar    1  LIG1       -0.0505
     15 C          -1.0903    6.9587   -0.1161 C.ar    1  LIG1       -0.0520
     16 H          -1.6051    4.9046   -0.4366 H       1  LIG1        0.0625
     17 H           2.5069    5.7051    0.4698 H       1  LIG1        0.0625
     18 H          -2.0988    7.3114   -0.3033 H       1  LIG1        0.0624
     19 C          -0.3937    9.3111    0.2759 C.ar    1  LIG1        0.0469
     20 C          -1.5725    9.9663    0.5701 C.ar    1  LIG1       -0.0358
     21 C          -1.3200   11.3559    0.5209 C.ar    1  LIG1       -0.0358
     22 C           0.0099   11.5330    0.1976 C.ar    1  LIG1        0.0469
     23 N           0.5607   10.2800    0.0731 N.ar    1  LIG1       -0.3542
     24 H           1.4680   10.1021   -0.3259 H       1  LIG1        0.1659
     25 H          -2.5041    9.4896    0.8379 H       1  LIG1        0.0639
     26 H          -2.0209   12.1470    0.7439 H       1  LIG1        0.0639
     27 C           0.1787   13.9405   -0.3854 C.ar    1  LIG1       -0.0526
     28 C           0.9166   15.1022   -0.5559 C.ar    1  LIG1       -0.0611
     29 C           0.7987   12.7507    0.0127 C.ar    1  LIG1       -0.0017
     30 C           2.2921   15.0990   -0.3471 C.ar    1  LIG1       -0.0617
     31 H           0.4164   16.0142   -0.8659 H       1  LIG1        0.0618
     32 C           2.1812   12.7622    0.2291 C.ar    1  LIG1       -0.0526
     33 C           2.9205   13.9228    0.0441 C.ar    1  LIG1       -0.0611
     34 H           2.6799   11.8620    0.5758 H       1  LIG1        0.0624
     35 H           2.8691   16.0070   -0.4874 H       1  LIG1        0.0618
     36 H          -0.8889   13.9419   -0.5783 H       1  LIG1        0.0624
     37 H           3.9915   13.9103    0.2196 H       1  LIG1        0.0618
@<TRIPOS>BOND
     1    31    28    1
     2     6     1    1
     3    36    27    1
     4    28    27   ar
     5    28    30   ar
     6    35    30    1
     7    16    14    1
     8     1     5   ar
     9     1     2   ar
    10    27    29   ar
    11     5     4   ar
    12    30    33   ar
    13    24    23    1
    14    18    15    1
    15    14    15   ar
    16    14    11   ar
    17     2     7    1
    18     2     3   ar
    19    15    12   ar
    20     4    11    1
    21     4     3   ar
    22    11     9   ar
    23    29    22    1
    24    29    32   ar
    25     3     8    1
    26    33    37    1
    27    33    32   ar
    28    23    22   ar
    29    23    19   ar
    30    12    19    1
    31    12    10   ar
    32    22    21   ar
    33    32    34    1
    34    19    20   ar
    35     9    10   ar
    36     9    17    1
    37    10    13    1
    38    21    20   ar
    39    21    26    1
    40    20    25    1
