@<TRIPOS>MOLECULE
mol_data/opt/cam/geoms/mol2/12413.out
 27 29 0 0 0
SMALL
GASTEIGER

@<TRIPOS>ATOM
      1 C           0.3011    1.6647   -0.0019 C.ar    1  LIG1        0.0926
      2 C           1.6544    1.7113   -0.0009 C.ar    1  LIG1       -0.0233
      3 C           2.0017    3.0962    0.0002 C.ar    1  LIG1       -0.0159
      4 C           0.8301    3.7935    0.0002 C.ar    1  LIG1        0.1348
      5 O          -0.2153    2.9184   -0.0012 O.2     1  LIG1       -0.4629
      6 H          -0.4154    0.8590   -0.0030 H       1  LIG1        0.1029
      7 H           2.3270    0.8669   -0.0011 H       1  LIG1        0.0649
      8 H           2.9969    3.5141    0.0011 H       1  LIG1        0.0655
      9 C           1.5149    6.1827    0.0025 C.ar    1  LIG1       -0.0505
     10 C           1.2092    7.5300    0.0035 C.ar    1  LIG1       -0.0520
     11 C           0.5047    5.2143    0.0011 C.ar    1  LIG1        0.0173
     12 C          -0.1193    7.9771    0.0030 C.ar    1  LIG1       -0.0017
     13 H           2.0165    8.2535    0.0047 H       1  LIG1        0.0624
     14 C          -0.8215    5.6505    0.0006 C.ar    1  LIG1       -0.0505
     15 C          -1.1234    7.0027    0.0015 C.ar    1  LIG1       -0.0520
     16 H          -1.6207    4.9186   -0.0006 H       1  LIG1        0.0625
     17 H           2.5557    5.8762    0.0030 H       1  LIG1        0.0625
     18 H          -2.1708    7.2884    0.0008 H       1  LIG1        0.0624
     19 C          -0.4164    9.4088    0.0040 C.ar    1  LIG1        0.0465
     20 C           0.4248   10.5050    0.0034 C.ar    1  LIG1       -0.0364
     21 C          -0.3745   11.6730    0.0045 C.ar    1  LIG1       -0.0438
     22 C          -1.6855   11.2677    0.0065 C.ar    1  LIG1        0.0022
     23 N          -1.7011    9.9016    0.0058 N.ar    1  LIG1       -0.3607
     24 H          -2.5352    9.3405    0.0070 H       1  LIG1        0.1653
     25 H          -2.6027   11.8365    0.0081 H       1  LIG1        0.0807
     26 H           1.5041   10.4720    0.0019 H       1  LIG1        0.0639
     27 H          -0.0267   12.6954    0.0042 H       1  LIG1        0.0633
@<TRIPOS>BOND
     1     6     1    1
     2     1     5   ar
     3     1     2   ar
     4     5     4   ar
     5     7     2    1
     6     2     3   ar
     7    16    14    1
     8     4     3   ar
     9     4    11    1
    10     3     8    1
    11    14    11   ar
    12    14    15   ar
    13    18    15    1
    14    11     9   ar
    15    15    12   ar
    16    26    20    1
    17     9    17    1
    18     9    10   ar
    19    12    10   ar
    20    12    19    1
    21    20    19   ar
    22    20    21   ar
    23    10    13    1
    24    19    23   ar
    25    27    21    1
    26    21    22   ar
    27    23    22   ar
    28    23    24    1
    29    22    25    1
