@<TRIPOS>MOLECULE
mol_data/opt/cam/geoms/mol2/12413-.out
 27 29 0 0 0
SMALL
GASTEIGER

@<TRIPOS>ATOM
      1 C           0.2675    1.6711   -0.0016 C.ar    1  LIG1        0.0926
      2 C           1.6214    1.6996   -0.0007 C.ar    1  LIG1       -0.0233
      3 C           1.9871    3.0796    0.0004 C.ar    1  LIG1       -0.0159
      4 C           0.8248    3.7926    0.0003 C.ar    1  LIG1        0.1348
      5 O          -0.2318    2.9315   -0.0010 O.2     1  LIG1       -0.4629
      6 H          -0.4597    0.8751   -0.0027 H       1  LIG1        0.1029
      7 H           2.2827    0.8462   -0.0008 H       1  LIG1        0.0649
      8 H           2.9878    3.4840    0.0013 H       1  LIG1        0.0655
      9 C           1.5381    6.1712    0.0025 C.ar    1  LIG1       -0.0505
     10 C           1.2472    7.5245    0.0033 C.ar    1  LIG1       -0.0520
     11 C           0.5175    5.2176    0.0011 C.ar    1  LIG1        0.0173
     12 C          -0.0744    7.9876    0.0027 C.ar    1  LIG1       -0.0017
     13 H           2.0783    8.2229    0.0046 H       1  LIG1        0.0624
     14 C          -0.8054    5.6717    0.0006 C.ar    1  LIG1       -0.0505
     15 C          -1.0913    7.0246    0.0013 C.ar    1  LIG1       -0.0520
     16 H          -1.6131    4.9492   -0.0005 H       1  LIG1        0.0625
     17 H           2.5753    5.8528    0.0030 H       1  LIG1        0.0625
     18 H          -2.1277    7.3430    0.0007 H       1  LIG1        0.0624
     19 C          -0.4043    9.4122    0.0035 C.ar    1  LIG1        0.0465
     20 C          -1.6278   10.0542    0.0053 C.ar    1  LIG1       -0.0364
     21 C          -1.3927   11.4498    0.0058 C.ar    1  LIG1       -0.0438
     22 C          -0.0326   11.6322    0.0033 C.ar    1  LIG1        0.0022
     23 N           0.5550   10.3988    0.0024 N.ar    1  LIG1       -0.3607
     24 H           1.5476   10.2403    0.0007 H       1  LIG1        0.1653
     25 H           0.5611   12.5335    0.0025 H       1  LIG1        0.0807
     26 H          -2.5935    9.5711    0.0066 H       1  LIG1        0.0639
     27 H          -2.1375   12.2318    0.0075 H       1  LIG1        0.0633
@<TRIPOS>BOND
     1     6     1    1
     2     1     5   ar
     3     1     2   ar
     4     5     4   ar
     5     7     2    1
     6     2     3   ar
     7    16    14    1
     8     4     3   ar
     9     4    11    1
    10     3     8    1
    11    14    11   ar
    12    14    15   ar
    13    24    23    1
    14    18    15    1
    15    11     9   ar
    16    15    12   ar
    17    23    22   ar
    18    23    19   ar
    19    25    22    1
    20     9    17    1
    21     9    10   ar
    22    12    10   ar
    23    12    19    1
    24    10    13    1
    25    22    21   ar
    26    19    20   ar
    27    20    21   ar
    28    20    26    1
    29    21    27    1
