@<TRIPOS>MOLECULE
mol_data/opt/cam/geoms/mol2/12413-5.out
 34 37 0 0 0
SMALL
GASTEIGER

@<TRIPOS>ATOM
      1 C           0.2129    1.5871   -0.0024 C.ar    1  LIG1        0.0926
      2 C           1.5672    1.6016   -0.0010 C.ar    1  LIG1       -0.0233
      3 C           1.9469    2.9776    0.0006 C.ar    1  LIG1       -0.0159
      4 C           0.7918    3.7023    0.0001 C.ar    1  LIG1        0.1348
      5 O          -0.2738    2.8523   -0.0017 O.2     1  LIG1       -0.4629
      6 H          -0.5225    0.7986   -0.0039 H       1  LIG1        0.1029
      7 H           2.2196    0.7415   -0.0011 H       1  LIG1        0.0649
      8 H           2.9518    3.3718    0.0020 H       1  LIG1        0.0655
      9 C           1.5294    6.0733    0.0030 C.ar    1  LIG1       -0.0505
     10 C           1.2521    7.4291    0.0040 C.ar    1  LIG1       -0.0520
     11 C           0.4990    5.1300    0.0011 C.ar    1  LIG1        0.0173
     12 C          -0.0652    7.9047    0.0031 C.ar    1  LIG1       -0.0017
     13 H           2.0901    8.1193    0.0057 H       1  LIG1        0.0624
     14 C          -0.8196    5.5968    0.0002 C.ar    1  LIG1       -0.0505
     15 C          -1.0924    6.9522    0.0012 C.ar    1  LIG1       -0.0520
     16 H          -1.6341    4.8822   -0.0012 H       1  LIG1        0.0625
     17 H           2.5633    5.7444    0.0038 H       1  LIG1        0.0625
     18 H          -2.1257    7.2804    0.0003 H       1  LIG1        0.0624
     19 C          -0.3804    9.3308    0.0041 C.ar    1  LIG1        0.0469
     20 C          -1.5996    9.9847    0.0053 C.ar    1  LIG1       -0.0358
     21 C          -1.3520   11.3718    0.0059 C.ar    1  LIG1       -0.0353
     22 C           0.0178   11.5545    0.0049 C.ar    1  LIG1        0.0536
     23 N           0.5871   10.3064    0.0038 N.ar    1  LIG1       -0.3537
     24 H           1.5777   10.1361    0.0027 H       1  LIG1        0.1659
     25 H          -2.5702    9.5123    0.0060 H       1  LIG1        0.0639
     26 H          -2.0913   12.1596    0.0070 H       1  LIG1        0.0639
     27 C           0.8188   12.7620    0.0048 C.ar    1  LIG1        0.0355
     28 C           2.1824   12.8940    0.0038 C.ar    1  LIG1       -0.0455
     29 C           2.6183   14.2493    0.0040 C.ar    1  LIG1       -0.0541
     30 C           1.5857   15.1328    0.0052 C.ar    1  LIG1       -0.0237
     31 S           0.0594   14.3264    0.0061 S.2     1  LIG1       -0.0952
     32 H           1.6265   16.2121    0.0055 H       1  LIG1        0.0693
     33 H           2.8682   12.0547    0.0029 H       1  LIG1        0.0629
     34 H           3.6597   14.5462    0.0033 H       1  LIG1        0.0623
@<TRIPOS>BOND
     1     6     1    1
     2     1     5   ar
     3     1     2   ar
     4     5     4   ar
     5    16    14    1
     6     7     2    1
     7     2     3   ar
     8     4     3   ar
     9     4    11    1
    10    14    11   ar
    11    14    15   ar
    12    18    15    1
    13     3     8    1
    14    11     9   ar
    15    15    12   ar
    16    24    23    1
    17    33    28    1
    18     9    17    1
    19     9    10   ar
    20    12    10   ar
    21    12    19    1
    22    34    29    1
    23    23    19   ar
    24    23    22   ar
    25    28    29   ar
    26    28    27   ar
    27    10    13    1
    28    29    30   ar
    29    19    20   ar
    30    27    22    1
    31    27    31   ar
    32    22    21   ar
    33    30    32    1
    34    30    31   ar
    35    20    21   ar
    36    20    25    1
    37    21    26    1
