@<TRIPOS>MOLECULE
mol_data/opt/cam/geoms/mol2/1244.out
 29 31 0 0 0
SMALL
GASTEIGER

@<TRIPOS>ATOM
      1 C           0.3337    1.6554   -0.2518 C.ar    1  LIG1        0.0926
      2 C           1.6467    1.6896    0.0780 C.ar    1  LIG1       -0.0233
      3 C           1.9766    3.0689    0.2405 C.ar    1  LIG1       -0.0159
      4 C           0.8363    3.7755   -0.0025 C.ar    1  LIG1        0.1348
      5 O          -0.1734    2.9113   -0.3049 O.2     1  LIG1       -0.4629
      6 H          -0.3576    0.8575   -0.4707 H       1  LIG1        0.1029
      7 H           2.3037    0.8406    0.1921 H       1  LIG1        0.0649
      8 H           2.9407    3.4773    0.5027 H       1  LIG1        0.0655
      9 C           1.4840    6.1502    0.3254 C.ar    1  LIG1       -0.0505
     10 C           1.1787    7.5005    0.3265 C.ar    1  LIG1       -0.0534
     11 C           0.5136    5.1980   -0.0005 C.ar    1  LIG1        0.0173
     12 C          -0.1045    7.9533    0.0032 C.ar    1  LIG1       -0.0178
     13 H           1.9427    8.2181    0.6070 H       1  LIG1        0.0624
     14 C          -0.7708    5.6438   -0.3239 C.ar    1  LIG1       -0.0505
     15 C          -1.0702    6.9967   -0.3212 C.ar    1  LIG1       -0.0534
     16 H          -1.5328    4.9195   -0.5868 H       1  LIG1        0.0625
     17 H           2.4863    5.8309    0.5910 H       1  LIG1        0.0625
     18 H          -2.0679    7.3198   -0.5998 H       1  LIG1        0.0624
     19 C           0.4958   10.3425   -0.4565 C.ar    1  LIG1       -0.0540
     20 C           0.1934   11.6976   -0.4541 C.ar    1  LIG1       -0.0612
     21 C          -0.4282    9.4001    0.0051 C.ar    1  LIG1       -0.0179
     22 C          -1.0410   12.1385    0.0087 C.ar    1  LIG1       -0.0617
     23 H           0.9225   12.4116   -0.8237 H       1  LIG1        0.0618
     24 C          -1.6656    9.8575    0.4685 C.ar    1  LIG1       -0.0540
     25 C          -1.9696   11.2123    0.4697 C.ar    1  LIG1       -0.0612
     26 H          -2.3868    9.1440    0.8538 H       1  LIG1        0.0624
     27 H          -1.2780   13.1973    0.0102 H       1  LIG1        0.0618
     28 H           1.4521   10.0056   -0.8434 H       1  LIG1        0.0624
     29 H          -2.9333   11.5464    0.8406 H       1  LIG1        0.0618
@<TRIPOS>BOND
     1    28    19    1
     2    23    20    1
     3    18    15    1
     4    16    14    1
     5     6     1    1
     6    19    20   ar
     7    19    21   ar
     8    20    22   ar
     9    14    15   ar
    10    14    11   ar
    11    15    12   ar
    12     5     1   ar
    13     5     4   ar
    14     1     2   ar
    15     4    11    1
    16     4     3   ar
    17    11     9   ar
    18    12    21    1
    19    12    10   ar
    20    21    24   ar
    21    22    27    1
    22    22    25   ar
    23     2     7    1
    24     2     3   ar
    25     3     8    1
    26     9    10   ar
    27     9    17    1
    28    10    13    1
    29    24    25   ar
    30    24    26    1
    31    25    29    1
