@<TRIPOS>MOLECULE
mol_data/opt/cam/geoms/mol2/1244-4-.out
 39 42 0 0 0
SMALL
GASTEIGER

@<TRIPOS>ATOM
      1 C           0.4333    1.5739   -0.5123 C.ar    1  LIG1        0.0926
      2 C           1.5934    1.5635    0.1863 C.ar    1  LIG1       -0.0233
      3 C           1.8626    2.9242    0.5237 C.ar    1  LIG1       -0.0159
      4 C           0.8431    3.6655    0.0044 C.ar    1  LIG1        0.1348
      5 O          -0.0355    2.8400   -0.6318 O.2     1  LIG1       -0.4629
      6 H          -0.1648    0.8037   -0.9723 H       1  LIG1        0.1029
      7 H           2.1879    0.6969    0.4331 H       1  LIG1        0.0649
      8 H           2.7086    3.2977    1.0803 H       1  LIG1        0.0655
      9 C           1.3724    6.0044    0.6487 C.ar    1  LIG1       -0.0505
     10 C           1.0805    7.3575    0.6465 C.ar    1  LIG1       -0.0534
     11 C           0.5345    5.0910    0.0018 C.ar    1  LIG1        0.0173
     12 C          -0.0567    7.8525   -0.0005 C.ar    1  LIG1       -0.0178
     13 H           1.7332    8.0427    1.1775 H       1  LIG1        0.0624
     14 C          -0.6036    5.5787   -0.6460 C.ar    1  LIG1       -0.0505
     15 C          -0.8902    6.9343   -0.6455 C.ar    1  LIG1       -0.0534
     16 H          -1.2594    4.8853   -1.1593 H       1  LIG1        0.0625
     17 H           2.2571    5.6517    1.1683 H       1  LIG1        0.0625
     18 H          -1.7663    7.2911   -1.1769 H       1  LIG1        0.0624
     19 C          -1.6838    9.7582    0.0980 C.ar    1  LIG1       -0.0535
     20 C          -1.9738   11.1138    0.0961 C.ar    1  LIG1       -0.0535
     21 C          -0.3666    9.3011   -0.0011 C.ar    1  LIG1       -0.0178
     22 C          -0.9590   12.0695   -0.0020 C.ar    1  LIG1       -0.0178
     23 H          -3.0077   11.4376    0.1573 H       1  LIG1        0.0624
     24 C           0.6481   10.2572   -0.1007 C.ar    1  LIG1       -0.0535
     25 C           0.3580   11.6128   -0.0997 C.ar    1  LIG1       -0.0535
     26 H           1.6795    9.9335   -0.1961 H       1  LIG1        0.0624
     27 H          -2.4922    9.0407    0.1935 H       1  LIG1        0.0624
     28 H           1.1688   12.3313   -0.1614 H       1  LIG1        0.0624
     29 C          -2.2759   14.0380    0.8179 C.ar    1  LIG1       -0.0540
     30 C          -2.5675   15.3956    0.8171 C.ar    1  LIG1       -0.0612
     31 C          -1.2693   13.5197   -0.0024 C.ar    1  LIG1       -0.0179
     32 C          -1.8566   16.2638   -0.0033 C.ar    1  LIG1       -0.0617
     33 H          -3.3482   15.7778    1.4671 H       1  LIG1        0.0618
     34 C          -0.5630   14.4041   -0.8232 C.ar    1  LIG1       -0.0540
     35 C          -0.8525   15.7621   -0.8233 C.ar    1  LIG1       -0.0612
     36 H           0.2053   14.0183   -1.4854 H       1  LIG1        0.0624
     37 H          -2.0837   17.3249   -0.0036 H       1  LIG1        0.0618
     38 H          -2.8192   13.3719    1.4803 H       1  LIG1        0.0624
     39 H          -0.2966   16.4299   -1.4736 H       1  LIG1        0.0618
@<TRIPOS>BOND
     1    36    34    1
     2    39    35    1
     3    18    15    1
     4    16    14    1
     5     6     1    1
     6    35    34   ar
     7    35    32   ar
     8    34    31   ar
     9    14    15   ar
    10    14    11   ar
    11    15    12   ar
    12     5     1   ar
    13     5     4   ar
    14     1     2   ar
    15    26    24    1
    16    28    25    1
    17    24    25   ar
    18    24    21   ar
    19    25    22   ar
    20    37    32    1
    21    32    30   ar
    22    31    22    1
    23    31    29   ar
    24    22    20   ar
    25    21    12    1
    26    21    19   ar
    27    12    10   ar
    28    11     4    1
    29    11     9   ar
    30     4     3   ar
    31    20    19   ar
    32    20    23    1
    33    19    27    1
    34     2     7    1
    35     2     3   ar
    36     3     8    1
    37    10     9   ar
    38    10    13    1
    39     9    17    1
    40    30    29   ar
    41    30    33    1
    42    29    38    1
