@<TRIPOS>MOLECULE
mol_data/opt/cam/geoms/mol2/1244-.out
 29 31 0 0 0
SMALL
GASTEIGER

@<TRIPOS>ATOM
      1 C           0.3091    1.6569   -0.2474 C.ar    1  LIG1        0.0926
      2 C           1.6223    1.6819    0.0827 C.ar    1  LIG1       -0.0233
      3 C           1.9620    3.0590    0.2440 C.ar    1  LIG1       -0.0159
      4 C           0.8270    3.7736   -0.0000 C.ar    1  LIG1        0.1348
      5 O          -0.1889    2.9164   -0.3019 O.2     1  LIG1       -0.4629
      6 H          -0.3879    0.8638   -0.4658 H       1  LIG1        0.1029
      7 H           2.2730    0.8282    0.1979 H       1  LIG1        0.0649
      8 H           2.9290    3.4607    0.5061 H       1  LIG1        0.0655
      9 C           1.4918    6.1438    0.3259 C.ar    1  LIG1       -0.0505
     10 C           1.1963    7.4963    0.3255 C.ar    1  LIG1       -0.0534
     11 C           0.5145    5.1983    0.0005 C.ar    1  LIG1        0.0173
     12 C          -0.0835    7.9581    0.0012 C.ar    1  LIG1       -0.0178
     13 H           1.9653    8.2086    0.6057 H       1  LIG1        0.0624
     14 C          -0.7664    5.6531   -0.3240 C.ar    1  LIG1       -0.0505
     15 C          -1.0559    7.0082   -0.3227 C.ar    1  LIG1       -0.0534
     16 H          -1.5335    4.9342   -0.5866 H       1  LIG1        0.0625
     17 H           2.4916    5.8175    0.5923 H       1  LIG1        0.0625
     18 H          -2.0511    7.3382   -0.6021 H       1  LIG1        0.0624
     19 C          -1.6309    9.8740    0.4640 C.ar    1  LIG1       -0.0540
     20 C          -1.9251   11.2309    0.4637 C.ar    1  LIG1       -0.0612
     21 C          -0.3967    9.4072    0.0016 C.ar    1  LIG1       -0.0179
     22 C          -0.9896   12.1499    0.0023 C.ar    1  LIG1       -0.0617
     23 H          -2.8865   11.5724    0.8338 H       1  LIG1        0.0618
     24 C           0.5343   10.3424   -0.4605 C.ar    1  LIG1       -0.0540
     25 C           0.2418   11.6997   -0.4596 C.ar    1  LIG1       -0.0612
     26 H           1.4883    9.9981   -0.8467 H       1  LIG1        0.0624
     27 H          -1.2189   13.2105    0.0026 H       1  LIG1        0.0618
     28 H          -2.3574    9.1661    0.8497 H       1  LIG1        0.0624
     29 H           0.9762   12.4080   -0.8295 H       1  LIG1        0.0618
@<TRIPOS>BOND
     1    26    24    1
     2    29    25    1
     3    18    15    1
     4    16    14    1
     5     6     1    1
     6    24    25   ar
     7    24    21   ar
     8    25    22   ar
     9    14    15   ar
    10    14    11   ar
    11    15    12   ar
    12     5     1   ar
    13     5     4   ar
    14     1     2   ar
    15     4    11    1
    16     4     3   ar
    17    11     9   ar
    18    12    21    1
    19    12    10   ar
    20    21    19   ar
    21    22    27    1
    22    22    20   ar
    23     2     7    1
    24     2     3   ar
    25     3     8    1
    26    10     9   ar
    27    10    13    1
    28     9    17    1
    29    20    19   ar
    30    20    23    1
    31    19    28    1
