@<TRIPOS>MOLECULE
mol_data/opt/cam/geoms/mol2/1244-12-.out
 36 39 0 0 0
SMALL
GASTEIGER

@<TRIPOS>ATOM
      1 C           0.3222    1.5934   -0.3067 C.ar    1  LIG1        0.0926
      2 C           1.6125    1.6081    0.1046 C.ar    1  LIG1       -0.0233
      3 C           1.9472    2.9814    0.3036 C.ar    1  LIG1       -0.0159
      4 C           0.8325    3.7044   -0.0016 C.ar    1  LIG1        0.1348
      5 O          -0.1662    2.8558   -0.3765 O.2     1  LIG1       -0.4629
      6 H          -0.3630    0.8064   -0.5779 H       1  LIG1        0.1029
      7 H           2.2513    0.7499    0.2494 H       1  LIG1        0.0649
      8 H           2.8974    3.3749    0.6311 H       1  LIG1        0.0655
      9 C           1.4887    6.0682    0.3836 C.ar    1  LIG1       -0.0505
     10 C           1.1988    7.4216    0.3833 C.ar    1  LIG1       -0.0534
     11 C           0.5261    5.1303   -0.0022 C.ar    1  LIG1        0.0173
     12 C          -0.0610    7.8929   -0.0017 C.ar    1  LIG1       -0.0178
     13 H           1.9550    8.1270    0.7116 H       1  LIG1        0.0624
     14 C          -0.7346    5.5943   -0.3877 C.ar    1  LIG1       -0.0505
     15 C          -1.0188    6.9503   -0.3865 C.ar    1  LIG1       -0.0534
     16 H          -1.4896    4.8816   -0.6980 H       1  LIG1        0.0625
     17 H           2.4723    5.7348    0.6974 H       1  LIG1        0.0625
     18 H          -1.9968    7.2871   -0.7143 H       1  LIG1        0.0624
     19 C          -1.6279    9.8123    0.3840 C.ar    1  LIG1       -0.0534
     20 C          -1.9178   11.1658    0.3854 C.ar    1  LIG1       -0.0505
     21 C          -0.3681    9.3414   -0.0012 C.ar    1  LIG1       -0.0178
     22 C          -0.9551   12.1040    0.0006 C.ar    1  LIG1        0.0173
     23 H          -2.9015   11.4989    0.6993 H       1  LIG1        0.0625
     24 C           0.5899   10.2843   -0.3849 C.ar    1  LIG1       -0.0534
     25 C           0.3056   11.6403   -0.3850 C.ar    1  LIG1       -0.0505
     26 H           1.5680    9.9478   -0.7128 H       1  LIG1        0.0624
     27 H          -2.3842    9.1067    0.7115 H       1  LIG1        0.0624
     28 H           1.0607   12.3533   -0.6946 H       1  LIG1        0.0625
     29 C          -1.2615   13.5299    0.0023 C.ar    1  LIG1        0.1348
     30 C          -2.3762   14.2527    0.3080 C.ar    1  LIG1       -0.0159
     31 C          -2.0415   15.6261    0.1102 C.ar    1  LIG1       -0.0233
     32 C          -0.7512   15.6411   -0.3009 C.ar    1  LIG1        0.0926
     33 O          -0.2627   14.3788   -0.3717 O.2     1  LIG1       -0.4629
     34 H          -0.0659   16.4284   -0.5713 H       1  LIG1        0.1029
     35 H          -3.3265   13.8588    0.6349 H       1  LIG1        0.0655
     36 H          -2.6803   16.4842    0.2557 H       1  LIG1        0.0649
@<TRIPOS>BOND
     1    18    15    1
     2    26    24    1
     3    16    14    1
     4    28    25    1
     5     6     1    1
     6    34    32    1
     7    14    15   ar
     8    14    11   ar
     9    15    12   ar
    10    25    24   ar
    11    25    22   ar
    12    24    21   ar
    13     5     1   ar
    14     5     4   ar
    15    33    32   ar
    16    33    29   ar
    17     1     2   ar
    18    32    31   ar
    19    11     4    1
    20    11     9   ar
    21    12    21    1
    22    12    10   ar
    23     4     3   ar
    24    21    19   ar
    25    22    29    1
    26    22    20   ar
    27    29    30   ar
    28     2     7    1
    29     2     3   ar
    30    31    36    1
    31    31    30   ar
    32     3     8    1
    33    30    35    1
    34    10     9   ar
    35    10    13    1
    36     9    17    1
    37    19    20   ar
    38    19    27    1
    39    20    23    1
