@<TRIPOS>MOLECULE
mol_data/opt/cam/geoms/mol2/1248-.out
 25 27 0 0 0
SMALL
GASTEIGER

@<TRIPOS>ATOM
      1 C           0.2768    1.7031   -0.0012 C.ar    1  LIG1        0.0926
      2 C           1.6315    1.7407   -0.0008 C.ar    1  LIG1       -0.0233
      3 C           1.9863    3.1220   -0.0002 C.ar    1  LIG1       -0.0159
      4 C           0.8183    3.8263    0.0002 C.ar    1  LIG1        0.1348
      5 O          -0.2323    2.9573   -0.0004 O.2     1  LIG1       -0.4629
      6 H          -0.4437    0.9009   -0.0018 H       1  LIG1        0.1029
      7 H           2.2987    0.8921   -0.0012 H       1  LIG1        0.0649
      8 H           2.9840    3.5340    0.0000 H       1  LIG1        0.0655
      9 C           1.5261    6.2039    0.0017 C.ar    1  LIG1       -0.0504
     10 C           1.2321    7.5543    0.0026 C.ar    1  LIG1       -0.0503
     11 C           0.5027    5.2482    0.0011 C.ar    1  LIG1        0.0173
     12 C          -0.0975    7.9873    0.0028 C.ar    1  LIG1        0.0227
     13 H           2.0272    8.2897    0.0031 H       1  LIG1        0.0625
     14 C          -0.8262    5.6865    0.0013 C.ar    1  LIG1       -0.0504
     15 C          -1.1225    7.0380    0.0022 C.ar    1  LIG1       -0.0503
     16 H          -1.6257    4.9556    0.0008 H       1  LIG1        0.0625
     17 H           2.5627    5.8854    0.0016 H       1  LIG1        0.0625
     18 H          -2.1525    7.3732    0.0023 H       1  LIG1        0.0625
     19 C          -0.4119    9.4252    0.0037 C.ar    1  LIG1        0.2033
     20 N          -1.7047    9.7901    0.0040 N.ar    1  LIG1       -0.1258
     21 C          -0.9565   11.9176    0.0055 C.ar    1  LIG1        0.1605
     22 N           0.6107   10.2960    0.0043 N.ar    1  LIG1       -0.1258
     23 N          -1.9835   11.0696    0.0049 N.ar    1  LIG1       -0.1339
     24 N           0.3305   11.5754    0.0051 N.ar    1  LIG1       -0.1339
     25 H          -1.1880   12.9766    0.0060 H       1  LIG1        0.1085
@<TRIPOS>BOND
     1     6     1    1
     2     1     2   ar
     3     1     5   ar
     4     7     2    1
     5     2     3   ar
     6     5     4   ar
     7     3     8    1
     8     3     4   ar
     9     4    11    1
    10    16    14    1
    11    11    14   ar
    12    11     9   ar
    13    14    15   ar
    14    17     9    1
    15     9    10   ar
    16    15    18    1
    17    15    12   ar
    18    10    12   ar
    19    10    13    1
    20    12    19    1
    21    19    20   ar
    22    19    22   ar
    23    20    23   ar
    24    22    24   ar
    25    23    21   ar
    26    24    21   ar
    27    21    25    1
