@<TRIPOS>MOLECULE
mol_data/opt/cam/geoms/mol2/125-84-.out
 32 35 0 0 0
SMALL
GASTEIGER

@<TRIPOS>ATOM
      1 C           0.2016    1.6624    0.0007 C.ar    1  LIG1        0.0926
      2 C           1.5565    1.6838    0.0007 C.ar    1  LIG1       -0.0233
      3 C           1.9303    3.0603    0.0002 C.ar    1  LIG1       -0.0154
      4 C           0.7689    3.7748    0.0003 C.ar    1  LIG1        0.1413
      5 O          -0.2946    2.9236    0.0005 O.2     1  LIG1       -0.4624
      6 H          -0.5287    0.8692    0.0008 H       1  LIG1        0.1029
      7 H           2.2132    0.8271    0.0010 H       1  LIG1        0.0649
      8 H           2.9311    3.4662   -0.0000 H       1  LIG1        0.0655
      9 C           0.4610    5.1856    0.0001 C.ar    1  LIG1        0.0551
     10 C          -0.7855    5.7615    0.0002 C.ar    1  LIG1       -0.0433
     11 C          -0.7337    7.1733   -0.0001 C.ar    1  LIG1       -0.0431
     12 C           0.5470    7.6590   -0.0003 C.ar    1  LIG1        0.0605
     13 S           1.7188    6.3773   -0.0005 S.2     1  LIG1       -0.0820
     14 H          -1.6976    5.1800    0.0004 H       1  LIG1        0.0630
     15 H          -1.5974    7.8252   -0.0000 H       1  LIG1        0.0630
     16 C           0.9633    9.0465   -0.0006 C.ar    1  LIG1        0.2099
     17 N           2.2791    9.3090   -0.0009 N.ar    1  LIG1       -0.1247
     18 C           1.7080   11.5078   -0.0010 C.ar    1  LIG1        0.2034
     19 N           0.0092    9.9933   -0.0005 N.ar    1  LIG1       -0.1247
     20 N           2.6549   10.5583   -0.0011 N.ar    1  LIG1       -0.1252
     21 N           0.3916   11.2391   -0.0007 N.ar    1  LIG1       -0.1252
     22 C           1.1782   13.9408   -0.0012 C.ar    1  LIG1       -0.0509
     23 C           1.5817   15.2679   -0.0014 C.ar    1  LIG1       -0.0611
     24 C           2.1324   12.9201   -0.0013 C.ar    1  LIG1        0.0226
     25 C           2.9352   15.5879   -0.0017 C.ar    1  LIG1       -0.0617
     26 H           0.8361   16.0561   -0.0014 H       1  LIG1        0.0618
     27 C           3.4914   13.2448   -0.0015 C.ar    1  LIG1       -0.0509
     28 C           3.8875   14.5741   -0.0017 C.ar    1  LIG1       -0.0611
     29 H           4.2242   12.4472   -0.0015 H       1  LIG1        0.0625
     30 H           3.2479   16.6271   -0.0019 H       1  LIG1        0.0618
     31 H           0.1269   13.6803   -0.0010 H       1  LIG1        0.0625
     32 H           4.9442   14.8198   -0.0019 H       1  LIG1        0.0618
@<TRIPOS>BOND
     1    32    28    1
     2    30    25    1
     3    28    25   ar
     4    28    27   ar
     5    25    23   ar
     6    29    27    1
     7    27    24   ar
     8    23    26    1
     9    23    22   ar
    10    24    22   ar
    11    24    18    1
    12    22    31    1
    13    20    18   ar
    14    20    17   ar
    15    18    21   ar
    16    17    16   ar
    17    21    19   ar
    18    16    19   ar
    19    16    12    1
    20    13    12   ar
    21    13     9   ar
    22    12    11   ar
    23    11    15    1
    24    11    10   ar
    25     8     3    1
    26     9    10   ar
    27     9     4    1
    28    10    14    1
    29     3     4   ar
    30     3     2   ar
    31     4     5   ar
    32     5     1   ar
    33     1     2   ar
    34     1     6    1
    35     2     7    1
