@<TRIPOS>MOLECULE
mol_data/opt/cam/geoms/mol2/125-13-8.out
 30 33 0 0 0
SMALL
GASTEIGER

@<TRIPOS>ATOM
      1 C           0.1791    1.6592    0.0005 C.ar    1  LIG1        0.0926
      2 C           1.5335    1.6758    0.0000 C.ar    1  LIG1       -0.0233
      3 C           1.9133    3.0517   -0.0005 C.ar    1  LIG1       -0.0154
      4 C           0.7548    3.7703    0.0001 C.ar    1  LIG1        0.1413
      5 O          -0.3120    2.9241    0.0006 O.2     1  LIG1       -0.4624
      6 H          -0.5548    0.8696    0.0008 H       1  LIG1        0.1029
      7 H           2.1869    0.8167   -0.0001 H       1  LIG1        0.0649
      8 H           2.9158    3.4530   -0.0010 H       1  LIG1        0.0655
      9 C           0.4499    5.1818    0.0001 C.ar    1  LIG1        0.0550
     10 C          -0.7826    5.7757    0.0007 C.ar    1  LIG1       -0.0433
     11 C          -0.7201    7.1911    0.0006 C.ar    1  LIG1       -0.0448
     12 C           0.5586    7.6808   -0.0001 C.ar    1  LIG1        0.0362
     13 S           1.7124    6.3749   -0.0007 S.2     1  LIG1       -0.0837
     14 H          -1.7013    5.2043    0.0013 H       1  LIG1        0.0630
     15 H          -1.5945    7.8295    0.0010 H       1  LIG1        0.0630
     16 C           0.9770    9.0665   -0.0004 C.ar    1  LIG1        0.0537
     17 C           0.2066   10.2261   -0.0004 C.ar    1  LIG1       -0.0352
     18 C           1.0809   11.3231   -0.0007 C.ar    1  LIG1       -0.0326
     19 C           2.3699   10.8198   -0.0010 C.ar    1  LIG1        0.0880
     20 N           2.2848    9.4502   -0.0008 N.ar    1  LIG1       -0.3512
     21 H           3.1021    8.8571   -0.0009 H       1  LIG1        0.1660
     22 H          -0.8724   10.2602   -0.0001 H       1  LIG1        0.0639
     23 H           0.8250   12.3715   -0.0007 H       1  LIG1        0.0640
     24 C           3.6508   11.4738   -0.0015 C.ar    1  LIG1        0.2193
     25 N           4.7413   10.6849   -0.0017 N.ar    1  LIG1       -0.1243
     26 C           5.9345   12.5971   -0.0022 C.ar    1  LIG1        0.1605
     27 N           3.6844   12.8213   -0.0016 N.ar    1  LIG1       -0.1243
     28 N           5.9151   11.2663   -0.0021 N.ar    1  LIG1       -0.1338
     29 N           4.8599   13.3910   -0.0020 N.ar    1  LIG1       -0.1338
     30 H           6.9048   13.0794   -0.0026 H       1  LIG1        0.1085
@<TRIPOS>BOND
     1    30    26    1
     2    26    28   ar
     3    26    29   ar
     4    28    25   ar
     5    29    27   ar
     6    25    24   ar
     7    27    24   ar
     8    24    19    1
     9    19    20   ar
    10    19    18   ar
    11     8     3    1
    12    21    20    1
    13    20    16   ar
    14    23    18    1
    15    13    12   ar
    16    13     9   ar
    17    18    17   ar
    18     3     2   ar
    19     3     4   ar
    20    16    17   ar
    21    16    12    1
    22    17    22    1
    23     7     2    1
    24    12    11   ar
    25     2     1   ar
    26     4     9    1
    27     4     5   ar
    28     9    10   ar
    29     1     5   ar
    30     1     6    1
    31    11    10   ar
    32    11    15    1
    33    10    14    1
