@<TRIPOS>MOLECULE
mol_data/opt/cam/geoms/mol2/125-12.out
 23 25 0 0 0
SMALL
GASTEIGER

@<TRIPOS>ATOM
      1 C           0.2315    1.7103    0.0003 C.ar    1  LIG1        0.0926
      2 C           1.5854    1.7420   -0.0004 C.ar    1  LIG1       -0.0233
      3 C           1.9498    3.1224    0.0000 C.ar    1  LIG1       -0.0154
      4 C           0.7837    3.8285    0.0001 C.ar    1  LIG1        0.1413
      5 O          -0.2734    2.9699    0.0002 O.2     1  LIG1       -0.4624
      6 H          -0.4938    0.9127    0.0004 H       1  LIG1        0.1029
      7 H           2.2483    0.8901   -0.0007 H       1  LIG1        0.0649
      8 H           2.9476    3.5355    0.0000 H       1  LIG1        0.0655
      9 C           0.4646    5.2374    0.0001 C.ar    1  LIG1        0.0551
     10 C          -0.7740    5.8174    0.0003 C.ar    1  LIG1       -0.0433
     11 C          -0.7258    7.2350    0.0003 C.ar    1  LIG1       -0.0433
     12 C           0.5494    7.7293    0.0001 C.ar    1  LIG1        0.0551
     13 S           1.7187    6.4421    0.0000 S.2     1  LIG1       -0.0821
     14 H          -1.6870    5.2365    0.0004 H       1  LIG1        0.0630
     15 H          -1.5971    7.8766    0.0004 H       1  LIG1        0.0630
     16 C           0.9636    9.1133    0.0001 C.ar    1  LIG1        0.1413
     17 C           2.1751    9.7385    0.0001 C.ar    1  LIG1       -0.0154
     18 C           1.9054   11.1404    0.0001 C.ar    1  LIG1       -0.0233
     19 C           0.5567   11.2641   -0.0001 C.ar    1  LIG1        0.0926
     20 O          -0.0327   10.0418   -0.0001 O.2     1  LIG1       -0.4624
     21 H          -0.1126   12.1092   -0.0001 H       1  LIG1        0.1029
     22 H           3.1424    9.2585    0.0002 H       1  LIG1        0.0655
     23 H           2.6247   11.9453    0.0001 H       1  LIG1        0.0649
@<TRIPOS>BOND
     1     7     2    1
     2     2     3   ar
     3     2     1   ar
     4    21    19    1
     5    20    19   ar
     6    20    16   ar
     7    19    18   ar
     8     8     3    1
     9    13     9   ar
    10    13    12   ar
    11     3     4   ar
    12    18    23    1
    13    18    17   ar
    14     4     9    1
    15     4     5   ar
    16    16    17   ar
    17    16    12    1
    18    17    22    1
    19     9    10   ar
    20    12    11   ar
    21     5     1   ar
    22     1     6    1
    23    10    11   ar
    24    10    14    1
    25    11    15    1
