@<TRIPOS>MOLECULE
mol_data/opt/cam/geoms/mol2/125-8.out
 22 24 0 0 0
SMALL
GASTEIGER

@<TRIPOS>ATOM
      1 C           0.2167    1.7323    0.0002 C.ar    1  LIG1        0.0926
      2 C           1.5719    1.7525   -0.0004 C.ar    1  LIG1       -0.0233
      3 C           1.9466    3.1285    0.0001 C.ar    1  LIG1       -0.0154
      4 C           0.7856    3.8438    0.0001 C.ar    1  LIG1        0.1413
      5 O          -0.2786    2.9935    0.0001 O.2     1  LIG1       -0.4624
      6 H          -0.5140    0.9395    0.0003 H       1  LIG1        0.1029
      7 H           2.2278    0.8954   -0.0007 H       1  LIG1        0.0649
      8 H           2.9476    3.5338    0.0001 H       1  LIG1        0.0655
      9 C           0.4790    5.2548    0.0002 C.ar    1  LIG1        0.0551
     10 C          -0.7678    5.8315    0.0003 C.ar    1  LIG1       -0.0433
     11 C          -0.7145    7.2426    0.0003 C.ar    1  LIG1       -0.0431
     12 C           0.5673    7.7266    0.0002 C.ar    1  LIG1        0.0605
     13 S           1.7379    6.4440    0.0002 S.2     1  LIG1       -0.0820
     14 H          -1.6802    5.2505    0.0004 H       1  LIG1        0.0630
     15 H          -1.5772    7.8958    0.0004 H       1  LIG1        0.0630
     16 C           0.9847    9.1133    0.0000 C.ar    1  LIG1        0.2099
     17 N           2.3037    9.3686   -0.0000 N.ar    1  LIG1       -0.1253
     18 C           1.7250   11.5476    0.0001 C.ar    1  LIG1        0.1605
     19 N           0.0267   10.0583    0.0001 N.ar    1  LIG1       -0.1253
     20 N           2.6823   10.6220   -0.0000 N.ar    1  LIG1       -0.1339
     21 N           0.4126   11.3081    0.0001 N.ar    1  LIG1       -0.1339
     22 H           2.0382   12.5850   -0.0001 H       1  LIG1        0.1085
@<TRIPOS>BOND
     1     7     2    1
     2     2     3   ar
     3     2     1   ar
     4    22    18    1
     5    20    17   ar
     6    20    18   ar
     7    17    16   ar
     8    16    19   ar
     9    16    12    1
    10     4     3   ar
    11     4     5   ar
    12     4     9    1
    13    21    19   ar
    14    21    18   ar
    15     3     8    1
    16     5     1   ar
    17    12    13   ar
    18    12    11   ar
    19     1     6    1
    20     9    13   ar
    21     9    10   ar
    22    10    11   ar
    23    10    14    1
    24    11    15    1
