@<TRIPOS>MOLECULE
mol_data/opt/cam/geoms/mol2/125-135-.out
 31 34 0 0 0
SMALL
GASTEIGER

@<TRIPOS>ATOM
      1 C           0.2922    1.5921   -0.0008 C.ar    1  LIG1        0.0926
      2 C           1.6454    1.6412   -0.0013 C.ar    1  LIG1       -0.0233
      3 C           1.9924    3.0262   -0.0011 C.ar    1  LIG1       -0.0154
      4 C           0.8174    3.7175   -0.0004 C.ar    1  LIG1        0.1413
      5 O          -0.2289    2.8455   -0.0002 O.2     1  LIG1       -0.4624
      6 H          -0.4229    0.7853   -0.0008 H       1  LIG1        0.1029
      7 H           2.3192    0.7978   -0.0018 H       1  LIG1        0.0649
      8 H           2.9848    3.4519   -0.0014 H       1  LIG1        0.0655
      9 C           0.4802    5.1219    0.0002 C.ar    1  LIG1        0.0550
     10 C          -0.7654    5.6847    0.0010 C.ar    1  LIG1       -0.0433
     11 C          -0.7348    7.1027    0.0014 C.ar    1  LIG1       -0.0448
     12 C           0.5326    7.6236    0.0010 C.ar    1  LIG1        0.0362
     13 S           1.7152    6.3459   -0.0001 S.2     1  LIG1       -0.0837
     14 H          -1.6715    5.0932    0.0013 H       1  LIG1        0.0630
     15 H          -1.6335    7.7086    0.0022 H       1  LIG1        0.0630
     16 C           0.9515    9.0080    0.0012 C.ar    1  LIG1        0.0536
     17 C           2.2114    9.5774    0.0017 C.ar    1  LIG1       -0.0353
     18 C           2.0517   10.9777    0.0018 C.ar    1  LIG1       -0.0353
     19 C           0.6964   11.2489    0.0012 C.ar    1  LIG1        0.0536
     20 N           0.0455   10.0403    0.0010 N.ar    1  LIG1       -0.3533
     21 H          -0.9537    9.9270    0.0000 H       1  LIG1        0.1659
     22 H           3.1458    9.0353    0.0021 H       1  LIG1        0.0639
     23 H           2.8397   11.7165    0.0023 H       1  LIG1        0.0639
     24 C          -0.0236   12.5060    0.0010 C.ar    1  LIG1        0.0355
     25 C          -1.3759   12.7254    0.0020 C.ar    1  LIG1       -0.0455
     26 C          -1.7232   14.1060    0.0013 C.ar    1  LIG1       -0.0541
     27 C          -0.6355   14.9208   -0.0001 C.ar    1  LIG1       -0.0237
     28 S           0.8353   14.0178   -0.0007 S.2     1  LIG1       -0.0952
     29 H          -0.6065   16.0005   -0.0009 H       1  LIG1        0.0693
     30 H          -2.1144   11.9322    0.0033 H       1  LIG1        0.0629
     31 H          -2.7432   14.4697    0.0020 H       1  LIG1        0.0623
@<TRIPOS>BOND
     1     7     2    1
     2     8     3    1
     3     2     3   ar
     4     2     1   ar
     5     3     4   ar
     6    29    27    1
     7     1     6    1
     8     1     5   ar
     9    28    27   ar
    10    28    24   ar
    11     4     5   ar
    12     4     9    1
    13    27    26   ar
    14    13     9   ar
    15    13    12   ar
    16    21    20    1
    17     9    10   ar
    18    20    16   ar
    19    20    19   ar
    20    12    16    1
    21    12    11   ar
    22    10    14    1
    23    10    11   ar
    24    24    19    1
    25    24    25   ar
    26    16    17   ar
    27    19    18   ar
    28    26    31    1
    29    26    25   ar
    30    11    15    1
    31    17    18   ar
    32    17    22    1
    33    18    23    1
    34    25    30    1
