@<TRIPOS>MOLECULE
mol_data/opt/cam/geoms/mol2/125-4-.out
 26 28 0 0 0
SMALL
GASTEIGER

@<TRIPOS>ATOM
      1 C           0.1993    1.6608    0.0009 C.ar    1  LIG1        0.0926
      2 C           1.5534    1.6810   -0.0010 C.ar    1  LIG1       -0.0233
      3 C           1.9294    3.0583   -0.0010 C.ar    1  LIG1       -0.0154
      4 C           0.7694    3.7743   -0.0000 C.ar    1  LIG1        0.1413
      5 O          -0.2950    2.9245    0.0011 O.2     1  LIG1       -0.4624
      6 H          -0.5327    0.8693    0.0018 H       1  LIG1        0.1029
      7 H           2.2091    0.8235   -0.0018 H       1  LIG1        0.0649
      8 H           2.9305    3.4632   -0.0019 H       1  LIG1        0.0655
      9 C           0.4618    5.1860    0.0001 C.ar    1  LIG1        0.0550
     10 C          -0.7722    5.7745    0.0014 C.ar    1  LIG1       -0.0434
     11 C          -0.7095    7.1910    0.0012 C.ar    1  LIG1       -0.0462
     12 C           0.5645    7.6914   -0.0002 C.ar    1  LIG1        0.0200
     13 S           1.7183    6.3822   -0.0012 S.2     1  LIG1       -0.0852
     14 H          -1.6909    5.2029    0.0024 H       1  LIG1        0.0630
     15 H          -1.5931    7.8161    0.0022 H       1  LIG1        0.0629
     16 C           0.0628   10.1325   -0.0026 C.ar    1  LIG1       -0.0535
     17 C           0.4662   11.4590   -0.0032 C.ar    1  LIG1       -0.0612
     18 C           1.0024    9.0937   -0.0008 C.ar    1  LIG1       -0.0113
     19 C           1.8182   11.7843   -0.0020 C.ar    1  LIG1       -0.0617
     20 H          -0.2825   12.2446   -0.0046 H       1  LIG1        0.0618
     21 C           2.3591    9.4367    0.0003 C.ar    1  LIG1       -0.0535
     22 C           2.7618   10.7646   -0.0003 C.ar    1  LIG1       -0.0612
     23 H           3.1148    8.6576    0.0019 H       1  LIG1        0.0624
     24 H           2.1324   12.8226   -0.0024 H       1  LIG1        0.0618
     25 H          -0.9966    9.9028   -0.0038 H       1  LIG1        0.0624
     26 H           3.8207   11.0016    0.0007 H       1  LIG1        0.0618
@<TRIPOS>BOND
     1    20    17    1
     2    25    16    1
     3    17    16   ar
     4    17    19   ar
     5    16    18   ar
     6    24    19    1
     7    19    22   ar
     8     8     3    1
     9     7     2    1
    10    13    12   ar
    11    13     9   ar
    12     3     2   ar
    13     3     4   ar
    14     2     1   ar
    15    18    12    1
    16    18    21   ar
    17    22    21   ar
    18    22    26    1
    19    12    11   ar
    20     4     9    1
    21     4     5   ar
    22     9    10   ar
    23    21    23    1
    24     1     5   ar
    25     1     6    1
    26    11    10   ar
    27    11    15    1
    28    10    14    1
