@<TRIPOS>MOLECULE
mol_data/opt/cam/geoms/mol2/125-124.out
 33 36 0 0 0
SMALL
GASTEIGER

@<TRIPOS>ATOM
      1 C           0.3503    1.5817   -0.0003 C.ar    1  LIG1        0.0926
      2 C           1.7033    1.6437   -0.0005 C.ar    1  LIG1       -0.0233
      3 C           2.0366    3.0319   -0.0005 C.ar    1  LIG1       -0.0154
      4 C           0.8547    3.7115   -0.0001 C.ar    1  LIG1        0.1413
      5 O          -0.1830    2.8294   -0.0000 O.2     1  LIG1       -0.4624
      6 H          -0.3568    0.7679   -0.0003 H       1  LIG1        0.1029
      7 H           2.3852    0.8069   -0.0007 H       1  LIG1        0.0649
      8 H           3.0248    3.4673   -0.0006 H       1  LIG1        0.0655
      9 C           0.5033    5.1125    0.0001 C.ar    1  LIG1        0.0551
     10 C          -0.7489    5.6632    0.0005 C.ar    1  LIG1       -0.0433
     11 C          -0.7341    7.0809    0.0007 C.ar    1  LIG1       -0.0433
     12 C           0.5296    7.6060    0.0004 C.ar    1  LIG1        0.0551
     13 S           1.7290    6.3459   -0.0002 S.2     1  LIG1       -0.0821
     14 H          -1.6478    5.0609    0.0007 H       1  LIG1        0.0630
     15 H          -1.6211    7.7007    0.0010 H       1  LIG1        0.0630
     16 C           0.9118    8.9966    0.0004 C.ar    1  LIG1        0.1422
     17 C           2.1100    9.6494    0.0003 C.ar    1  LIG1       -0.0147
     18 C           1.8112   11.0390    0.0004 C.ar    1  LIG1       -0.0152
     19 C           0.4513   11.1510    0.0006 C.ar    1  LIG1        0.1357
     20 O          -0.1017    9.9047    0.0006 O.2     1  LIG1       -0.4543
     21 H           3.0879    9.1911    0.0002 H       1  LIG1        0.0656
     22 H           2.5214   11.8516    0.0004 H       1  LIG1        0.0656
     23 C           0.0294   13.5941    0.0010 C.ar    1  LIG1       -0.0511
     24 C          -0.8392   14.6745    0.0011 C.ar    1  LIG1       -0.0611
     25 C          -0.4647   12.2850    0.0008 C.ar    1  LIG1        0.0173
     26 C          -2.2154   14.4690    0.0011 C.ar    1  LIG1       -0.0617
     27 H          -0.4397   15.6834    0.0012 H       1  LIG1        0.0618
     28 C          -1.8487   12.0865    0.0008 C.ar    1  LIG1       -0.0511
     29 C          -2.7140   13.1716    0.0010 C.ar    1  LIG1       -0.0611
     30 H          -2.2392   11.0758    0.0007 H       1  LIG1        0.0625
     31 H          -2.8938   15.3157    0.0013 H       1  LIG1        0.0618
     32 H           1.1005   13.7665    0.0010 H       1  LIG1        0.0625
     33 H          -3.7857   13.0011    0.0010 H       1  LIG1        0.0618
@<TRIPOS>BOND
     1     7     2    1
     2     8     3    1
     3     2     3   ar
     4     2     1   ar
     5     3     4   ar
     6     1     6    1
     7     1     5   ar
     8    13     9   ar
     9    13    12   ar
    10     4     5   ar
    11     4     9    1
    12     9    10   ar
    13    21    17    1
    14    17    16   ar
    15    17    18   ar
    16    12    16    1
    17    12    11   ar
    18    16    20   ar
    19    22    18    1
    20    18    19   ar
    21    10    11   ar
    22    10    14    1
    23    20    19   ar
    24    19    25    1
    25    11    15    1
    26    30    28    1
    27    25    28   ar
    28    25    23   ar
    29    28    29   ar
    30    23    32    1
    31    23    24   ar
    32    29    33    1
    33    29    26   ar
    34    24    26   ar
    35    24    27    1
    36    26    31    1
