@<TRIPOS>MOLECULE
mol_data/opt/cam/geoms/mol2/125-412-.out
 33 36 0 0 0
SMALL
GASTEIGER

@<TRIPOS>ATOM
      1 C           0.2078    1.5930   -0.0013 C.ar    1  LIG1        0.0926
      2 C           1.5619    1.6234   -0.0017 C.ar    1  LIG1       -0.0233
      3 C           1.9274    3.0034   -0.0011 C.ar    1  LIG1       -0.0154
      4 C           0.7618    3.7106   -0.0005 C.ar    1  LIG1        0.1413
      5 O          -0.2962    2.8527   -0.0006 O.2     1  LIG1       -0.4624
      6 H          -0.5180    0.7958   -0.0015 H       1  LIG1        0.1029
      7 H           2.2241    0.7709   -0.0022 H       1  LIG1        0.0649
      8 H           2.9253    3.4159   -0.0012 H       1  LIG1        0.0655
      9 C           0.4432    5.1196    0.0003 C.ar    1  LIG1        0.0550
     10 C          -0.7959    5.6982    0.0011 C.ar    1  LIG1       -0.0434
     11 C          -0.7449    7.1147    0.0017 C.ar    1  LIG1       -0.0462
     12 C           0.5258    7.6254    0.0014 C.ar    1  LIG1        0.0200
     13 S           1.6903    6.3255    0.0003 S.2     1  LIG1       -0.0852
     14 H          -1.7099    5.1191    0.0012 H       1  LIG1        0.0630
     15 H          -1.6334    7.7330    0.0025 H       1  LIG1        0.0629
     16 C           2.3032    9.3899    0.0034 C.ar    1  LIG1       -0.0529
     17 C           2.6963   10.7173    0.0039 C.ar    1  LIG1       -0.0505
     18 C           0.9515    9.0286    0.0019 C.ar    1  LIG1       -0.0113
     19 C           1.7481   11.7431    0.0029 C.ar    1  LIG1        0.0173
     20 H           3.7503   10.9684    0.0051 H       1  LIG1        0.0625
     21 C           0.0059   10.0634    0.0009 C.ar    1  LIG1       -0.0529
     22 C           0.3944   11.3896    0.0013 C.ar    1  LIG1       -0.0505
     23 H          -1.0524    9.8292   -0.0005 H       1  LIG1        0.0624
     24 H           3.0693    8.6210    0.0044 H       1  LIG1        0.0624
     25 H          -0.3658   12.1636    0.0004 H       1  LIG1        0.0625
     26 C           2.1544   13.1425    0.0034 C.ar    1  LIG1        0.1348
     27 C           1.4697   14.3217    0.0028 C.ar    1  LIG1       -0.0159
     28 C           2.4465   15.3624    0.0038 C.ar    1  LIG1       -0.0233
     29 C           3.6517   14.7442    0.0049 C.ar    1  LIG1        0.0926
     30 O           3.4933   13.3983    0.0046 O.2     1  LIG1       -0.4629
     31 H           4.6696   15.0997    0.0059 H       1  LIG1        0.1029
     32 H           0.3969   14.4408    0.0019 H       1  LIG1        0.0655
     33 H           2.2697   16.4274    0.0038 H       1  LIG1        0.0649
@<TRIPOS>BOND
     1     7     2    1
     2     2     1   ar
     3     2     3   ar
     4     6     1    1
     5     1     5   ar
     6     8     3    1
     7     3     4   ar
     8     5     4   ar
     9    23    21    1
    10     4     9    1
    11     9    13   ar
    12     9    10   ar
    13    13    12   ar
    14    25    22    1
    15    21    22   ar
    16    21    18   ar
    17    10    14    1
    18    10    11   ar
    19    22    19   ar
    20    12    11   ar
    21    12    18    1
    22    11    15    1
    23    32    27    1
    24    18    16   ar
    25    27    26   ar
    26    27    28   ar
    27    19    26    1
    28    19    17   ar
    29    26    30   ar
    30    16    17   ar
    31    16    24    1
    32    33    28    1
    33    28    29   ar
    34    17    20    1
    35    30    29   ar
    36    29    31    1
