@<TRIPOS>MOLECULE
mol_data/opt/cam/geoms/mol2/125-13.out
 24 26 0 0 0
SMALL
GASTEIGER

@<TRIPOS>ATOM
      1 C           0.2285    1.6880   -0.0003 C.ar    1  LIG1        0.0926
      2 C           1.5822    1.7213   -0.0003 C.ar    1  LIG1       -0.0233
      3 C           1.9455    3.1023   -0.0004 C.ar    1  LIG1       -0.0154
      4 C           0.7788    3.8073   -0.0000 C.ar    1  LIG1        0.1413
      5 O          -0.2778    2.9477    0.0000 O.2     1  LIG1       -0.4624
      6 H          -0.4961    0.8898   -0.0003 H       1  LIG1        0.1029
      7 H           2.2460    0.8700   -0.0004 H       1  LIG1        0.0649
      8 H           2.9427    3.5165   -0.0005 H       1  LIG1        0.0655
      9 C           0.4587    5.2160    0.0002 C.ar    1  LIG1        0.0550
     10 C          -0.7788    5.7951    0.0006 C.ar    1  LIG1       -0.0433
     11 C          -0.7291    7.2136    0.0008 C.ar    1  LIG1       -0.0448
     12 C           0.5445    7.7174    0.0005 C.ar    1  LIG1        0.0361
     13 S           1.7097    6.4242    0.0000 S.2     1  LIG1       -0.0837
     14 H          -1.6928    5.2158    0.0009 H       1  LIG1        0.0630
     15 H          -1.6193    7.8317    0.0012 H       1  LIG1        0.0630
     16 C           0.9843    9.0978    0.0005 C.ar    1  LIG1        0.0531
     17 C           2.2504    9.6488    0.0011 C.ar    1  LIG1       -0.0359
     18 C           2.1102   11.0575    0.0004 C.ar    1  LIG1       -0.0438
     19 C           0.7659   11.3338    0.0002 C.ar    1  LIG1        0.0022
     20 N           0.0921   10.1443   -0.0001 N.ar    1  LIG1       -0.3603
     21 H          -0.9089   10.0473   -0.0008 H       1  LIG1        0.1653
     22 H           0.2368   12.2743   -0.0000 H       1  LIG1        0.0807
     23 H           3.1765    9.0920    0.0018 H       1  LIG1        0.0639
     24 H           2.9067   11.7865    0.0005 H       1  LIG1        0.0633
@<TRIPOS>BOND
     1    21    20    1
     2     8     3    1
     3     7     2    1
     4     3     2   ar
     5     3     4   ar
     6     6     1    1
     7     2     1   ar
     8     1     5   ar
     9    20    19   ar
    10    20    16   ar
    11     4     5   ar
    12     4     9    1
    13    22    19    1
    14    13     9   ar
    15    13    12   ar
    16     9    10   ar
    17    19    18   ar
    18    18    24    1
    19    18    17   ar
    20    12    16    1
    21    12    11   ar
    22    16    17   ar
    23    10    11   ar
    24    10    14    1
    25    11    15    1
    26    17    23    1
