@<TRIPOS>MOLECULE
mol_data/opt/cam/geoms/mol2/125-13-.out
 24 26 0 0 0
SMALL
GASTEIGER

@<TRIPOS>ATOM
      1 C           0.2084    1.6854    0.0002 C.ar    1  LIG1        0.0926
      2 C           1.5623    1.7080   -0.0000 C.ar    1  LIG1       -0.0233
      3 C           1.9364    3.0862   -0.0003 C.ar    1  LIG1       -0.0154
      4 C           0.7751    3.8003    0.0000 C.ar    1  LIG1        0.1413
      5 O          -0.2878    2.9491    0.0003 O.2     1  LIG1       -0.4624
      6 H          -0.5226    0.8930    0.0004 H       1  LIG1        0.1029
      7 H           2.2194    0.8515   -0.0001 H       1  LIG1        0.0649
      8 H           2.9371    3.4920   -0.0006 H       1  LIG1        0.0655
      9 C           0.4644    5.2107    0.0001 C.ar    1  LIG1        0.0550
     10 C          -0.7668    5.8037    0.0005 C.ar    1  LIG1       -0.0433
     11 C          -0.7088    7.2211    0.0005 C.ar    1  LIG1       -0.0448
     12 C           0.5669    7.7168   -0.0000 C.ar    1  LIG1        0.0361
     13 S           1.7236    6.4111   -0.0004 S.2     1  LIG1       -0.0837
     14 H          -1.6849    5.2307    0.0009 H       1  LIG1        0.0630
     15 H          -1.5849    7.8571    0.0008 H       1  LIG1        0.0630
     16 C           0.9888    9.1031   -0.0002 C.ar    1  LIG1        0.0531
     17 C           0.2382   10.2629   -0.0006 C.ar    1  LIG1       -0.0359
     18 C           1.1342   11.3583   -0.0003 C.ar    1  LIG1       -0.0438
     19 C           2.4076   10.8460   -0.0005 C.ar    1  LIG1        0.0022
     20 N           2.3111    9.4823   -0.0001 N.ar    1  LIG1       -0.3603
     21 H           3.0952    8.8507    0.0002 H       1  LIG1        0.1653
     22 H           3.3685   11.3369   -0.0006 H       1  LIG1        0.0807
     23 H          -0.8407   10.3104   -0.0008 H       1  LIG1        0.0639
     24 H           0.8735   12.4062   -0.0003 H       1  LIG1        0.0633
@<TRIPOS>BOND
     1    23    17    1
     2     8     3    1
     3    22    19    1
     4    17    18   ar
     5    17    16   ar
     6    19    18   ar
     7    19    20   ar
     8    13    12   ar
     9    13     9   ar
    10     3     2   ar
    11     3     4   ar
    12    18    24    1
    13    16    20   ar
    14    16    12    1
    15    20    21    1
    16     7     2    1
    17    12    11   ar
    18     2     1   ar
    19     4     9    1
    20     4     5   ar
    21     9    10   ar
    22     1     5   ar
    23     1     6    1
    24    11    10   ar
    25    11    15    1
    26    10    14    1
