@<TRIPOS>MOLECULE
mol_data/opt/cam/geoms/mol2/125-.out
 16 17 0 0 0
SMALL
GASTEIGER

@<TRIPOS>ATOM
      1 C           0.2267    1.7724   -0.0001 C.ar    1  LIG1        0.0926
      2 C           1.5804    1.7973   -0.0001 C.ar    1  LIG1       -0.0233
      3 C           1.9513    3.1760   -0.0001 C.ar    1  LIG1       -0.0154
      4 C           0.7898    3.8882    0.0000 C.ar    1  LIG1        0.1413
      5 O          -0.2718    3.0346    0.0000 O.2     1  LIG1       -0.4624
      6 H          -0.5030    0.9788   -0.0001 H       1  LIG1        0.1029
      7 H           2.2391    0.9421   -0.0002 H       1  LIG1        0.0649
      8 H           2.9509    3.5845   -0.0001 H       1  LIG1        0.0655
      9 C           0.4766    5.3001    0.0002 C.ar    1  LIG1        0.0544
     10 C          -0.7600    5.8833    0.0004 C.ar    1  LIG1       -0.0440
     11 C          -0.7030    7.3052    0.0004 C.ar    1  LIG1       -0.0540
     12 C           0.5702    7.7817    0.0004 C.ar    1  LIG1       -0.0236
     13 S           1.7306    6.5031    0.0000 S.2     1  LIG1       -0.0936
     14 H           0.9026    8.8094    0.0004 H       1  LIG1        0.0693
     15 H          -1.6747    5.3051    0.0004 H       1  LIG1        0.0630
     16 H          -1.5781    7.9432    0.0006 H       1  LIG1        0.0623
@<TRIPOS>BOND
     1     7     2    1
     2     6     1    1
     3     2     1   ar
     4     2     3   ar
     5     1     5   ar
     6     8     3    1
     7     3     4   ar
     8    13     9   ar
     9    13    12   ar
    10     5     4   ar
    11     4     9    1
    12     9    10   ar
    13    12    14    1
    14    12    11   ar
    15    10    11   ar
    16    10    15    1
    17    11    16    1
