@<TRIPOS>MOLECULE
mol_data/opt/cam/geoms/mol2/125-4.out
 26 28 0 0 0
SMALL
GASTEIGER

@<TRIPOS>ATOM
      1 C           0.2262    1.6601   -0.0002 C.ar    1  LIG1        0.0926
      2 C           1.5801    1.6913   -0.0017 C.ar    1  LIG1       -0.0233
      3 C           1.9450    3.0715   -0.0010 C.ar    1  LIG1       -0.0154
      4 C           0.7792    3.7781   -0.0001 C.ar    1  LIG1        0.1413
      5 O          -0.2783    2.9197    0.0003 O.2     1  LIG1       -0.4624
      6 H          -0.4993    0.8626    0.0002 H       1  LIG1        0.1029
      7 H           2.2427    0.8391   -0.0027 H       1  LIG1        0.0649
      8 H           2.9427    3.4845   -0.0015 H       1  LIG1        0.0655
      9 C           0.4602    5.1873    0.0005 C.ar    1  LIG1        0.0550
     10 C          -0.7786    5.7657    0.0016 C.ar    1  LIG1       -0.0434
     11 C          -0.7274    7.1827    0.0019 C.ar    1  LIG1       -0.0462
     12 C           0.5425    7.6934    0.0011 C.ar    1  LIG1        0.0200
     13 S           1.7069    6.3936   -0.0000 S.2     1  LIG1       -0.0852
     14 H          -1.6927    5.1867    0.0021 H       1  LIG1        0.0630
     15 H          -1.6160    7.8006    0.0029 H       1  LIG1        0.0629
     16 C           2.3229    9.4532    0.0030 C.ar    1  LIG1       -0.0535
     17 C           2.7148   10.7843    0.0031 C.ar    1  LIG1       -0.0612
     18 C           0.9691    9.0992    0.0012 C.ar    1  LIG1       -0.0113
     19 C           1.7631   11.7963    0.0013 C.ar    1  LIG1       -0.0617
     20 H           3.7718   11.0299    0.0045 H       1  LIG1        0.0618
     21 C           0.0210   10.1304   -0.0006 C.ar    1  LIG1       -0.0535
     22 C           0.4137   11.4601   -0.0005 C.ar    1  LIG1       -0.0612
     23 H          -1.0365    9.8921   -0.0022 H       1  LIG1        0.0624
     24 H           2.0688   12.8371    0.0014 H       1  LIG1        0.0618
     25 H           3.0850    8.6802    0.0046 H       1  LIG1        0.0624
     26 H          -0.3414   12.2396   -0.0019 H       1  LIG1        0.0618
@<TRIPOS>BOND
     1     7     2    1
     2    23    21    1
     3    26    22    1
     4     2     3   ar
     5     2     1   ar
     6     8     3    1
     7     3     4   ar
     8    21    22   ar
     9    21    18   ar
    10    22    19   ar
    11     1     6    1
    12     1     5   ar
    13     4     5   ar
    14     4     9    1
    15    13     9   ar
    16    13    12   ar
    17     9    10   ar
    18    12    18    1
    19    12    11   ar
    20    18    16   ar
    21    19    24    1
    22    19    17   ar
    23    10    11   ar
    24    10    14    1
    25    11    15    1
    26    16    17   ar
    27    16    25    1
    28    17    20    1
