@<TRIPOS>MOLECULE
mol_data/opt/cam/geoms/mol2/125-5.out
 23 25 0 0 0
SMALL
GASTEIGER

@<TRIPOS>ATOM
      1 C           0.2006    1.6895    0.0005 C.ar    1  LIG1        0.0926
      2 C           1.5549    1.7047   -0.0004 C.ar    1  LIG1       -0.0233
      3 C           1.9361    3.0804   -0.0001 C.ar    1  LIG1       -0.0154
      4 C           0.7787    3.8007    0.0001 C.ar    1  LIG1        0.1413
      5 O          -0.2889    2.9551    0.0004 O.2     1  LIG1       -0.4624
      6 H          -0.5343    0.9007    0.0008 H       1  LIG1        0.1029
      7 H           2.2073    0.8447   -0.0009 H       1  LIG1        0.0649
      8 H           2.9387    3.4814   -0.0002 H       1  LIG1        0.0655
      9 C           0.4764    5.2132    0.0001 C.ar    1  LIG1        0.0550
     10 C          -0.7558    5.8060    0.0004 C.ar    1  LIG1       -0.0434
     11 C          -0.6899    7.2224    0.0003 C.ar    1  LIG1       -0.0457
     12 C           0.5883    7.7119   -0.0000 C.ar    1  LIG1        0.0266
     13 S           1.7413    6.4042   -0.0002 S.2     1  LIG1       -0.0847
     14 H          -1.6758    5.2366    0.0007 H       1  LIG1        0.0630
     15 H          -1.5656    7.8604    0.0005 H       1  LIG1        0.0629
     16 C           1.0352    9.0931   -0.0003 C.ar    1  LIG1        0.0259
     17 C           2.3153    9.5790   -0.0005 C.ar    1  LIG1       -0.0464
     18 C           2.3793   11.0001   -0.0006 C.ar    1  LIG1       -0.0541
     19 C           1.1499   11.5807   -0.0003 C.ar    1  LIG1       -0.0237
     20 S          -0.1112   10.4042   -0.0004 S.2     1  LIG1       -0.0961
     21 H           0.9059   12.6330   -0.0003 H       1  LIG1        0.0693
     22 H           3.1900    8.9396   -0.0006 H       1  LIG1        0.0629
     23 H           3.3055   11.5610   -0.0007 H       1  LIG1        0.0623
@<TRIPOS>BOND
     1     7     2    1
     2    23    18    1
     3    18    17   ar
     4    18    19   ar
     5    22    17    1
     6    17    16   ar
     7     2     3   ar
     8     2     1   ar
     9    20    19   ar
    10    20    16   ar
    11    19    21    1
    12    16    12    1
    13     8     3    1
    14    13    12   ar
    15    13     9   ar
    16     3     4   ar
    17    12    11   ar
    18     4     9    1
    19     4     5   ar
    20     9    10   ar
    21    11    10   ar
    22    11    15    1
    23     5     1   ar
    24    10    14    1
    25     1     6    1
