@<TRIPOS>MOLECULE
mol_data/opt/cam/geoms/mol2/125-413.out
 34 37 0 0 0
SMALL
GASTEIGER

@<TRIPOS>ATOM
      1 C           0.2409    1.5697   -0.0014 C.ar    1  LIG1        0.0926
      2 C           1.5946    1.6130   -0.0013 C.ar    1  LIG1       -0.0233
      3 C           1.9471    2.9964   -0.0007 C.ar    1  LIG1       -0.0154
      4 C           0.7749    3.6926   -0.0004 C.ar    1  LIG1        0.1413
      5 O          -0.2750    2.8247   -0.0009 O.2     1  LIG1       -0.4624
      6 H          -0.4774    0.7658   -0.0018 H       1  LIG1        0.1029
      7 H           2.2648    0.7667   -0.0016 H       1  LIG1        0.0649
      8 H           2.9411    3.4182   -0.0005 H       1  LIG1        0.0655
      9 C           0.4431    5.0986    0.0002 C.ar    1  LIG1        0.0550
     10 C          -0.8009    5.6661    0.0005 C.ar    1  LIG1       -0.0434
     11 C          -0.7630    7.0831    0.0012 C.ar    1  LIG1       -0.0462
     12 C           0.5029    7.6057    0.0013 C.ar    1  LIG1        0.0200
     13 S           1.6792    6.3163    0.0005 S.2     1  LIG1       -0.0852
     14 H          -1.7097    5.0787    0.0004 H       1  LIG1        0.0630
     15 H          -1.6571    7.6933    0.0017 H       1  LIG1        0.0629
     16 C           2.2655    9.3879    0.0038 C.ar    1  LIG1       -0.0529
     17 C           2.6454   10.7170    0.0044 C.ar    1  LIG1       -0.0520
     18 C           0.9167    9.0121    0.0018 C.ar    1  LIG1       -0.0113
     19 C           1.6974   11.7472    0.0030 C.ar    1  LIG1       -0.0017
     20 H           3.7015   10.9616    0.0060 H       1  LIG1        0.0624
     21 C          -0.0320   10.0405    0.0004 C.ar    1  LIG1       -0.0529
     22 C           0.3490   11.3709    0.0010 C.ar    1  LIG1       -0.0520
     23 H          -1.0895    9.8016   -0.0013 H       1  LIG1        0.0624
     24 H           3.0395    8.6269    0.0050 H       1  LIG1        0.0624
     25 H          -0.4345   12.1223   -0.0004 H       1  LIG1        0.0624
     26 C           2.1222   13.1454    0.0037 C.ar    1  LIG1        0.0465
     27 C           3.3865   13.7033    0.0038 C.ar    1  LIG1       -0.0364
     28 C           3.2459   15.1113    0.0043 C.ar    1  LIG1       -0.0438
     29 C           1.9011   15.3851    0.0050 C.ar    1  LIG1        0.0022
     30 N           1.2315   14.1945    0.0043 N.ar    1  LIG1       -0.3607
     31 H           0.2303   14.1034    0.0047 H       1  LIG1        0.1653
     32 H           1.3698   16.3245    0.0057 H       1  LIG1        0.0807
     33 H           4.3172   13.1558    0.0033 H       1  LIG1        0.0639
     34 H           4.0417   15.8413    0.0043 H       1  LIG1        0.0633
@<TRIPOS>BOND
     1     6     1    1
     2     7     2    1
     3     1     2   ar
     4     1     5   ar
     5     2     3   ar
     6    23    21    1
     7     5     4   ar
     8     3     8    1
     9     3     4   ar
    10     4     9    1
    11    25    22    1
    12     9    13   ar
    13     9    10   ar
    14    14    10    1
    15    21    22   ar
    16    21    18   ar
    17    13    12   ar
    18    10    11   ar
    19    22    19   ar
    20    11    12   ar
    21    11    15    1
    22    12    18    1
    23    18    16   ar
    24    19    26    1
    25    19    17   ar
    26    33    27    1
    27    26    27   ar
    28    26    30   ar
    29    16    17   ar
    30    16    24    1
    31    27    28   ar
    32    28    34    1
    33    28    29   ar
    34    30    31    1
    35    30    29   ar
    36    17    20    1
    37    29    32    1
