@<TRIPOS>MOLECULE
mol_data/opt/cam/geoms/mol2/125.out
 16 17 0 0 0
SMALL
GASTEIGER

@<TRIPOS>ATOM
      1 C           0.2255    1.7974    0.0001 C.ar    1  LIG1        0.0926
      2 C           1.5796    1.7920    0.0001 C.ar    1  LIG1       -0.0233
      3 C           1.9838    3.1612   -0.0001 C.ar    1  LIG1       -0.0154
      4 C           0.8391    3.9010   -0.0002 C.ar    1  LIG1        0.1413
      5 O          -0.2410    3.0719   -0.0001 O.2     1  LIG1       -0.4624
      6 H          -0.5234    1.0221    0.0003 H       1  LIG1        0.1029
      7 H           2.2181    0.9215    0.0002 H       1  LIG1        0.0649
      8 H           2.9924    3.5456   -0.0001 H       1  LIG1        0.0655
      9 C           0.5716    5.3223   -0.0004 C.ar    1  LIG1        0.0544
     10 C           1.4733    6.3516   -0.0008 C.ar    1  LIG1       -0.0440
     11 C           0.8548    7.6319   -0.0008 C.ar    1  LIG1       -0.0540
     12 C          -0.5036    7.5578   -0.0004 C.ar    1  LIG1       -0.0236
     13 S          -1.0580    5.9250   -0.0001 S.2     1  LIG1       -0.0936
     14 H          -1.2174    8.3687   -0.0004 H       1  LIG1        0.0693
     15 H           2.5454    6.1978   -0.0011 H       1  LIG1        0.0630
     16 H           1.4029    8.5658   -0.0011 H       1  LIG1        0.0623
@<TRIPOS>BOND
     1    16    11    1
     2    15    10    1
     3    11    10   ar
     4    11    12   ar
     5    10     9   ar
     6    12    14    1
     7    12    13   ar
     8     9     4    1
     9     9    13   ar
    10     4     3   ar
    11     4     5   ar
    12     8     3    1
    13     3     2   ar
    14     5     1   ar
    15     2     1   ar
    16     2     7    1
    17     1     6    1
