@<TRIPOS>MOLECULE
mol_data/opt/cam/geoms/mol2/12513-.out
 24 26 0 0 0
SMALL
GASTEIGER

@<TRIPOS>ATOM
      1 C           0.2729    1.7204    0.0004 C.ar    1  LIG1        0.0926
      2 C           1.6273    1.7179    0.0004 C.ar    1  LIG1       -0.0233
      3 C           2.0293    3.0879   -0.0002 C.ar    1  LIG1       -0.0154
      4 C           0.8819    3.8253   -0.0001 C.ar    1  LIG1        0.1413
      5 O          -0.1963    2.9942    0.0003 O.2     1  LIG1       -0.4624
      6 H          -0.4740    0.9432    0.0007 H       1  LIG1        0.1029
      7 H           2.2676    0.8487    0.0006 H       1  LIG1        0.0649
      8 H           3.0372    3.4739   -0.0005 H       1  LIG1        0.0655
      9 C           0.6106    5.2441   -0.0004 C.ar    1  LIG1        0.0550
     10 C           1.5061    6.2778   -0.0010 C.ar    1  LIG1       -0.0433
     11 C           0.8848    7.5525   -0.0011 C.ar    1  LIG1       -0.0448
     12 C          -0.4845    7.4919   -0.0005 C.ar    1  LIG1        0.0361
     13 S          -1.0237    5.8392    0.0000 S.2     1  LIG1       -0.0837
     14 H           2.5793    6.1318   -0.0014 H       1  LIG1        0.0630
     15 H           1.4469    8.4792   -0.0017 H       1  LIG1        0.0630
     16 C          -1.4458    8.5760   -0.0004 C.ar    1  LIG1        0.0531
     17 C          -2.8266    8.5668   -0.0009 C.ar    1  LIG1       -0.0359
     18 C          -3.2692    9.9115   -0.0002 C.ar    1  LIG1       -0.0438
     19 C          -2.1523   10.7090   -0.0000 C.ar    1  LIG1        0.0022
     20 N          -1.0543    9.8945    0.0001 N.ar    1  LIG1       -0.3603
     21 H          -0.0999   10.2115    0.0007 H       1  LIG1        0.1653
     22 H          -2.0498   11.7832    0.0003 H       1  LIG1        0.0807
     23 H          -3.4476    7.6825   -0.0015 H       1  LIG1        0.0639
     24 H          -4.2928   10.2552   -0.0001 H       1  LIG1        0.0633
@<TRIPOS>BOND
     1    15    11    1
     2    23    17    1
     3    14    10    1
     4    11    10   ar
     5    11    12   ar
     6    10     9   ar
     7    17    16   ar
     8    17    18   ar
     9    12    16    1
    10    12    13   ar
    11     8     3    1
    12    16    20   ar
    13     9     4    1
    14     9    13   ar
    15     3     4   ar
    16     3     2   ar
    17    18    24    1
    18    18    19   ar
    19     4     5   ar
    20    19    20   ar
    21    19    22    1
    22    20    21    1
    23     5     1   ar
    24     2     1   ar
    25     2     7    1
    26     1     6    1
