@<TRIPOS>MOLECULE
mol_data/opt/cam/geoms/mol2/125128.out
 29 32 0 0 0
SMALL
GASTEIGER

@<TRIPOS>ATOM
      1 C           0.4562    1.6758   -0.0003 C.ar    1  LIG1        0.0926
      2 C           1.8103    1.7263    0.0003 C.ar    1  LIG1       -0.0233
      3 C           2.1574    3.1103   -0.0004 C.ar    1  LIG1       -0.0154
      4 C           0.9814    3.8013   -0.0002 C.ar    1  LIG1        0.1413
      5 O          -0.0630    2.9284   -0.0001 O.2     1  LIG1       -0.4624
      6 H          -0.2590    0.8693   -0.0004 H       1  LIG1        0.1029
      7 H           2.4843    0.8831    0.0007 H       1  LIG1        0.0649
      8 H           3.1493    3.5359   -0.0006 H       1  LIG1        0.0655
      9 C           0.6546    5.2079   -0.0002 C.ar    1  LIG1        0.0551
     10 C           1.5188    6.2733   -0.0006 C.ar    1  LIG1       -0.0433
     11 C           0.8545    7.5207   -0.0005 C.ar    1  LIG1       -0.0433
     12 C          -0.5117    7.3997   -0.0002 C.ar    1  LIG1        0.0551
     13 S          -0.9984    5.7329    0.0003 S.2     1  LIG1       -0.0821
     14 H           2.5960    6.1635   -0.0010 H       1  LIG1        0.0630
     15 H           1.3659    8.4754   -0.0008 H       1  LIG1        0.0630
     16 C          -1.4881    8.4597   -0.0001 C.ar    1  LIG1        0.1424
     17 C          -1.3858    9.8273   -0.0001 C.ar    1  LIG1       -0.0146
     18 C          -2.7104   10.3254    0.0000 C.ar    1  LIG1       -0.0120
     19 C          -3.5325    9.2350    0.0002 C.ar    1  LIG1        0.1760
     20 O          -2.7912    8.0946    0.0001 O.2     1  LIG1       -0.4511
     21 H          -0.4712   10.3999   -0.0002 H       1  LIG1        0.0656
     22 H          -3.0366   11.3539    0.0000 H       1  LIG1        0.0657
     23 C          -4.9729    9.1204    0.0005 C.ar    1  LIG1        0.2381
     24 N          -5.6598   10.2782    0.0004 N.ar    1  LIG1       -0.1226
     25 C          -7.5083    8.9853    0.0004 C.ar    1  LIG1        0.1605
     26 N          -5.5269    7.8977    0.0005 N.ar    1  LIG1       -0.1226
     27 N          -6.9644   10.2044    0.0005 N.ar    1  LIG1       -0.1338
     28 N          -6.8373    7.8358    0.0006 N.ar    1  LIG1       -0.1338
     29 H          -8.5906    8.9277    0.0009 H       1  LIG1        0.1085
@<TRIPOS>BOND
     1    14    10    1
     2    15    11    1
     3     8     3    1
     4    10    11   ar
     5    10     9   ar
     6    11    12   ar
     7     3     4   ar
     8     3     2   ar
     9     6     1    1
    10     1     5   ar
    11     1     2   ar
    12     9     4    1
    13     9    13   ar
    14     4     5   ar
    15    21    17    1
    16    12    16    1
    17    12    13   ar
    18    17    16   ar
    19    17    18   ar
    20    16    20   ar
    21    18    22    1
    22    18    19   ar
    23    20    19   ar
    24    19    23    1
    25     2     7    1
    26    24    27   ar
    27    24    23   ar
    28    25    27   ar
    29    25    28   ar
    30    25    29    1
    31    23    26   ar
    32    26    28   ar
