@<TRIPOS>MOLECULE
mol_data/opt/cam/geoms/mol2/125138-.out
 30 33 0 0 0
SMALL
GASTEIGER

@<TRIPOS>ATOM
      1 C           0.3442    1.6890    0.0010 C.ar    1  LIG1        0.0926
      2 C           1.6988    1.7027   -0.0006 C.ar    1  LIG1       -0.0233
      3 C           2.0844    3.0769   -0.0007 C.ar    1  LIG1       -0.0154
      4 C           0.9280    3.7998   -0.0002 C.ar    1  LIG1        0.1413
      5 O          -0.1405    2.9564    0.0008 O.2     1  LIG1       -0.4624
      6 H          -0.3929    0.9025    0.0019 H       1  LIG1        0.1029
      7 H           2.3495    0.8414   -0.0012 H       1  LIG1        0.0649
      8 H           3.0877    3.4749   -0.0014 H       1  LIG1        0.0655
      9 C           0.6399    5.2146   -0.0003 C.ar    1  LIG1        0.0550
     10 C           1.5209    6.2629   -0.0013 C.ar    1  LIG1       -0.0433
     11 C           0.8842    7.5273   -0.0012 C.ar    1  LIG1       -0.0448
     12 C          -0.4836    7.4463    0.0000 C.ar    1  LIG1        0.0362
     13 S          -1.0009    5.7849    0.0008 S.2     1  LIG1       -0.0837
     14 H           2.5956    6.1304   -0.0022 H       1  LIG1        0.0630
     15 H           1.4200    8.4681   -0.0019 H       1  LIG1        0.0630
     16 C          -1.4320    8.5401    0.0006 C.ar    1  LIG1        0.0537
     17 C          -1.2034    9.9135    0.0009 C.ar    1  LIG1       -0.0352
     18 C          -2.4498   10.5569    0.0016 C.ar    1  LIG1       -0.0326
     19 C          -3.4202    9.5703    0.0013 C.ar    1  LIG1        0.0880
     20 N          -2.7823    8.3553    0.0009 N.ar    1  LIG1       -0.3512
     21 H          -3.2846    7.4791    0.0006 H       1  LIG1        0.1660
     22 H          -0.2327   10.3860    0.0008 H       1  LIG1        0.0639
     23 H          -2.6456   11.6182    0.0020 H       1  LIG1        0.0640
     24 C          -4.8565    9.6445    0.0015 C.ar    1  LIG1        0.2193
     25 N          -5.5305    8.4796    0.0012 N.ar    1  LIG1       -0.1243
     26 C          -7.3995    9.7392    0.0020 C.ar    1  LIG1        0.1605
     27 N          -5.4365   10.8613    0.0021 N.ar    1  LIG1       -0.1243
     28 N          -6.8392    8.5319    0.0015 N.ar    1  LIG1       -0.1338
     29 N          -6.7421   10.9022    0.0023 N.ar    1  LIG1       -0.1338
     30 H          -8.4822    9.7839    0.0023 H       1  LIG1        0.1085
@<TRIPOS>BOND
     1    14    10    1
     2    15    11    1
     3     8     3    1
     4    10    11   ar
     5    10     9   ar
     6     7     2    1
     7    11    12   ar
     8     3     2   ar
     9     3     4   ar
    10     2     1   ar
    11     9     4    1
    12     9    13   ar
    13     4     5   ar
    14    12    16    1
    15    12    13   ar
    16    16    17   ar
    17    16    20   ar
    18    21    20    1
    19    22    17    1
    20     5     1   ar
    21    17    18   ar
    22    20    19   ar
    23     1     6    1
    24    25    28   ar
    25    25    24   ar
    26    19    24    1
    27    19    18   ar
    28    28    26   ar
    29    24    27   ar
    30    18    23    1
    31    26    29   ar
    32    26    30    1
    33    27    29   ar
