@<TRIPOS>MOLECULE
mol_data/opt/cam/geoms/mol2/1255.out
 23 25 0 0 0
SMALL
GASTEIGER

@<TRIPOS>ATOM
      1 C           0.2802    1.7205    0.0008 C.ar    1  LIG1        0.0926
      2 C           1.6348    1.7212   -0.0001 C.ar    1  LIG1       -0.0233
      3 C           2.0333    3.0919   -0.0001 C.ar    1  LIG1       -0.0154
      4 C           0.8841    3.8262   -0.0001 C.ar    1  LIG1        0.1413
      5 O          -0.1922    2.9926    0.0004 O.2     1  LIG1       -0.4624
      6 H          -0.4646    0.9413    0.0013 H       1  LIG1        0.1029
      7 H           2.2772    0.8536   -0.0002 H       1  LIG1        0.0649
      8 H           3.0403    3.4805   -0.0004 H       1  LIG1        0.0655
      9 C           0.6102    5.2443   -0.0004 C.ar    1  LIG1        0.0550
     10 C           1.5053    6.2803   -0.0011 C.ar    1  LIG1       -0.0434
     11 C           0.8839    7.5521   -0.0012 C.ar    1  LIG1       -0.0457
     12 C          -0.4857    7.4908   -0.0006 C.ar    1  LIG1        0.0266
     13 S          -1.0220    5.8354   -0.0001 S.2     1  LIG1       -0.0847
     14 H           2.5785    6.1350   -0.0014 H       1  LIG1        0.0630
     15 H           1.4341    8.4845   -0.0017 H       1  LIG1        0.0629
     16 C          -1.4203    8.6053   -0.0005 C.ar    1  LIG1        0.0259
     17 C          -1.1227    9.9431   -0.0001 C.ar    1  LIG1       -0.0464
     18 C          -2.2740   10.7767   -0.0000 C.ar    1  LIG1       -0.0541
     19 C          -3.4360   10.0696   -0.0004 C.ar    1  LIG1       -0.0237
     20 S          -3.1449    8.3711   -0.0012 S.2     1  LIG1       -0.0961
     21 H          -4.4493   10.4436   -0.0004 H       1  LIG1        0.0693
     22 H          -0.1087   10.3226    0.0004 H       1  LIG1        0.0629
     23 H          -2.2335   11.8589    0.0004 H       1  LIG1        0.0623
@<TRIPOS>BOND
     1    15    11    1
     2    14    10    1
     3    11    10   ar
     4    11    12   ar
     5    20    16   ar
     6    20    19   ar
     7    10     9   ar
     8    12    16    1
     9    12    13   ar
    10    16    17   ar
    11     9     4    1
    12     9    13   ar
    13    19    21    1
    14    19    18   ar
    15     8     3    1
    16     7     2    1
    17     4     3   ar
    18     4     5   ar
    19     3     2   ar
    20    17    18   ar
    21    17    22    1
    22     2     1   ar
    23    18    23    1
    24     5     1   ar
    25     1     6    1
