@<TRIPOS>MOLECULE
mol_data/opt/cam/geoms/mol2/1258-5-.out
 29 32 0 0 0
SMALL
GASTEIGER

@<TRIPOS>ATOM
      1 C           0.3232    1.7002    0.0002 C.ar    1  LIG1        0.0926
      2 C           1.6785    1.7201   -0.0006 C.ar    1  LIG1       -0.0233
      3 C           2.0558    3.0956   -0.0003 C.ar    1  LIG1       -0.0154
      4 C           0.8954    3.8127   -0.0003 C.ar    1  LIG1        0.1413
      5 O          -0.1683    2.9630    0.0000 O.2     1  LIG1       -0.4624
      6 H          -0.4093    0.9092    0.0006 H       1  LIG1        0.1029
      7 H           2.3334    0.8621   -0.0010 H       1  LIG1        0.0649
      8 H           3.0569    3.4992   -0.0005 H       1  LIG1        0.0655
      9 C           0.6023    5.2264   -0.0003 C.ar    1  LIG1        0.0551
     10 C           1.4999    6.2672   -0.0007 C.ar    1  LIG1       -0.0433
     11 C           0.8709    7.5305   -0.0006 C.ar    1  LIG1       -0.0431
     12 C          -0.4971    7.4412   -0.0001 C.ar    1  LIG1        0.0605
     13 S          -1.0352    5.7918    0.0000 S.2     1  LIG1       -0.0820
     14 H           2.5733    6.1261   -0.0010 H       1  LIG1        0.0630
     15 H           1.3883    8.4809   -0.0007 H       1  LIG1        0.0630
     16 C          -1.4464    8.5354    0.0002 C.ar    1  LIG1        0.2099
     17 N          -2.7557    8.2327    0.0006 N.ar    1  LIG1       -0.1247
     18 C          -3.1341   10.4663    0.0007 C.ar    1  LIG1        0.2099
     19 N          -0.9653    9.7904    0.0001 N.ar    1  LIG1       -0.1247
     20 N          -3.6151    9.2125    0.0009 N.ar    1  LIG1       -0.1247
     21 N          -1.8256   10.7691    0.0003 N.ar    1  LIG1       -0.1247
     22 C          -4.0859   11.5627    0.0010 C.ar    1  LIG1        0.0598
     23 C          -5.4523   11.4740    0.0015 C.ar    1  LIG1       -0.0438
     24 C          -6.0809   12.7456    0.0015 C.ar    1  LIG1       -0.0540
     25 C          -5.1796   13.7697    0.0011 C.ar    1  LIG1       -0.0236
     26 S          -3.5532   13.2130    0.0010 S.2     1  LIG1       -0.0934
     27 H          -5.3847   14.8309    0.0009 H       1  LIG1        0.0693
     28 H          -5.9695   10.5235    0.0017 H       1  LIG1        0.0630
     29 H          -7.1536   12.8906    0.0018 H       1  LIG1        0.0623
@<TRIPOS>BOND
     1     7     2    1
     2    14    10    1
     3    15    11    1
     4    10    11   ar
     5    10     9   ar
     6     2     3   ar
     7     2     1   ar
     8    11    12   ar
     9     8     3    1
    10     9     4    1
    11     9    13   ar
    12     3     4   ar
    13     4     5   ar
    14    12    13   ar
    15    12    16    1
    16     5     1   ar
    17    19    16   ar
    18    19    21   ar
    19    16    17   ar
    20     1     6    1
    21    21    18   ar
    22    17    20   ar
    23    18    20   ar
    24    18    22    1
    25    27    25    1
    26    26    22   ar
    27    26    25   ar
    28    22    23   ar
    29    25    24   ar
    30    23    24   ar
    31    23    28    1
    32    24    29    1
