@<TRIPOS>MOLECULE
mol_data/opt/cam/geoms/mol2/128-84-.out
 31 34 0 0 0
SMALL
GASTEIGER

@<TRIPOS>ATOM
      1 C           0.3010    1.7137    0.0001 C.ar    1  LIG1        0.0927
      2 C           1.6586    1.7954    0.0007 C.ar    1  LIG1       -0.0232
      3 C           1.9654    3.1829    0.0004 C.ar    1  LIG1       -0.0126
      4 C           0.7664    3.8351    0.0001 C.ar    1  LIG1        0.1751
      5 O          -0.2560    2.9405   -0.0001 O.2     1  LIG1       -0.4597
      6 H          -0.3887    0.8845   -0.0001 H       1  LIG1        0.1029
      7 H           2.3525    0.9688    0.0011 H       1  LIG1        0.0649
      8 H           2.9358    3.6547    0.0006 H       1  LIG1        0.0656
      9 C           0.4458    5.2449   -0.0001 C.ar    1  LIG1        0.2381
     10 N          -0.8424    5.6209   -0.0004 N.ar    1  LIG1       -0.1219
     11 C          -0.0550    7.7442   -0.0004 C.ar    1  LIG1        0.2435
     12 N           1.4894    6.0940    0.0001 N.ar    1  LIG1       -0.1219
     13 N          -1.0934    6.9042   -0.0006 N.ar    1  LIG1       -0.1217
     14 N           1.2312    7.3711   -0.0001 N.ar    1  LIG1       -0.1217
     15 C          -0.3469    9.2008   -0.0006 C.ar    1  LIG1        0.2435
     16 N           0.6922   10.0412   -0.0006 N.ar    1  LIG1       -0.1218
     17 C          -0.8498   11.7123   -0.0009 C.ar    1  LIG1        0.2034
     18 N          -1.6296    9.5761   -0.0008 N.ar    1  LIG1       -0.1218
     19 N           0.4346   11.3212   -0.0008 N.ar    1  LIG1       -0.1251
     20 N          -1.8847   10.8564   -0.0009 N.ar    1  LIG1       -0.1251
     21 C          -2.4627   13.6058   -0.0013 C.ar    1  LIG1       -0.0509
     22 C          -2.7312   14.9663   -0.0015 C.ar    1  LIG1       -0.0611
     23 C          -1.1393   13.1560   -0.0011 C.ar    1  LIG1        0.0226
     24 C          -1.6866   15.8850   -0.0015 C.ar    1  LIG1       -0.0617
     25 H          -3.7597   15.3113   -0.0016 H       1  LIG1        0.0618
     26 C          -0.0917   14.0813   -0.0011 C.ar    1  LIG1       -0.0509
     27 C          -0.3684   15.4401   -0.0013 C.ar    1  LIG1       -0.0611
     28 H           0.9302   13.7223   -0.0009 H       1  LIG1        0.0625
     29 H          -1.9000   16.9491   -0.0016 H       1  LIG1        0.0618
     30 H          -3.2672   12.8805   -0.0013 H       1  LIG1        0.0625
     31 H           0.4475   16.1550   -0.0012 H       1  LIG1        0.0618
@<TRIPOS>BOND
     1    25    22    1
     2    29    24    1
     3    22    24   ar
     4    22    21   ar
     5    24    27   ar
     6    30    21    1
     7    21    23   ar
     8    27    31    1
     9    27    26   ar
    10    23    26   ar
    11    23    17    1
    12    26    28    1
    13    17    20   ar
    14    17    19   ar
    15    20    18   ar
    16    19    16   ar
    17    18    15   ar
    18    15    16   ar
    19    15    11    1
    20    13    10   ar
    21    13    11   ar
    22    10     9   ar
    23    11    14   ar
    24     6     1    1
    25     9    12   ar
    26     9     4    1
    27     5     1   ar
    28     5     4   ar
    29    14    12   ar
    30     1     2   ar
    31     4     3   ar
    32     3     8    1
    33     3     2   ar
    34     2     7    1
