@<TRIPOS>MOLECULE
mol_data/opt/cam/geoms/mol2/128-5-.out
 22 24 0 0 0
SMALL
GASTEIGER

@<TRIPOS>ATOM
      1 C           0.2863    1.7417   -0.0002 C.ar    1  LIG1        0.0927
      2 C           1.6428    1.8217   -0.0000 C.ar    1  LIG1       -0.0232
      3 C           1.9523    3.2105   -0.0002 C.ar    1  LIG1       -0.0126
      4 C           0.7554    3.8639   -0.0001 C.ar    1  LIG1        0.1751
      5 O          -0.2683    2.9717   -0.0000 O.2     1  LIG1       -0.4597
      6 H          -0.4056    0.9144   -0.0002 H       1  LIG1        0.1029
      7 H           2.3358    0.9943    0.0001 H       1  LIG1        0.0649
      8 H           2.9237    3.6801   -0.0002 H       1  LIG1        0.0656
      9 C           0.4337    5.2773   -0.0000 C.ar    1  LIG1        0.2381
     10 N          -0.8545    5.6523    0.0001 N.ar    1  LIG1       -0.1220
     11 C          -0.0751    7.7849    0.0001 C.ar    1  LIG1        0.2099
     12 N           1.4737    6.1271   -0.0001 N.ar    1  LIG1       -0.1220
     13 N          -1.1120    6.9325    0.0002 N.ar    1  LIG1       -0.1246
     14 N           1.2130    7.4031   -0.0000 N.ar    1  LIG1       -0.1246
     15 C          -0.3616    9.2082    0.0002 C.ar    1  LIG1        0.0598
     16 C          -1.5937    9.8055    0.0003 C.ar    1  LIG1       -0.0438
     17 C          -1.5127   11.2217    0.0004 C.ar    1  LIG1       -0.0540
     18 C          -0.2231   11.6671    0.0003 C.ar    1  LIG1       -0.0236
     19 S           0.9166   10.3805    0.0000 S.2     1  LIG1       -0.0934
     20 H           0.1226   12.6912    0.0004 H       1  LIG1        0.0693
     21 H          -2.5125    9.2338    0.0003 H       1  LIG1        0.0630
     22 H          -2.3739   11.8775    0.0005 H       1  LIG1        0.0623
@<TRIPOS>BOND
     1     8     3    1
     2     6     1    1
     3     1     5   ar
     4     1     2   ar
     5     3     4   ar
     6     3     2   ar
     7    12    14   ar
     8    12     9   ar
     9     4     9    1
    10     4     5   ar
    11    14    11   ar
    12     9    10   ar
    13     2     7    1
    14    19    15   ar
    15    19    18   ar
    16    11    15    1
    17    11    13   ar
    18    10    13   ar
    19    15    16   ar
    20    16    21    1
    21    16    17   ar
    22    18    17   ar
    23    18    20    1
    24    17    22    1
