@<TRIPOS>MOLECULE
mol_data/opt/cam/geoms/mol2/128-4-4.out
 35 38 0 0 0
SMALL
GASTEIGER

@<TRIPOS>ATOM
      1 C           0.3447    1.6481   -0.2165 C.ar    1  LIG1        0.0927
      2 C           1.6637    1.7189    0.1017 C.ar    1  LIG1       -0.0232
      3 C           1.9590    3.1041    0.2384 C.ar    1  LIG1       -0.0126
      4 C           0.7922    3.7650   -0.0085 C.ar    1  LIG1        0.1751
      5 O          -0.1998    2.8807   -0.2877 O.2     1  LIG1       -0.4597
      6 H          -0.3250    0.8265   -0.4156 H       1  LIG1        0.1029
      7 H           2.3413    0.8877    0.2238 H       1  LIG1        0.0649
      8 H           2.9019    3.5663    0.4856 H       1  LIG1        0.0656
      9 C           0.4741    5.1794   -0.0163 C.ar    1  LIG1        0.2381
     10 N          -0.7775    5.5653   -0.2985 N.ar    1  LIG1       -0.1220
     11 C          -0.0266    7.6960   -0.0135 C.ar    1  LIG1        0.2034
     12 N           1.4828    6.0200    0.2669 N.ar    1  LIG1       -0.1220
     13 N          -1.0266    6.8484   -0.2951 N.ar    1  LIG1       -0.1251
     14 N           1.2260    7.2971    0.2672 N.ar    1  LIG1       -0.1251
     15 C          -1.5980    9.6060   -0.3054 C.ar    1  LIG1       -0.0504
     16 C          -1.8647   10.9646   -0.3028 C.ar    1  LIG1       -0.0534
     17 C          -0.3143    9.1403   -0.0112 C.ar    1  LIG1        0.0227
     18 C          -0.8652   11.8974   -0.0064 C.ar    1  LIG1       -0.0178
     19 H          -2.8601   11.3121   -0.5582 H       1  LIG1        0.0624
     20 C           0.6919   10.0625    0.2854 C.ar    1  LIG1       -0.0504
     21 C           0.4161   11.4195    0.2876 C.ar    1  LIG1       -0.0534
     22 H           1.6859    9.7025    0.5215 H       1  LIG1        0.0625
     23 H          -2.3771    8.8920   -0.5433 H       1  LIG1        0.0625
     24 H           1.2017   12.1219    0.5448 H       1  LIG1        0.0624
     25 C          -0.2200   14.2691   -0.4896 C.ar    1  LIG1       -0.0540
     26 C          -0.4920   15.6306   -0.4873 C.ar    1  LIG1       -0.0612
     27 C          -1.1557   13.3512   -0.0034 C.ar    1  LIG1       -0.0179
     28 C          -1.7051   16.1007    0.0022 C.ar    1  LIG1       -0.0617
     29 H           0.2441   16.3265   -0.8767 H       1  LIG1        0.0618
     30 C          -2.3720   13.8371    0.4856 C.ar    1  LIG1       -0.0540
     31 C          -2.6442   15.1985    0.4888 C.ar    1  LIG1       -0.0612
     32 H          -3.1010   13.1419    0.8891 H       1  LIG1        0.0624
     33 H          -1.9177   17.1647    0.0044 H       1  LIG1        0.0618
     34 H           0.7197   13.9090   -0.8955 H       1  LIG1        0.0624
     35 H          -3.5909   15.5565    0.8804 H       1  LIG1        0.0618
@<TRIPOS>BOND
     1    34    25    1
     2    29    26    1
     3    19    16    1
     4    23    15    1
     5    25    26   ar
     6    25    27   ar
     7    26    28   ar
     8     6     1    1
     9    15    16   ar
    10    15    17   ar
    11    16    18   ar
    12    10    13   ar
    13    10     9   ar
    14    13    11   ar
    15     5     1   ar
    16     5     4   ar
    17     1     2   ar
    18     9     4    1
    19     9    12   ar
    20    11    17    1
    21    11    14   ar
    22    17    20   ar
    23     4     3   ar
    24    18    27    1
    25    18    21   ar
    26    27    30   ar
    27    28    33    1
    28    28    31   ar
    29     2     7    1
    30     2     3   ar
    31     3     8    1
    32    12    14   ar
    33    20    21   ar
    34    20    22    1
    35    21    24    1
    36    30    31   ar
    37    30    32    1
    38    31    35    1
