@<TRIPOS>MOLECULE
mol_data/opt/cam/geoms/mol2/128-54-.out
 32 35 0 0 0
SMALL
GASTEIGER

@<TRIPOS>ATOM
      1 C           0.3568    1.6764    0.2865 C.ar    1  LIG1        0.0927
      2 C           1.6965    1.7429    0.0705 C.ar    1  LIG1       -0.0232
      3 C           2.0021    3.1257   -0.0685 C.ar    1  LIG1       -0.0126
      4 C           0.8197    3.7897    0.0747 C.ar    1  LIG1        0.1751
      5 O          -0.1911    2.9097    0.2921 O.2     1  LIG1       -0.4597
      6 H          -0.3267    0.8580    0.4481 H       1  LIG1        0.1029
      7 H           2.3813    0.9104    0.0171 H       1  LIG1        0.0649
      8 H           2.9616    3.5843   -0.2499 H       1  LIG1        0.0656
      9 C           0.5015    5.2033    0.0320 C.ar    1  LIG1        0.2381
     10 N          -0.7684    5.5920    0.2070 N.ar    1  LIG1       -0.1220
     11 C           0.0071    7.7128   -0.0560 C.ar    1  LIG1        0.2099
     12 N           1.5319    6.0404   -0.1863 N.ar    1  LIG1       -0.1220
     13 N          -1.0165    6.8742    0.1608 N.ar    1  LIG1       -0.1246
     14 N           1.2822    7.3166   -0.2306 N.ar    1  LIG1       -0.1246
     15 C          -0.2744    9.1340   -0.1043 C.ar    1  LIG1        0.0604
     16 C           0.6181   10.1507   -0.3184 C.ar    1  LIG1       -0.0432
     17 C           0.0062   11.4249   -0.3054 C.ar    1  LIG1       -0.0462
     18 C          -1.3472   11.3743   -0.0818 C.ar    1  LIG1        0.0200
     19 S          -1.8832    9.7373    0.1252 S.2     1  LIG1       -0.0850
     20 H           1.6715    9.9693   -0.4872 H       1  LIG1        0.0630
     21 H           0.5398   12.3496   -0.4847 H       1  LIG1        0.0629
     22 C          -3.6275   12.3561   -0.3818 C.ar    1  LIG1       -0.0535
     23 C          -4.5019   13.4314   -0.3103 C.ar    1  LIG1       -0.0612
     24 C          -2.2881   12.5000   -0.0057 C.ar    1  LIG1       -0.0113
     25 C          -4.0535   14.6709    0.1311 C.ar    1  LIG1       -0.0617
     26 H          -5.5369   13.3013   -0.6089 H       1  LIG1        0.0618
     27 C          -1.8499   13.7500    0.4455 C.ar    1  LIG1       -0.0535
     28 C          -2.7237   14.8256    0.5073 C.ar    1  LIG1       -0.0612
     29 H          -0.8215   13.8701    0.7691 H       1  LIG1        0.0624
     30 H          -4.7372   15.5116    0.1843 H       1  LIG1        0.0618
     31 H          -3.9820   11.3991   -0.7512 H       1  LIG1        0.0624
     32 H          -2.3667   15.7871    0.8618 H       1  LIG1        0.0618
@<TRIPOS>BOND
     1    31    22    1
     2    26    23    1
     3    20    16    1
     4    21    17    1
     5    22    23   ar
     6    22    24   ar
     7    16    17   ar
     8    16    15   ar
     9    23    25   ar
    10    17    18   ar
    11     8     3    1
    12    14    12   ar
    13    14    11   ar
    14    12     9   ar
    15    15    11    1
    16    15    19   ar
    17    18    24    1
    18    18    19   ar
    19     3     2   ar
    20     3     4   ar
    21    11    13   ar
    22    24    27   ar
    23     7     2    1
    24     9     4    1
    25     9    10   ar
    26     2     1   ar
    27     4     5   ar
    28    25    30    1
    29    25    28   ar
    30    13    10   ar
    31     1     5   ar
    32     1     6    1
    33    27    28   ar
    34    27    29    1
    35    28    32    1
