@<TRIPOS>MOLECULE
mol_data/opt/cam/geoms/mol2/128-12-.out
 22 24 0 0 0
SMALL
GASTEIGER

@<TRIPOS>ATOM
      1 C           0.2225    1.7775   -0.0002 C.ar    1  LIG1        0.0927
      2 C           1.5807    1.8178    0.0001 C.ar    1  LIG1       -0.0232
      3 C           1.9307    3.1970   -0.0001 C.ar    1  LIG1       -0.0126
      4 C           0.7535    3.8852   -0.0001 C.ar    1  LIG1        0.1751
      5 O          -0.2960    3.0231   -0.0001 O.2     1  LIG1       -0.4597
      6 H          -0.4933    0.9707   -0.0002 H       1  LIG1        0.1029
      7 H           2.2492    0.9705    0.0003 H       1  LIG1        0.0649
      8 H           2.9152    3.6383   -0.0001 H       1  LIG1        0.0656
      9 C           0.4737    5.3075   -0.0001 C.ar    1  LIG1        0.2381
     10 N          -0.8039    5.7197   -0.0000 N.ar    1  LIG1       -0.1219
     11 C           0.0445    7.8248   -0.0000 C.ar    1  LIG1        0.2381
     12 N           1.5380    6.1258   -0.0001 N.ar    1  LIG1       -0.1219
     13 N          -1.0198    7.0065   -0.0000 N.ar    1  LIG1       -0.1219
     14 N           1.3221    7.4125   -0.0001 N.ar    1  LIG1       -0.1219
     15 C          -0.2353    9.2471   -0.0001 C.ar    1  LIG1        0.1751
     16 C          -1.4125    9.9353   -0.0001 C.ar    1  LIG1       -0.0126
     17 C          -1.0624   11.3145   -0.0001 C.ar    1  LIG1       -0.0232
     18 C           0.2959   11.3548   -0.0001 C.ar    1  LIG1        0.0927
     19 O           0.8143   10.1091   -0.0001 O.2     1  LIG1       -0.4597
     20 H           1.0117   12.1615   -0.0000 H       1  LIG1        0.1029
     21 H          -2.3970    9.4941   -0.0001 H       1  LIG1        0.0656
     22 H          -1.7309   12.1618   -0.0001 H       1  LIG1        0.0649
@<TRIPOS>BOND
     1     6     1    1
     2     1     5   ar
     3     1     2   ar
     4    19    15   ar
     5    19    18   ar
     6    21    16    1
     7    16    17   ar
     8    16    15   ar
     9    22    17    1
    10    17    18   ar
    11     3     8    1
    12     3     4   ar
    13     3     2   ar
    14    12     9   ar
    15    12    14   ar
    16     5     4   ar
    17     9     4    1
    18     9    10   ar
    19    15    11    1
    20    14    11   ar
    21    18    20    1
    22    10    13   ar
    23    13    11   ar
    24     2     7    1
