@<TRIPOS>MOLECULE
mol_data/opt/cam/geoms/mol2/128-512-.out
 29 32 0 0 0
SMALL
GASTEIGER

@<TRIPOS>ATOM
      1 C           0.3010    1.7047    0.0001 C.ar    1  LIG1        0.0927
      2 C           1.6579    1.7733    0.0000 C.ar    1  LIG1       -0.0232
      3 C           1.9794    3.1595   -0.0004 C.ar    1  LIG1       -0.0126
      4 C           0.7882    3.8232   -0.0001 C.ar    1  LIG1        0.1751
      5 O          -0.2429    2.9398    0.0002 O.2     1  LIG1       -0.4597
      6 H          -0.3981    0.8835    0.0002 H       1  LIG1        0.1029
      7 H           2.3439    0.9401    0.0001 H       1  LIG1        0.0649
      8 H           2.9547    3.6205   -0.0006 H       1  LIG1        0.0656
      9 C           0.4786    5.2392   -0.0001 C.ar    1  LIG1        0.2381
     10 N          -0.8036    5.6272    0.0002 N.ar    1  LIG1       -0.1220
     11 C           0.0013    7.7535   -0.0002 C.ar    1  LIG1        0.2099
     12 N           1.5296    6.0797   -0.0004 N.ar    1  LIG1       -0.1220
     13 N          -1.0428    6.9119    0.0001 N.ar    1  LIG1       -0.1246
     14 N           1.2889    7.3582   -0.0004 N.ar    1  LIG1       -0.1246
     15 C          -0.2718    9.1759   -0.0002 C.ar    1  LIG1        0.0605
     16 C           0.6383   10.1998   -0.0005 C.ar    1  LIG1       -0.0431
     17 C           0.0301   11.4749   -0.0005 C.ar    1  LIG1       -0.0433
     18 C          -1.3414   11.4078   -0.0002 C.ar    1  LIG1        0.0551
     19 S          -1.9040    9.7689    0.0001 S.2     1  LIG1       -0.0820
     20 H           1.7057   10.0225   -0.0008 H       1  LIG1        0.0630
     21 H           0.5690   12.4128   -0.0007 H       1  LIG1        0.0630
     22 C          -2.2678   12.5153   -0.0000 C.ar    1  LIG1        0.1413
     23 C          -3.6282   12.6104    0.0001 C.ar    1  LIG1       -0.0154
     24 C          -3.9348   14.0034    0.0002 C.ar    1  LIG1       -0.0233
     25 C          -2.7439   14.6502    0.0001 C.ar    1  LIG1        0.0926
     26 O          -1.7198   13.7625   -0.0000 O.2     1  LIG1       -0.4624
     27 H          -2.4644   15.6915    0.0001 H       1  LIG1        0.1029
     28 H          -4.3269   11.7870    0.0001 H       1  LIG1        0.0655
     29 H          -4.9136   14.4583    0.0003 H       1  LIG1        0.0649
@<TRIPOS>BOND
     1    20    16    1
     2    21    17    1
     3     8     3    1
     4    16    17   ar
     5    16    15   ar
     6    17    18   ar
     7    14    12   ar
     8    14    11   ar
     9    12     9   ar
    10     3     4   ar
    11     3     2   ar
    12    15    11    1
    13    15    19   ar
    14    11    13   ar
    15    18    22    1
    16    18    19   ar
    17     9     4    1
    18     9    10   ar
    19     4     5   ar
    20    26    22   ar
    21    26    25   ar
    22    22    23   ar
    23     2     1   ar
    24     2     7    1
    25     1     5   ar
    26     1     6    1
    27    25    27    1
    28    25    24   ar
    29    23    28    1
    30    23    24   ar
    31    13    10   ar
    32    24    29    1
