@<TRIPOS>MOLECULE
mol_data/opt/cam/geoms/mol2/128-124.out
 32 35 0 0 0
SMALL
GASTEIGER

@<TRIPOS>ATOM
      1 C           0.5310    1.6412   -0.0001 C.ar    1  LIG1        0.0927
      2 C           1.8814    1.7902   -0.0005 C.ar    1  LIG1       -0.0232
      3 C           2.1199    3.1931   -0.0004 C.ar    1  LIG1       -0.0126
      4 C           0.8914    3.7850   -0.0002 C.ar    1  LIG1        0.1751
      5 O          -0.0853    2.8417    0.0000 O.2     1  LIG1       -0.4597
      6 H          -0.1180    0.7799    0.0000 H       1  LIG1        0.1029
      7 H           2.6157    0.9992   -0.0008 H       1  LIG1        0.0649
      8 H           3.0661    3.7113   -0.0006 H       1  LIG1        0.0656
      9 C           0.4989    5.1804   -0.0001 C.ar    1  LIG1        0.2381
     10 N          -0.8031    5.4927    0.0002 N.ar    1  LIG1       -0.1219
     11 C          -0.1273    7.6567    0.0001 C.ar    1  LIG1        0.2381
     12 N           1.5003    6.0804   -0.0003 N.ar    1  LIG1       -0.1219
     13 N          -1.1248    6.7618    0.0003 N.ar    1  LIG1       -0.1219
     14 N           1.1822    7.3408   -0.0002 N.ar    1  LIG1       -0.1219
     15 C          -0.4473    9.0671    0.0002 C.ar    1  LIG1        0.1760
     16 C           0.3453   10.1782    0.0000 C.ar    1  LIG1       -0.0120
     17 C          -0.5338   11.2895    0.0003 C.ar    1  LIG1       -0.0151
     18 C          -1.8063   10.7833    0.0005 C.ar    1  LIG1        0.1358
     19 O          -1.7554    9.4292    0.0005 O.2     1  LIG1       -0.4516
     20 H           1.4242   10.1793   -0.0002 H       1  LIG1        0.0657
     21 H          -0.2581   12.3327    0.0002 H       1  LIG1        0.0656
     22 C          -3.2674   12.7863    0.0009 C.ar    1  LIG1       -0.0511
     23 C          -4.5262   13.3670    0.0012 C.ar    1  LIG1       -0.0611
     24 C          -3.1304   11.3946    0.0008 C.ar    1  LIG1        0.0173
     25 C          -5.6656   12.5686    0.0014 C.ar    1  LIG1       -0.0617
     26 H          -4.6189   14.4480    0.0013 H       1  LIG1        0.0618
     27 C          -4.2789   10.5972    0.0010 C.ar    1  LIG1       -0.0511
     28 C          -5.5361   11.1843    0.0013 C.ar    1  LIG1       -0.0611
     29 H          -4.1757    9.5184    0.0009 H       1  LIG1        0.0625
     30 H          -6.6501   13.0245    0.0016 H       1  LIG1        0.0618
     31 H          -2.3845   13.4169    0.0008 H       1  LIG1        0.0625
     32 H          -6.4202   10.5554    0.0014 H       1  LIG1        0.0618
@<TRIPOS>BOND
     1     7     2    1
     2     8     3    1
     3     2     3   ar
     4     2     1   ar
     5     3     4   ar
     6    12    14   ar
     7    12     9   ar
     8    14    11   ar
     9    20    16    1
    10     4     9    1
    11     4     5   ar
    12     1     6    1
    13     1     5   ar
    14     9    10   ar
    15    16    15   ar
    16    16    17   ar
    17    11    15    1
    18    11    13   ar
    19    10    13   ar
    20    15    19   ar
    21    21    17    1
    22    17    18   ar
    23    19    18   ar
    24    18    24    1
    25    31    22    1
    26    24    22   ar
    27    24    27   ar
    28    29    27    1
    29    22    23   ar
    30    27    28   ar
    31    23    26    1
    32    23    25   ar
    33    28    25   ar
    34    28    32    1
    35    25    30    1
