@<TRIPOS>MOLECULE
mol_data/opt/cam/geoms/mol2/128-13.out
 23 25 0 0 0
SMALL
GASTEIGER

@<TRIPOS>ATOM
      1 C           0.2534    1.7576   -0.0002 C.ar    1  LIG1        0.0927
      2 C           1.6103    1.8176   -0.0002 C.ar    1  LIG1       -0.0232
      3 C           1.9410    3.2023   -0.0001 C.ar    1  LIG1       -0.0126
      4 C           0.7545    3.8735   -0.0001 C.ar    1  LIG1        0.1751
      5 O          -0.2826    2.9969   -0.0002 O.2     1  LIG1       -0.4597
      6 H          -0.4511    0.9410   -0.0003 H       1  LIG1        0.1029
      7 H           2.2910    0.9800   -0.0002 H       1  LIG1        0.0649
      8 H           2.9193    3.6569   -0.0000 H       1  LIG1        0.0656
      9 C           0.4540    5.2926    0.0000 C.ar    1  LIG1        0.2381
     10 N          -0.8240    5.6897   -0.0000 N.ar    1  LIG1       -0.1220
     11 C          -0.0003    7.8118    0.0001 C.ar    1  LIG1        0.2194
     12 N           1.5121    6.1255    0.0001 N.ar    1  LIG1       -0.1220
     13 N          -1.0522    6.9776    0.0000 N.ar    1  LIG1       -0.1236
     14 N           1.2854    7.4057    0.0002 N.ar    1  LIG1       -0.1236
     15 C          -0.2772    9.2265    0.0002 C.ar    1  LIG1        0.0875
     16 C           0.5594   10.3265    0.0003 C.ar    1  LIG1       -0.0333
     17 C          -0.2618   11.4731    0.0003 C.ar    1  LIG1       -0.0437
     18 C          -1.5724   11.0412    0.0003 C.ar    1  LIG1        0.0023
     19 N          -1.5714    9.6835    0.0002 N.ar    1  LIG1       -0.3582
     20 H          -2.3690    9.0663    0.0002 H       1  LIG1        0.1654
     21 H          -2.4954   11.6007    0.0003 H       1  LIG1        0.0807
     22 H           1.6379   10.2850    0.0003 H       1  LIG1        0.0640
     23 H           0.0634   12.5027    0.0004 H       1  LIG1        0.0633
@<TRIPOS>BOND
     1     6     1    1
     2     1     5   ar
     3     1     2   ar
     4     7     2    1
     5     5     4   ar
     6     2     3   ar
     7     3     4   ar
     8     3     8    1
     9     4     9    1
    10    10     9   ar
    11    10    13   ar
    12     9    12   ar
    13    13    11   ar
    14    12    14   ar
    15    11    14   ar
    16    11    15    1
    17    20    19    1
    18    15    19   ar
    19    15    16   ar
    20    19    18   ar
    21    18    21    1
    22    18    17   ar
    23    16    17   ar
    24    16    22    1
    25    17    23    1
