@<TRIPOS>MOLECULE
mol_data/opt/cam/geoms/mol2/128-12-8-.out
 28 31 0 0 0
SMALL
GASTEIGER

@<TRIPOS>ATOM
      1 C           0.1146    1.7052   -0.0002 C.ar    1  LIG1        0.0927
      2 C           1.4739    1.7079    0.0002 C.ar    1  LIG1       -0.0232
      3 C           1.8617    3.0760   -0.0001 C.ar    1  LIG1       -0.0126
      4 C           0.7033    3.7967   -0.0001 C.ar    1  LIG1        0.1751
      5 O          -0.3697    2.9637   -0.0001 O.2     1  LIG1       -0.4597
      6 H          -0.6228    0.9180   -0.0003 H       1  LIG1        0.1029
      7 H           2.1187    0.8424    0.0003 H       1  LIG1        0.0649
      8 H           2.8580    3.4900   -0.0001 H       1  LIG1        0.0656
      9 C           0.4641    5.2244   -0.0001 C.ar    1  LIG1        0.2381
     10 N          -0.8019    5.6729   -0.0001 N.ar    1  LIG1       -0.1219
     11 C           0.1083    7.7497   -0.0001 C.ar    1  LIG1        0.2381
     12 N           1.5528    6.0125   -0.0001 N.ar    1  LIG1       -0.1219
     13 N          -0.9791    6.9657   -0.0001 N.ar    1  LIG1       -0.1219
     14 N           1.3732    7.3040   -0.0001 N.ar    1  LIG1       -0.1219
     15 C          -0.1342    9.1818   -0.0001 C.ar    1  LIG1        0.1761
     16 C          -1.3018    9.8936   -0.0001 C.ar    1  LIG1       -0.0119
     17 C          -0.9262   11.2580   -0.0001 C.ar    1  LIG1       -0.0119
     18 C           0.4408   11.2731   -0.0001 C.ar    1  LIG1        0.1761
     19 O           0.9312   10.0125   -0.0001 O.2     1  LIG1       -0.4483
     20 H          -2.2943    9.4712   -0.0001 H       1  LIG1        0.0657
     21 H          -1.5636   12.1284   -0.0000 H       1  LIG1        0.0657
     22 C           1.3811   12.3789   -0.0001 C.ar    1  LIG1        0.2381
     23 N           0.8412   13.6090   -0.0000 N.ar    1  LIG1       -0.1226
     24 C           2.9688   14.3559    0.0001 C.ar    1  LIG1        0.1605
     25 N           2.6944   12.1130   -0.0001 N.ar    1  LIG1       -0.1226
     26 N           1.6622   14.6269   -0.0000 N.ar    1  LIG1       -0.1338
     27 N           3.5109   13.1400   -0.0001 N.ar    1  LIG1       -0.1338
     28 H           3.6479   15.2007   -0.0001 H       1  LIG1        0.1085
@<TRIPOS>BOND
     1     6     1    1
     2     1     5   ar
     3     1     2   ar
     4    28    24    1
     5    25    22   ar
     6    25    27   ar
     7    22    18    1
     8    22    23   ar
     9    19    18   ar
    10    19    15   ar
    11    20    16    1
    12    18    17   ar
    13    16    15   ar
    14    16    17   ar
    15    27    24   ar
    16     3     8    1
    17     3     4   ar
    18     3     2   ar
    19    12     9   ar
    20    12    14   ar
    21     5     4   ar
    22    15    11    1
    23     9     4    1
    24     9    10   ar
    25    17    21    1
    26    14    11   ar
    27    13    11   ar
    28    13    10   ar
    29    23    26   ar
    30    26    24   ar
    31     2     7    1
