@<TRIPOS>MOLECULE
mol_data/opt/cam/geoms/mol2/128-.out
 15 16 0 0 0
SMALL
GASTEIGER

@<TRIPOS>ATOM
      1 C           0.2312    1.7986   -0.0000 C.ar    1  LIG1        0.0927
      2 C           1.5899    1.8426   -0.0000 C.ar    1  LIG1       -0.0232
      3 C           1.9353    3.2222    0.0000 C.ar    1  LIG1       -0.0126
      4 C           0.7558    3.9067   -0.0000 C.ar    1  LIG1        0.1751
      5 O          -0.2911    3.0415   -0.0001 O.2     1  LIG1       -0.4597
      6 H          -0.4817    0.9893   -0.0000 H       1  LIG1        0.1029
      7 H           2.2608    0.9972   -0.0000 H       1  LIG1        0.0649
      8 H           2.9185    3.6664    0.0001 H       1  LIG1        0.0656
      9 C           0.4723    5.3281   -0.0000 C.ar    1  LIG1        0.2380
     10 N          -0.8061    5.7335   -0.0001 N.ar    1  LIG1       -0.1226
     11 C           0.0391    7.8293   -0.0002 C.ar    1  LIG1        0.1605
     12 N           1.5399    6.1456   -0.0000 N.ar    1  LIG1       -0.1226
     13 N          -1.0233    7.0276   -0.0001 N.ar    1  LIG1       -0.1338
     14 N           1.3133    7.4334   -0.0001 N.ar    1  LIG1       -0.1338
     15 H          -0.1460    8.8973   -0.0001 H       1  LIG1        0.1085
@<TRIPOS>BOND
     1    11    13   ar
     2    11    15    1
     3    11    14   ar
     4    13    10   ar
     5    10     9   ar
     6    14    12   ar
     7     5     4   ar
     8     5     1   ar
     9     9    12   ar
    10     9     4    1
    11     6     1    1
    12     4     3   ar
    13     1     2   ar
    14     2     7    1
    15     2     3   ar
    16     3     8    1
