@<TRIPOS>MOLECULE
mol_data/opt/cam/geoms/mol2/128-4.out
 25 27 0 0 0
SMALL
GASTEIGER

@<TRIPOS>ATOM
      1 C           0.2981    1.7275   -0.0007 C.ar    1  LIG1        0.0927
      2 C           1.6546    1.8063   -0.0003 C.ar    1  LIG1       -0.0232
      3 C           1.9652    3.1948   -0.0001 C.ar    1  LIG1       -0.0126
      4 C           0.7690    3.8494   -0.0001 C.ar    1  LIG1        0.1751
      5 O          -0.2555    2.9578   -0.0004 O.2     1  LIG1       -0.4597
      6 H          -0.3945    0.9007   -0.0010 H       1  LIG1        0.1029
      7 H           2.3469    0.9783   -0.0003 H       1  LIG1        0.0649
      8 H           2.9369    3.6637    0.0001 H       1  LIG1        0.0656
      9 C           0.4488    5.2632    0.0002 C.ar    1  LIG1        0.2381
     10 N          -0.8366    5.6412    0.0001 N.ar    1  LIG1       -0.1220
     11 C          -0.0539    7.7794    0.0007 C.ar    1  LIG1        0.2034
     12 N           1.4902    6.1117    0.0005 N.ar    1  LIG1       -0.1220
     13 N          -1.0860    6.9243    0.0003 N.ar    1  LIG1       -0.1251
     14 N           1.2318    7.3885    0.0007 N.ar    1  LIG1       -0.1251
     15 C           0.7033   10.1517    0.0013 C.ar    1  LIG1       -0.0509
     16 C           0.4270   11.5110    0.0016 C.ar    1  LIG1       -0.0611
     17 C          -0.3430    9.2256    0.0009 C.ar    1  LIG1        0.0226
     18 C          -0.8904   11.9573    0.0015 C.ar    1  LIG1       -0.0617
     19 H           1.2437   12.2253    0.0019 H       1  LIG1        0.0618
     20 C          -1.6654    9.6769    0.0008 C.ar    1  LIG1       -0.0509
     21 C          -1.9342   11.0377    0.0011 C.ar    1  LIG1       -0.0611
     22 H          -2.4700    8.9518    0.0006 H       1  LIG1        0.0625
     23 H          -1.1037   13.0213    0.0017 H       1  LIG1        0.0618
     24 H           1.7254    9.7932    0.0014 H       1  LIG1        0.0625
     25 H          -2.9630   11.3820    0.0010 H       1  LIG1        0.0618
@<TRIPOS>BOND
     1     6     1    1
     2     1     5   ar
     3     1     2   ar
     4     5     4   ar
     5     2     7    1
     6     2     3   ar
     7     3     4   ar
     8     3     8    1
     9     4     9    1
    10    10     9   ar
    11    10    13   ar
    12     9    12   ar
    13    13    11   ar
    14    12    14   ar
    15    22    20    1
    16    11    14   ar
    17    11    17    1
    18    20    17   ar
    19    20    21   ar
    20    17    15   ar
    21    25    21    1
    22    21    18   ar
    23    15    24    1
    24    15    16   ar
    25    18    16   ar
    26    18    23    1
    27    16    19    1
