@<TRIPOS>MOLECULE
mol_data/opt/cam/geoms/mol2/12813-4.out
 33 36 0 0 0
SMALL
GASTEIGER

@<TRIPOS>ATOM
      1 C           0.3370    1.7082    0.0001 C.ar    1  LIG1        0.0927
      2 C           1.6913    1.8130    0.0009 C.ar    1  LIG1       -0.0232
      3 C           1.9759    3.2077    0.0007 C.ar    1  LIG1       -0.0126
      4 C           0.7678    3.8396    0.0002 C.ar    1  LIG1        0.1751
      5 O          -0.2392    2.9291   -0.0002 O.2     1  LIG1       -0.4597
      6 H          -0.3403    0.8690   -0.0002 H       1  LIG1        0.1029
      7 H           2.3993    0.9983    0.0014 H       1  LIG1        0.0649
      8 H           2.9389    3.6938    0.0011 H       1  LIG1        0.0656
      9 C           0.4199    5.2478   -0.0001 C.ar    1  LIG1        0.2381
     10 N           1.4418    6.1171    0.0003 N.ar    1  LIG1       -0.1220
     11 C          -0.1436    7.7451   -0.0006 C.ar    1  LIG1        0.2194
     12 N          -0.8776    5.5979   -0.0007 N.ar    1  LIG1       -0.1220
     13 N           1.1547    7.3886    0.0000 N.ar    1  LIG1       -0.1236
     14 N          -1.1654    6.8694   -0.0010 N.ar    1  LIG1       -0.1236
     15 C          -0.4390    9.1541   -0.0009 C.ar    1  LIG1        0.0879
     16 C          -1.6384    9.8422   -0.0015 C.ar    1  LIG1       -0.0326
     17 C          -1.3271   11.2117   -0.0014 C.ar    1  LIG1       -0.0357
     18 C           0.0577   11.3414   -0.0009 C.ar    1  LIG1        0.0470
     19 N           0.5729   10.0786   -0.0006 N.ar    1  LIG1       -0.3516
     20 H           1.5447    9.8108    0.0000 H       1  LIG1        0.1660
     21 H          -2.6164    9.3860   -0.0019 H       1  LIG1        0.0640
     22 H          -2.0367   12.0250   -0.0018 H       1  LIG1        0.0639
     23 C           2.2946   12.4639   -0.0017 C.ar    1  LIG1       -0.0526
     24 C           3.0729   13.6130   -0.0014 C.ar    1  LIG1       -0.0611
     25 C           0.8977   12.5412   -0.0007 C.ar    1  LIG1       -0.0017
     26 C           2.4734   14.8663   -0.0002 C.ar    1  LIG1       -0.0617
     27 H           4.1544   13.5260   -0.0022 H       1  LIG1        0.0618
     28 C           0.3075   13.8104    0.0006 C.ar    1  LIG1       -0.0526
     29 C           1.0856   14.9575    0.0008 C.ar    1  LIG1       -0.0611
     30 H          -0.7730   13.8993    0.0015 H       1  LIG1        0.0624
     31 H           3.0818   15.7644    0.0000 H       1  LIG1        0.0618
     32 H           2.7943   11.5004   -0.0028 H       1  LIG1        0.0624
     33 H           0.6044   15.9301    0.0018 H       1  LIG1        0.0618
@<TRIPOS>BOND
     1    32    23    1
     2    27    24    1
     3    21    16    1
     4    22    17    1
     5    23    24   ar
     6    23    25   ar
     7    16    17   ar
     8    16    15   ar
     9    24    26   ar
    10    17    18   ar
    11    14    12   ar
    12    14    11   ar
    13    15    19   ar
    14    15    11    1
    15    18    25    1
    16    18    19   ar
    17    12     9   ar
    18    25    28   ar
    19    19    20    1
    20    11    13   ar
    21     5     1   ar
    22     5     4   ar
    23    26    31    1
    24    26    29   ar
    25     6     1    1
    26     9     4    1
    27     9    10   ar
    28    13    10   ar
    29     1     2   ar
    30     4     3   ar
    31    28    29   ar
    32    28    30    1
    33     3     2   ar
    34     3     8    1
    35    29    33    1
    36     2     7    1
