@<TRIPOS>MOLECULE
mol_data/opt/cam/geoms/mol2/12813-.out
 23 25 0 0 0
SMALL
GASTEIGER

@<TRIPOS>ATOM
      1 C           0.2927    1.7529    0.0001 C.ar    1  LIG1        0.0927
      2 C           1.6486    1.8337    0.0001 C.ar    1  LIG1       -0.0232
      3 C           1.9579    3.2232    0.0000 C.ar    1  LIG1       -0.0126
      4 C           0.7611    3.8763   -0.0000 C.ar    1  LIG1        0.1751
      5 O          -0.2619    2.9837    0.0000 O.2     1  LIG1       -0.4597
      6 H          -0.3993    0.9258    0.0002 H       1  LIG1        0.1029
      7 H           2.3421    1.0066    0.0002 H       1  LIG1        0.0649
      8 H           2.9293    3.6923   -0.0000 H       1  LIG1        0.0656
      9 C           0.4376    5.2905   -0.0001 C.ar    1  LIG1        0.2381
     10 N           1.4744    6.1419   -0.0002 N.ar    1  LIG1       -0.1220
     11 C          -0.0823    7.7971   -0.0003 C.ar    1  LIG1        0.2194
     12 N          -0.8531    5.6627   -0.0001 N.ar    1  LIG1       -0.1220
     13 N           1.2090    7.4183   -0.0003 N.ar    1  LIG1       -0.1236
     14 N          -1.1187    6.9397   -0.0002 N.ar    1  LIG1       -0.1236
     15 C          -0.3539    9.2129   -0.0004 C.ar    1  LIG1        0.0875
     16 C          -1.5414    9.9197   -0.0005 C.ar    1  LIG1       -0.0333
     17 C          -1.2093   11.2904   -0.0005 C.ar    1  LIG1       -0.0437
     18 C           0.1676   11.3808   -0.0006 C.ar    1  LIG1        0.0023
     19 N           0.6752   10.1215   -0.0005 N.ar    1  LIG1       -0.3582
     20 H           1.6460    9.8487   -0.0005 H       1  LIG1        0.1654
     21 H           0.8139   12.2453   -0.0007 H       1  LIG1        0.0807
     22 H          -2.5257    9.4770   -0.0004 H       1  LIG1        0.0640
     23 H          -1.8964   12.1233   -0.0006 H       1  LIG1        0.0633
@<TRIPOS>BOND
     1    21    18    1
     2    18    17   ar
     3    18    19   ar
     4    23    17    1
     5    17    16   ar
     6    19    20    1
     7    19    15   ar
     8    16    22    1
     9    16    15   ar
    10    15    11    1
    11    11    13   ar
    12    11    14   ar
    13    13    10   ar
    14    14    12   ar
    15    10     9   ar
    16    12     9   ar
    17     9     4    1
    18     8     3    1
    19     4     3   ar
    20     4     5   ar
    21     3     2   ar
    22     5     1   ar
    23     2     1   ar
    24     2     7    1
    25     1     6    1
