@<TRIPOS>MOLECULE
mol_data/opt/cam/geoms/mol2/12812-12-.out
 29 32 0 0 0
SMALL
GASTEIGER

@<TRIPOS>ATOM
      1 C           0.1140    1.6971    0.0002 C.ar    1  LIG1        0.0927
      2 C           1.4727    1.7030   -0.0003 C.ar    1  LIG1       -0.0232
      3 C           1.8579    3.0729    0.0001 C.ar    1  LIG1       -0.0126
      4 C           0.6988    3.7910   -0.0000 C.ar    1  LIG1        0.1751
      5 O          -0.3723    2.9560   -0.0000 O.2     1  LIG1       -0.4597
      6 H          -0.6222    0.9090    0.0003 H       1  LIG1        0.1029
      7 H           2.1194    0.8389   -0.0006 H       1  LIG1        0.0649
      8 H           2.8533    3.4889    0.0002 H       1  LIG1        0.0656
      9 C           0.4561    5.2202   -0.0000 C.ar    1  LIG1        0.2381
     10 N           1.5414    6.0104   -0.0000 N.ar    1  LIG1       -0.1219
     11 C           0.0931    7.7482   -0.0001 C.ar    1  LIG1        0.2381
     12 N          -0.8106    5.6657   -0.0001 N.ar    1  LIG1       -0.1219
     13 N           1.3604    7.3022   -0.0001 N.ar    1  LIG1       -0.1219
     14 N          -0.9931    6.9571   -0.0001 N.ar    1  LIG1       -0.1219
     15 C          -0.1509    9.1737   -0.0001 C.ar    1  LIG1        0.1761
     16 C          -1.3128    9.8912   -0.0001 C.ar    1  LIG1       -0.0119
     17 C          -0.9363   11.2563   -0.0002 C.ar    1  LIG1       -0.0121
     18 C           0.4332   11.2740   -0.0001 C.ar    1  LIG1        0.1707
     19 O           0.9182   10.0130   -0.0000 O.2     1  LIG1       -0.4485
     20 H          -2.3071    9.4725   -0.0002 H       1  LIG1        0.0657
     21 H          -1.5876   12.1168   -0.0003 H       1  LIG1        0.0657
     22 C           1.3866   12.3553   -0.0001 C.ar    1  LIG1        0.1697
     23 C           1.2383   13.7112   -0.0001 C.ar    1  LIG1       -0.0128
     24 C           2.5565   14.2541    0.0001 C.ar    1  LIG1       -0.0232
     25 C           3.4002   13.1923   -0.0000 C.ar    1  LIG1        0.0927
     26 O           2.7049   12.0307    0.0000 O.2     1  LIG1       -0.4598
     27 H           4.4740   13.0967   -0.0000 H       1  LIG1        0.1029
     28 H           0.3050   14.2537   -0.0001 H       1  LIG1        0.0656
     29 H           2.8348   15.2970    0.0001 H       1  LIG1        0.0649
@<TRIPOS>BOND
     1     7     2    1
     2     2     3   ar
     3     2     1   ar
     4    21    17    1
     5    17    16   ar
     6    17    18   ar
     7    20    16    1
     8    14    11   ar
     9    14    12   ar
    10    28    23    1
    11    16    15   ar
    12    11    15    1
    13    11    13   ar
    14    15    19   ar
    15    12     9   ar
    16    18    22    1
    17    18    19   ar
    18    23    22   ar
    19    23    24   ar
    20    22    26   ar
    21    13    10   ar
    22     9     4    1
    23     9    10   ar
    24    25    27    1
    25    25    26   ar
    26    25    24   ar
    27     5     4   ar
    28     5     1   ar
    29     4     3   ar
    30    24    29    1
    31     3     8    1
    32     1     6    1
