@<TRIPOS>MOLECULE
mol_data/opt/cam/geoms/mol2/12844-.out
 35 38 0 0 0
SMALL
GASTEIGER

@<TRIPOS>ATOM
      1 C           0.3684    1.6450   -0.2182 C.ar    1  LIG1        0.0927
      2 C           1.6865    1.7270    0.1007 C.ar    1  LIG1       -0.0232
      3 C           1.9697    3.1146    0.2387 C.ar    1  LIG1       -0.0126
      4 C           0.7974    3.7656   -0.0085 C.ar    1  LIG1        0.1751
      5 O          -0.1868    2.8728   -0.2887 O.2     1  LIG1       -0.4597
      6 H          -0.2940    0.8177   -0.4182 H       1  LIG1        0.1029
      7 H           2.3713    0.9017    0.2225 H       1  LIG1        0.0649
      8 H           2.9084    3.5849    0.4867 H       1  LIG1        0.0656
      9 C           0.4670    5.1771   -0.0157 C.ar    1  LIG1        0.2381
     10 N           1.4682    6.0264    0.2687 N.ar    1  LIG1       -0.1220
     11 C          -0.0557    7.6893   -0.0112 C.ar    1  LIG1        0.2034
     12 N          -0.7878    5.5523   -0.2981 N.ar    1  LIG1       -0.1220
     13 N           1.2002    7.3011    0.2698 N.ar    1  LIG1       -0.1251
     14 N          -1.0481    6.8332   -0.2939 N.ar    1  LIG1       -0.1251
     15 C           0.6421   10.0618    0.2893 C.ar    1  LIG1       -0.0504
     16 C           0.3545   11.4163    0.2923 C.ar    1  LIG1       -0.0534
     17 C          -0.3560    9.1310   -0.0080 C.ar    1  LIG1        0.0227
     18 C          -0.9309   11.8832   -0.0016 C.ar    1  LIG1       -0.0178
     19 H           1.1337   12.1254    0.5502 H       1  LIG1        0.0624
     20 C          -1.6436    9.5858   -0.3022 C.ar    1  LIG1       -0.0504
     21 C          -1.9221   10.9420   -0.2989 C.ar    1  LIG1       -0.0534
     22 H          -2.4164    8.8651   -0.5408 H       1  LIG1        0.0625
     23 H           1.6391    9.7103    0.5255 H       1  LIG1        0.0625
     24 H          -2.9203   11.2811   -0.5545 H       1  LIG1        0.0624
     25 C          -2.4546   13.8095    0.4906 C.ar    1  LIG1       -0.0540
     26 C          -2.7385   15.1685    0.4945 C.ar    1  LIG1       -0.0612
     27 C          -1.2340   13.3344    0.0019 C.ar    1  LIG1       -0.0179
     28 C          -1.8071   16.0790    0.0090 C.ar    1  LIG1       -0.0617
     29 H          -3.6885   15.5181    0.8858 H       1  LIG1        0.0618
     30 C          -0.3060   14.2607   -0.4832 C.ar    1  LIG1       -0.0540
     31 C          -0.5896   15.6198   -0.4801 C.ar    1  LIG1       -0.0612
     32 H           0.6370   13.9088   -0.8889 H       1  LIG1        0.0624
     33 H          -2.0289   17.1412    0.0117 H       1  LIG1        0.0618
     34 H          -3.1776   13.1077    0.8935 H       1  LIG1        0.0624
     35 H           0.1407   16.3222   -0.8687 H       1  LIG1        0.0618
@<TRIPOS>BOND
     1    32    30    1
     2    35    31    1
     3    24    21    1
     4    22    20    1
     5    30    31   ar
     6    30    27   ar
     7    31    28   ar
     8     6     1    1
     9    20    21   ar
    10    20    17   ar
    11    21    18   ar
    12    12    14   ar
    13    12     9   ar
    14    14    11   ar
    15     5     1   ar
    16     5     4   ar
    17     1     2   ar
    18     9     4    1
    19     9    10   ar
    20    11    17    1
    21    11    13   ar
    22     4     3   ar
    23    17    15   ar
    24    18    27    1
    25    18    16   ar
    26    27    25   ar
    27    28    33    1
    28    28    26   ar
    29     2     7    1
    30     2     3   ar
    31     3     8    1
    32    10    13   ar
    33    15    16   ar
    34    15    23    1
    35    16    19    1
    36    25    26   ar
    37    25    34    1
    38    26    29    1
