@<TRIPOS>MOLECULE
mol_data/opt/cam/geoms/mol2/1284-13.out
 33 36 0 0 0
SMALL
GASTEIGER

@<TRIPOS>ATOM
      1 C           0.3162    1.6589    0.0006 C.ar    1  LIG1        0.0927
      2 C           1.6725    1.7379    0.0014 C.ar    1  LIG1       -0.0232
      3 C           1.9833    3.1267    0.0012 C.ar    1  LIG1       -0.0126
      4 C           0.7872    3.7812    0.0003 C.ar    1  LIG1        0.1751
      5 O          -0.2372    2.8898   -0.0001 O.2     1  LIG1       -0.4597
      6 H          -0.3764    0.8323    0.0003 H       1  LIG1        0.1029
      7 H           2.3649    0.9100    0.0020 H       1  LIG1        0.0649
      8 H           2.9550    3.5954    0.0017 H       1  LIG1        0.0656
      9 C           0.4673    5.1955   -0.0003 C.ar    1  LIG1        0.2381
     10 N           1.5088    6.0437    0.0001 N.ar    1  LIG1       -0.1220
     11 C          -0.0348    7.7126   -0.0013 C.ar    1  LIG1        0.2034
     12 N          -0.8181    5.5738   -0.0012 N.ar    1  LIG1       -0.1220
     13 N           1.2519    7.3206   -0.0004 N.ar    1  LIG1       -0.1251
     14 N          -1.0678    6.8565   -0.0017 N.ar    1  LIG1       -0.1251
     15 C          -1.6410    9.6138   -0.0029 C.ar    1  LIG1       -0.0503
     16 C          -1.9098   10.9709   -0.0034 C.ar    1  LIG1       -0.0520
     17 C          -0.3228    9.1537   -0.0019 C.ar    1  LIG1        0.0227
     18 C          -0.8783   11.9197   -0.0030 C.ar    1  LIG1       -0.0017
     19 H          -2.9490   11.2838   -0.0045 H       1  LIG1        0.0624
     20 C           0.7162   10.0899   -0.0015 C.ar    1  LIG1       -0.0503
     21 C           0.4410   11.4435   -0.0020 C.ar    1  LIG1       -0.0520
     22 H           1.7414    9.7400   -0.0007 H       1  LIG1        0.0625
     23 H          -2.4509    8.8945   -0.0033 H       1  LIG1        0.0625
     24 H           1.2637   12.1491   -0.0015 H       1  LIG1        0.0624
     25 C          -1.1419   13.3552   -0.0035 C.ar    1  LIG1        0.0465
     26 C          -0.2735   14.4312   -0.0050 C.ar    1  LIG1       -0.0364
     27 C          -1.0428   15.6172   -0.0049 C.ar    1  LIG1       -0.0438
     28 C          -2.3643   15.2433   -0.0034 C.ar    1  LIG1        0.0022
     29 N          -2.4147   13.8798   -0.0026 N.ar    1  LIG1       -0.3607
     30 H          -3.2633   13.3407   -0.0012 H       1  LIG1        0.1653
     31 H          -3.2666   15.8353   -0.0028 H       1  LIG1        0.0807
     32 H           0.8046   14.3717   -0.0061 H       1  LIG1        0.0639
     33 H          -0.6705   16.6308   -0.0058 H       1  LIG1        0.0633
@<TRIPOS>BOND
     1    32    26    1
     2    33    27    1
     3    26    27   ar
     4    26    25   ar
     5    27    28   ar
     6    19    16    1
     7    25    18    1
     8    25    29   ar
     9    16    18   ar
    10    16    15   ar
    11    28    31    1
    12    28    29   ar
    13    23    15    1
    14    18    21   ar
    15    15    17   ar
    16    29    30    1
    17    21    24    1
    18    21    20   ar
    19    17    20   ar
    20    17    11    1
    21    14    11   ar
    22    14    12   ar
    23    20    22    1
    24    11    13   ar
    25    12     9   ar
    26    13    10   ar
    27     9    10   ar
    28     9     4    1
    29     5     4   ar
    30     5     1   ar
    31     4     3   ar
    32     6     1    1
    33     1     2   ar
    34     3     2   ar
    35     3     8    1
    36     2     7    1
