@<TRIPOS>MOLECULE
mol_data/opt/cam/geoms/mol2/1285.out
 22 24 0 0 0
SMALL
GASTEIGER

@<TRIPOS>ATOM
      1 C           0.2631    1.7551    0.0001 C.ar    1  LIG1        0.0927
      2 C           1.6205    1.8164    0.0002 C.ar    1  LIG1       -0.0232
      3 C           1.9492    3.2008   -0.0002 C.ar    1  LIG1       -0.0126
      4 C           0.7614    3.8707   -0.0001 C.ar    1  LIG1        0.1751
      5 O          -0.2745    2.9926    0.0002 O.2     1  LIG1       -0.4597
      6 H          -0.4403    0.9375    0.0002 H       1  LIG1        0.1029
      7 H           2.3020    0.9794    0.0003 H       1  LIG1        0.0649
      8 H           2.9269    3.6568   -0.0004 H       1  LIG1        0.0656
      9 C           0.4593    5.2884   -0.0001 C.ar    1  LIG1        0.2381
     10 N           1.5141    6.1229   -0.0004 N.ar    1  LIG1       -0.1220
     11 C          -0.0054    7.8044   -0.0003 C.ar    1  LIG1        0.2099
     12 N          -0.8209    5.6829    0.0000 N.ar    1  LIG1       -0.1220
     13 N           1.2790    7.4030   -0.0005 N.ar    1  LIG1       -0.1246
     14 N          -1.0532    6.9688   -0.0000 N.ar    1  LIG1       -0.1246
     15 C          -0.2711    9.2318   -0.0004 C.ar    1  LIG1        0.0598
     16 C           0.6483   10.2465   -0.0006 C.ar    1  LIG1       -0.0438
     17 C           0.0436   11.5296   -0.0007 C.ar    1  LIG1       -0.0540
     18 C          -1.3190   11.4601   -0.0005 C.ar    1  LIG1       -0.0236
     19 S          -1.8948    9.8407   -0.0001 S.2     1  LIG1       -0.0934
     20 H          -2.0227   12.2806   -0.0006 H       1  LIG1        0.0693
     21 H           1.7143   10.0604   -0.0007 H       1  LIG1        0.0630
     22 H           0.5970   12.4600   -0.0009 H       1  LIG1        0.0623
@<TRIPOS>BOND
     1    22    17    1
     2    21    16    1
     3    17    16   ar
     4    17    18   ar
     5    16    15   ar
     6    20    18    1
     7    18    19   ar
     8    13    10   ar
     9    13    11   ar
    10    10     9   ar
    11     8     3    1
    12    15    11    1
    13    15    19   ar
    14    11    14   ar
    15     3     4   ar
    16     3     2   ar
    17     9     4    1
    18     9    12   ar
    19     4     5   ar
    20    14    12   ar
    21     1     2   ar
    22     1     5   ar
    23     1     6    1
    24     2     7    1
