@<TRIPOS>MOLECULE
mol_data/opt/cam/geoms/mol2/12858-.out
 28 31 0 0 0
SMALL
GASTEIGER

@<TRIPOS>ATOM
      1 C           0.3124    1.7134    0.0004 C.ar    1  LIG1        0.0927
      2 C           1.6696    1.7876   -0.0004 C.ar    1  LIG1       -0.0232
      3 C           1.9849    3.1743   -0.0002 C.ar    1  LIG1       -0.0126
      4 C           0.7903    3.8331   -0.0001 C.ar    1  LIG1        0.1751
      5 O          -0.2370    2.9450    0.0002 O.2     1  LIG1       -0.4597
      6 H          -0.3827    0.8888    0.0006 H       1  LIG1        0.1029
      7 H           2.3590    0.9573   -0.0008 H       1  LIG1        0.0649
      8 H           2.9584    3.6394   -0.0003 H       1  LIG1        0.0656
      9 C           0.4749    5.2460   -0.0001 C.ar    1  LIG1        0.2381
     10 N           1.5218    6.0917   -0.0003 N.ar    1  LIG1       -0.1220
     11 C          -0.0153    7.7548   -0.0002 C.ar    1  LIG1        0.2099
     12 N          -0.8107    5.6275    0.0001 N.ar    1  LIG1       -0.1220
     13 N           1.2723    7.3692   -0.0004 N.ar    1  LIG1       -0.1246
     14 N          -1.0549    6.9107    0.0001 N.ar    1  LIG1       -0.1246
     15 C          -0.2966    9.1820   -0.0002 C.ar    1  LIG1        0.0605
     16 C           0.6238   10.2000   -0.0005 C.ar    1  LIG1       -0.0431
     17 C           0.0153   11.4729   -0.0004 C.ar    1  LIG1       -0.0431
     18 C          -1.3548   11.3964   -0.0001 C.ar    1  LIG1        0.0605
     19 S          -1.9252    9.7630    0.0000 S.2     1  LIG1       -0.0818
     20 H           1.6904   10.0195   -0.0007 H       1  LIG1        0.0630
     21 H           0.5448   12.4163   -0.0006 H       1  LIG1        0.0630
     22 C          -2.2866   12.5125    0.0000 C.ar    1  LIG1        0.2099
     23 N          -3.5982   12.2300    0.0002 N.ar    1  LIG1       -0.1253
     24 C          -3.9184   14.4614   -0.0001 C.ar    1  LIG1        0.1605
     25 N          -1.7740   13.7542   -0.0002 N.ar    1  LIG1       -0.1253
     26 N          -4.4379   13.2348    0.0002 N.ar    1  LIG1       -0.1339
     27 N          -2.6175   14.7551   -0.0002 N.ar    1  LIG1       -0.1339
     28 H          -4.6129   15.2933    0.0003 H       1  LIG1        0.1085
@<TRIPOS>BOND
     1     7     2    1
     2    20    16    1
     3    21    17    1
     4    16    17   ar
     5    16    15   ar
     6    17    18   ar
     7     2     3   ar
     8     2     1   ar
     9    13    10   ar
    10    13    11   ar
    11     8     3    1
    12    10     9   ar
    13    15    11    1
    14    15    19   ar
    15    25    27   ar
    16    25    22   ar
    17    11    14   ar
    18    27    24   ar
    19     3     4   ar
    20    18    22    1
    21    18    19   ar
    22     9     4    1
    23     9    12   ar
    24    24    26   ar
    25    24    28    1
    26     4     5   ar
    27    22    23   ar
    28    14    12   ar
    29    23    26   ar
    30     5     1   ar
    31     1     6    1
