@<TRIPOS>MOLECULE
mol_data/opt/cam/geoms/mol2/1288-.out
 21 23 0 0 0
SMALL
GASTEIGER

@<TRIPOS>ATOM
      1 C           0.2693    1.7639   -0.0001 C.ar    1  LIG1        0.0927
      2 C           1.6279    1.8345    0.0001 C.ar    1  LIG1       -0.0232
      3 C           1.9457    3.2191   -0.0000 C.ar    1  LIG1       -0.0126
      4 C           0.7516    3.8811   -0.0001 C.ar    1  LIG1        0.1751
      5 O          -0.2780    2.9945   -0.0001 O.2     1  LIG1       -0.4597
      6 H          -0.4268    0.9399   -0.0002 H       1  LIG1        0.1029
      7 H           2.3150    1.0024    0.0002 H       1  LIG1        0.0649
      8 H           2.9199    3.6831    0.0000 H       1  LIG1        0.0656
      9 C           0.4425    5.2923   -0.0001 C.ar    1  LIG1        0.2381
     10 N           1.4934    6.1334   -0.0000 N.ar    1  LIG1       -0.1219
     11 C          -0.0382    7.7941   -0.0001 C.ar    1  LIG1        0.2435
     12 N          -0.8433    5.6785   -0.0001 N.ar    1  LIG1       -0.1219
     13 N           1.2446    7.4123   -0.0000 N.ar    1  LIG1       -0.1217
     14 N          -1.0833    6.9637   -0.0002 N.ar    1  LIG1       -0.1217
     15 C          -0.3192    9.2556   -0.0001 C.ar    1  LIG1        0.2434
     16 N          -1.6014    9.6346    0.0000 N.ar    1  LIG1       -0.1224
     17 C          -0.7971   11.7427   -0.0001 C.ar    1  LIG1        0.1605
     18 N           0.7310   10.0827   -0.0002 N.ar    1  LIG1       -0.1224
     19 N          -1.8472   10.9230    0.0000 N.ar    1  LIG1       -0.1338
     20 N           0.4819   11.3708   -0.0002 N.ar    1  LIG1       -0.1338
     21 H          -1.0018   12.8075   -0.0001 H       1  LIG1        0.1085
@<TRIPOS>BOND
     1    18    20   ar
     2    18    15   ar
     3    20    17   ar
     4     6     1    1
     5    14    12   ar
     6    14    11   ar
     7    12     9   ar
     8     1     5   ar
     9     1     2   ar
    10    21    17    1
    11     5     4   ar
    12    15    11    1
    13    15    16   ar
    14    11    13   ar
    15     9     4    1
    16     9    10   ar
    17     4     3   ar
    18    17    19   ar
    19    13    10   ar
    20     3     8    1
    21     3     2   ar
    22    16    19   ar
    23     2     7    1
