@<TRIPOS>MOLECULE
mol_data/opt/cam/geoms/mol2/12aa12aa-12aa-12aa-.out
 30 33 0 0 0
SMALL
GASTEIGER

@<TRIPOS>ATOM
      1 C          -0.1134    1.7325   -0.0002 C.ar    1  LIG1        0.0927
      2 C           1.2385    1.6446    0.0001 C.ar    1  LIG1       -0.0232
      3 C           1.7269    2.9866   -0.0001 C.ar    1  LIG1       -0.0128
      4 C           0.6255    3.7871   -0.0001 C.ar    1  LIG1        0.1697
      5 O          -0.5061    3.0327   -0.0001 O.2     1  LIG1       -0.4598
      6 H          -0.9067    1.0025   -0.0002 H       1  LIG1        0.1029
      7 H           1.8221    0.7364    0.0002 H       1  LIG1        0.0649
      8 H           2.7526    3.3214   -0.0001 H       1  LIG1        0.0656
      9 C           0.4484    5.2146   -0.0001 C.ar    1  LIG1        0.1707
     10 C          -0.6517    6.0198   -0.0001 C.ar    1  LIG1       -0.0121
     11 C          -0.1653    7.3559   -0.0001 C.ar    1  LIG1       -0.0121
     12 C           1.1973    7.2709   -0.0001 C.ar    1  LIG1        0.1707
     13 O           1.5803    5.9662   -0.0001 O.2     1  LIG1       -0.4486
     14 H          -1.6787    5.6895   -0.0000 H       1  LIG1        0.0657
     15 H          -0.7488    8.2642   -0.0001 H       1  LIG1        0.0657
     16 C           2.2366    8.2672   -0.0001 C.ar    1  LIG1        0.1707
     17 C           2.2070    9.6324   -0.0002 C.ar    1  LIG1       -0.0121
     18 C           3.5614   10.0611   -0.0002 C.ar    1  LIG1       -0.0121
     19 C           4.3232    8.9284   -0.0002 C.ar    1  LIG1        0.1707
     20 O           3.5231    7.8309   -0.0001 O.2     1  LIG1       -0.4486
     21 H           1.3242   10.2535   -0.0002 H       1  LIG1        0.0657
     22 H           3.9258   11.0772   -0.0002 H       1  LIG1        0.0657
     23 C           5.7491    8.7123   -0.0002 C.ar    1  LIG1        0.1697
     24 C           6.8103    9.5690   -0.0002 C.ar    1  LIG1       -0.0128
     25 C           7.9803    8.7524   -0.0002 C.ar    1  LIG1       -0.0232
     26 C           7.5439    7.4693   -0.0002 C.ar    1  LIG1        0.0927
     27 O           6.1886    7.4273   -0.0001 O.2     1  LIG1       -0.4598
     28 H           8.0432    6.5139   -0.0001 H       1  LIG1        0.1029
     29 H           6.7628   10.6475   -0.0002 H       1  LIG1        0.0656
     30 H           9.0081    9.0821   -0.0001 H       1  LIG1        0.0649
@<TRIPOS>BOND
     1    29    24    1
     2     6     1    1
     3    24    23   ar
     4    24    25   ar
     5    22    18    1
     6    18    19   ar
     7    18    17   ar
     8    23    19    1
     9    23    27   ar
    10     1     5   ar
    11     1     2   ar
    12    21    17    1
    13    19    20   ar
    14    26    25   ar
    15    26    28    1
    16    26    27   ar
    17    17    16   ar
    18    25    30    1
    19    20    16   ar
    20    16    12    1
    21    13    12   ar
    22    13     9   ar
    23    12    11   ar
    24     5     4   ar
    25    15    11    1
    26    11    10   ar
    27     3     8    1
    28     3     4   ar
    29     3     2   ar
    30     9     4    1
    31     9    10   ar
    32    10    14    1
    33     2     7    1
