@<TRIPOS>MOLECULE
mol_data/opt/cam/geoms/mol2/12aa12aa-12aa.out
 23 25 0 0 0
SMALL
GASTEIGER

@<TRIPOS>ATOM
      1 C           0.1720    1.7778   -0.0003 C.ar    1  LIG1        0.0927
      2 C           1.5266    1.7630    0.0002 C.ar    1  LIG1       -0.0232
      3 C           1.9411    3.1299   -0.0001 C.ar    1  LIG1       -0.0128
      4 C           0.7980    3.8700   -0.0001 C.ar    1  LIG1        0.1697
      5 O          -0.2902    3.0548   -0.0001 O.2     1  LIG1       -0.4598
      6 H          -0.5806    1.0060   -0.0004 H       1  LIG1        0.1029
      7 H           2.1587    0.8879    0.0004 H       1  LIG1        0.0649
      8 H           2.9478    3.5178   -0.0001 H       1  LIG1        0.0656
      9 C           0.5412    5.2856   -0.0001 C.ar    1  LIG1        0.1707
     10 C          -0.6023    6.0264   -0.0000 C.ar    1  LIG1       -0.0121
     11 C          -0.1948    7.3905   -0.0001 C.ar    1  LIG1       -0.0121
     12 C           1.1676    7.3828   -0.0001 C.ar    1  LIG1        0.1707
     13 O           1.6299    6.1026   -0.0001 O.2     1  LIG1       -0.4486
     14 H          -1.6081    5.6362    0.0000 H       1  LIG1        0.0657
     15 H          -0.8220    8.2684   -0.0001 H       1  LIG1        0.0657
     16 C           2.1588    8.4257   -0.0001 C.ar    1  LIG1        0.1697
     17 C           3.5205    8.4177   -0.0001 C.ar    1  LIG1       -0.0128
     18 C           3.9235    9.7880   -0.0002 C.ar    1  LIG1       -0.0232
     19 C           2.7827   10.5185   -0.0003 C.ar    1  LIG1        0.0927
     20 O           1.6958    9.7042   -0.0002 O.2     1  LIG1       -0.4598
     21 H           2.5766   11.5766   -0.0003 H       1  LIG1        0.1029
     22 H           4.1495    7.5412   -0.0000 H       1  LIG1        0.0656
     23 H           4.9320   10.1731   -0.0002 H       1  LIG1        0.0649
@<TRIPOS>BOND
     1     6     1    1
     2    21    19    1
     3    19    20   ar
     4    19    18   ar
     5     1     5   ar
     6     1     2   ar
     7    23    18    1
     8    20    16   ar
     9    18    17   ar
    10    16    12    1
    11    16    17   ar
    12    15    11    1
    13    13    12   ar
    14    13     9   ar
    15    12    11   ar
    16    11    10   ar
    17     8     3    1
    18     3     4   ar
    19     3     2   ar
    20    17    22    1
    21     5     4   ar
    22     9     4    1
    23     9    10   ar
    24    10    14    1
    25     2     7    1
