@<TRIPOS>MOLECULE
mol_data/opt/cam/geoms/mol2/12aa12aa-12aa12aa-.out
 30 33 0 0 0
SMALL
GASTEIGER

@<TRIPOS>ATOM
      1 C           0.1767    1.7291    0.0000 C.ar    1  LIG1        0.0927
      2 C           1.5313    1.7192   -0.0001 C.ar    1  LIG1       -0.0232
      3 C           1.9410    3.0874    0.0000 C.ar    1  LIG1       -0.0128
      4 C           0.7952    3.8234   -0.0001 C.ar    1  LIG1        0.1697
      5 O          -0.2902    3.0044   -0.0001 O.2     1  LIG1       -0.4598
      6 H          -0.5731    0.9546    0.0001 H       1  LIG1        0.1029
      7 H           2.1666    0.8464   -0.0002 H       1  LIG1        0.0649
      8 H           2.9464    3.4788    0.0000 H       1  LIG1        0.0656
      9 C           0.5334    5.2379   -0.0001 C.ar    1  LIG1        0.1707
     10 C          -0.6130    5.9747   -0.0001 C.ar    1  LIG1       -0.0121
     11 C          -0.2111    7.3398   -0.0001 C.ar    1  LIG1       -0.0121
     12 C           1.1521    7.3376   -0.0001 C.ar    1  LIG1        0.1707
     13 O           1.6191    6.0587   -0.0001 O.2     1  LIG1       -0.4486
     14 H          -1.6174    5.5807   -0.0001 H       1  LIG1        0.0657
     15 H          -0.8420    8.2150   -0.0001 H       1  LIG1        0.0657
     16 C           2.1383    8.3816   -0.0001 C.ar    1  LIG1        0.1707
     17 C           3.5015    8.3794   -0.0001 C.ar    1  LIG1       -0.0121
     18 C           3.9035    9.7445   -0.0001 C.ar    1  LIG1       -0.0121
     19 C           2.7571   10.4813   -0.0002 C.ar    1  LIG1        0.1707
     20 O           1.6714    9.6605   -0.0002 O.2     1  LIG1       -0.4486
     21 H           4.1325    7.5043   -0.0001 H       1  LIG1        0.0657
     22 H           4.9079   10.1385   -0.0001 H       1  LIG1        0.0657
     23 C           2.4953   11.8958   -0.0002 C.ar    1  LIG1        0.1697
     24 C           1.3495   12.6318   -0.0002 C.ar    1  LIG1       -0.0128
     25 C           1.7591   14.0000   -0.0003 C.ar    1  LIG1       -0.0232
     26 C           3.1137   13.9901   -0.0003 C.ar    1  LIG1        0.0927
     27 O           3.5806   12.7148   -0.0002 O.2     1  LIG1       -0.4598
     28 H           3.8635   14.7647   -0.0003 H       1  LIG1        0.1029
     29 H           0.3441   12.2405   -0.0002 H       1  LIG1        0.0656
     30 H           1.1239   14.8729   -0.0003 H       1  LIG1        0.0649
@<TRIPOS>BOND
     1    30    25    1
     2    28    26    1
     3    25    26   ar
     4    25    24   ar
     5    26    27   ar
     6    27    23   ar
     7    24    29    1
     8    24    23   ar
     9     7     2    1
    10    23    19    1
    11    20    19   ar
    12    20    16   ar
    13    19    18   ar
    14     2     3   ar
    15     2     1   ar
    16    14    10    1
    17    16    12    1
    18    16    17   ar
    19    15    11    1
    20    10    11   ar
    21    10     9   ar
    22    12    11   ar
    23    12    13   ar
    24    18    22    1
    25    18    17   ar
    26    17    21    1
    27    13     9   ar
    28     9     4    1
    29     4     5   ar
    30     4     3   ar
    31     5     1   ar
    32     3     8    1
    33     1     6    1
