@<TRIPOS>MOLECULE
mol_data/opt/cam/geoms/mol2/12aa12aa-12aa12aa.out
 30 33 0 0 0
SMALL
GASTEIGER

@<TRIPOS>ATOM
      1 C           0.2161    1.7034    0.0000 C.ar    1  LIG1        0.0927
      2 C           1.5708    1.7095   -0.0001 C.ar    1  LIG1       -0.0232
      3 C           1.9643    3.0824    0.0000 C.ar    1  LIG1       -0.0128
      4 C           0.8099    3.8050   -0.0001 C.ar    1  LIG1        0.1697
      5 O          -0.2657    2.9732   -0.0001 O.2     1  LIG1       -0.4598
      6 H          -0.5245    0.9202    0.0000 H       1  LIG1        0.1029
      7 H           2.2162    0.8442   -0.0002 H       1  LIG1        0.0649
      8 H           2.9649    3.4856    0.0001 H       1  LIG1        0.0656
      9 C           0.5318    5.2163   -0.0001 C.ar    1  LIG1        0.1707
     10 C          -0.6228    5.9403   -0.0001 C.ar    1  LIG1       -0.0121
     11 C          -0.2366    7.3100   -0.0001 C.ar    1  LIG1       -0.0121
     12 C           1.1264    7.3227   -0.0001 C.ar    1  LIG1        0.1707
     13 O           1.6083    6.0492   -0.0001 O.2     1  LIG1       -0.4486
     14 H          -1.6227    5.5351   -0.0002 H       1  LIG1        0.0657
     15 H          -0.8762    8.1789   -0.0002 H       1  LIG1        0.0657
     16 C           2.0998    8.3787   -0.0001 C.ar    1  LIG1        0.1707
     17 C           3.4633    8.3931   -0.0001 C.ar    1  LIG1       -0.0121
     18 C           3.8454    9.7628   -0.0001 C.ar    1  LIG1       -0.0121
     19 C           2.6887   10.4869   -0.0002 C.ar    1  LIG1        0.1707
     20 O           1.6171    9.6496   -0.0002 O.2     1  LIG1       -0.4486
     21 H           4.1065    7.5270   -0.0000 H       1  LIG1        0.0657
     22 H           4.8484   10.1619   -0.0001 H       1  LIG1        0.0657
     23 C           2.4232   11.9042   -0.0002 C.ar    1  LIG1        0.1697
     24 C           3.2417   12.9951   -0.0002 C.ar    1  LIG1       -0.0128
     25 C           2.3840   14.1354   -0.0003 C.ar    1  LIG1       -0.0232
     26 C           1.1172   13.6542   -0.0003 C.ar    1  LIG1        0.0927
     27 O           1.1230   12.2980   -0.0002 O.2     1  LIG1       -0.4598
     28 H           0.1447   14.1195   -0.0003 H       1  LIG1        0.1029
     29 H           4.3211   12.9858   -0.0002 H       1  LIG1        0.0656
     30 H           2.6772   15.1743   -0.0003 H       1  LIG1        0.0649
@<TRIPOS>BOND
     1    30    25    1
     2    25    26   ar
     3    25    24   ar
     4    28    26    1
     5    26    27   ar
     6    27    23   ar
     7    24    23   ar
     8    24    29    1
     9    23    19    1
    10    20    19   ar
    11    20    16   ar
    12     7     2    1
    13    14    10    1
    14    15    11    1
    15    19    18   ar
    16    10    11   ar
    17    10     9   ar
    18    11    12   ar
    19    12    16    1
    20    12    13   ar
    21    16    17   ar
    22     2     1   ar
    23     2     3   ar
    24     9    13   ar
    25     9     4    1
    26    18    17   ar
    27    18    22    1
    28     5     4   ar
    29     5     1   ar
    30    17    21    1
    31     4     3   ar
    32     1     6    1
    33     3     8    1
