@<TRIPOS>MOLECULE
mol_data/opt/cam/geoms/mol2/12aa12aa12aa-12aa-.out
 30 33 0 0 0
SMALL
GASTEIGER

@<TRIPOS>ATOM
      1 C           0.3459    1.6592    0.0000 C.ar    1  LIG1        0.0927
      2 C           1.6992    1.7290   -0.0001 C.ar    1  LIG1       -0.0232
      3 C           2.0249    3.1183   -0.0000 C.ar    1  LIG1       -0.0128
      4 C           0.8364    3.7871   -0.0001 C.ar    1  LIG1        0.1697
      5 O          -0.1951    2.9030   -0.0001 O.2     1  LIG1       -0.4598
      6 H          -0.3567    0.8416    0.0000 H       1  LIG1        0.1029
      7 H           2.3861    0.8963   -0.0002 H       1  LIG1        0.0649
      8 H           3.0092    3.5616   -0.0000 H       1  LIG1        0.0656
      9 C           0.5083    5.1913   -0.0001 C.ar    1  LIG1        0.1707
     10 C           1.2750    6.3202   -0.0001 C.ar    1  LIG1       -0.0121
     11 C           0.3736    7.4200   -0.0001 C.ar    1  LIG1       -0.0121
     12 C          -0.8798    6.8833   -0.0001 C.ar    1  LIG1        0.1707
     13 O          -0.8098    5.5255   -0.0001 O.2     1  LIG1       -0.4486
     14 H           2.3538    6.3591   -0.0000 H       1  LIG1        0.0657
     15 H           0.6116    8.4723   -0.0001 H       1  LIG1        0.0657
     16 C          -2.1957    7.4586   -0.0002 C.ar    1  LIG1        0.1707
     17 C          -3.4492    6.9219   -0.0002 C.ar    1  LIG1       -0.0121
     18 C          -4.3505    8.0217   -0.0002 C.ar    1  LIG1       -0.0121
     19 C          -3.5838    9.1506   -0.0002 C.ar    1  LIG1        0.1707
     20 O          -2.2657    8.8164   -0.0002 O.2     1  LIG1       -0.4486
     21 H          -3.6872    5.8696   -0.0001 H       1  LIG1        0.0657
     22 H          -5.4294    7.9828   -0.0002 H       1  LIG1        0.0657
     23 C          -3.9120   10.5548   -0.0003 C.ar    1  LIG1        0.1697
     24 C          -5.1005   11.2236   -0.0003 C.ar    1  LIG1       -0.0128
     25 C          -4.7748   12.6129   -0.0004 C.ar    1  LIG1       -0.0232
     26 C          -3.4214   12.6827   -0.0003 C.ar    1  LIG1        0.0927
     27 O          -2.8805   11.4389   -0.0003 O.2     1  LIG1       -0.4598
     28 H          -2.7188   13.5003   -0.0003 H       1  LIG1        0.1029
     29 H          -6.0847   10.7803   -0.0003 H       1  LIG1        0.0656
     30 H          -5.4616   13.4457   -0.0004 H       1  LIG1        0.0649
@<TRIPOS>BOND
     1    30    25    1
     2    25    24   ar
     3    25    26   ar
     4    29    24    1
     5    24    23   ar
     6    26    28    1
     7    26    27   ar
     8    23    27   ar
     9    23    19    1
    10    19    18   ar
    11    19    20   ar
    12    22    18    1
    13     7     2    1
    14    18    17   ar
    15    20    16   ar
    16    17    16   ar
    17    17    21    1
    18    16    12    1
    19     2     3   ar
    20     2     1   ar
    21    12    13   ar
    22    12    11   ar
    23    13     9   ar
    24    15    11    1
    25    11    10   ar
    26     9     4    1
    27     9    10   ar
    28     4     5   ar
    29     4     3   ar
    30     5     1   ar
    31    10    14    1
    32     3     8    1
    33     1     6    1
