@<TRIPOS>MOLECULE
mol_data/opt/cam/geoms/mol2/12aa12aa12aa-12aa.out
 30 33 0 0 0
SMALL
GASTEIGER

@<TRIPOS>ATOM
      1 C           0.3768    1.6763    0.0000 C.ar    1  LIG1        0.0927
      2 C           1.7292    1.7618   -0.0002 C.ar    1  LIG1       -0.0232
      3 C           2.0388    3.1547   -0.0000 C.ar    1  LIG1       -0.0128
      4 C           0.8426    3.8097   -0.0001 C.ar    1  LIG1        0.1697
      5 O          -0.1785    2.9137   -0.0001 O.2     1  LIG1       -0.4598
      6 H          -0.3163    0.8507    0.0000 H       1  LIG1        0.1029
      7 H           2.4257    0.9371   -0.0002 H       1  LIG1        0.0649
      8 H           3.0178    3.6094    0.0000 H       1  LIG1        0.0656
      9 C           0.4984    5.2100   -0.0001 C.ar    1  LIG1        0.1707
     10 C           1.2523    6.3475   -0.0000 C.ar    1  LIG1       -0.0121
     11 C           0.3383    7.4367   -0.0001 C.ar    1  LIG1       -0.0121
     12 C          -0.9093    6.8862   -0.0001 C.ar    1  LIG1        0.1707
     13 O          -0.8234    5.5294   -0.0001 O.2     1  LIG1       -0.4486
     14 H           2.3306    6.3987    0.0000 H       1  LIG1        0.0657
     15 H           0.5659    8.4913   -0.0001 H       1  LIG1        0.0657
     16 C          -2.2321    7.4453   -0.0002 C.ar    1  LIG1        0.1707
     17 C          -3.4785    6.8935   -0.0002 C.ar    1  LIG1       -0.0121
     18 C          -4.3964    7.9810   -0.0002 C.ar    1  LIG1       -0.0121
     19 C          -3.6443    9.1175   -0.0002 C.ar    1  LIG1        0.1707
     20 O          -2.3198    8.8041   -0.0002 O.2     1  LIG1       -0.4486
     21 H          -3.7016    5.8379   -0.0002 H       1  LIG1        0.0657
     22 H          -5.4744    7.9367   -0.0003 H       1  LIG1        0.0657
     23 C          -3.9745   10.5176   -0.0003 C.ar    1  LIG1        0.1697
     24 C          -3.2221   11.6528   -0.0002 C.ar    1  LIG1       -0.0128
     25 C          -4.1479   12.7402   -0.0003 C.ar    1  LIG1       -0.0232
     26 C          -5.3839   12.1857   -0.0004 C.ar    1  LIG1        0.0927
     27 O          -5.2977   10.8304   -0.0003 O.2     1  LIG1       -0.4598
     28 H          -6.3821   12.5928   -0.0004 H       1  LIG1        0.1029
     29 H          -2.1442   11.6993   -0.0002 H       1  LIG1        0.0656
     30 H          -3.9179   13.7950   -0.0003 H       1  LIG1        0.0649
@<TRIPOS>BOND
     1    28    26    1
     2    26    27   ar
     3    26    25   ar
     4    27    23   ar
     5    30    25    1
     6    25    24   ar
     7    23    24   ar
     8    23    19    1
     9    22    18    1
    10    24    29    1
    11    19    18   ar
    12    19    20   ar
    13    18    17   ar
    14     7     2    1
    15    20    16   ar
    16    17    21    1
    17    17    16   ar
    18    16    12    1
    19     2     3   ar
    20     2     1   ar
    21    13    12   ar
    22    13     9   ar
    23    12    11   ar
    24    11    15    1
    25    11    10   ar
    26     5     4   ar
    27     5     1   ar
    28     9     4    1
    29     9    10   ar
    30     4     3   ar
    31    10    14    1
    32     3     8    1
    33     1     6    1
