@<TRIPOS>MOLECULE
mol_data/opt/cam/geoms/mol2/12aa12aa12aa.out
 23 25 0 0 0
SMALL
GASTEIGER

@<TRIPOS>ATOM
      1 C           0.4109    1.6914    0.0002 C.ar    1  LIG1        0.0927
      2 C           1.7616    1.8021   -0.0003 C.ar    1  LIG1       -0.0232
      3 C           2.0447    3.2006    0.0000 C.ar    1  LIG1       -0.0128
      4 C           0.8362    3.8327   -0.0000 C.ar    1  LIG1        0.1697
      5 O          -0.1673    2.9178   -0.0001 O.2     1  LIG1       -0.4598
      6 H          -0.2668    0.8530    0.0004 H       1  LIG1        0.1029
      7 H           2.4734    0.9906   -0.0005 H       1  LIG1        0.0649
      8 H           3.0150    3.6737    0.0001 H       1  LIG1        0.0656
      9 C           0.4665    5.2270   -0.0001 C.ar    1  LIG1        0.1707
     10 C           1.2022    6.3764   -0.0000 C.ar    1  LIG1       -0.0121
     11 C           0.2689    7.4482   -0.0000 C.ar    1  LIG1       -0.0121
     12 C          -0.9708    6.8776   -0.0001 C.ar    1  LIG1        0.1707
     13 O          -0.8588    5.5240   -0.0002 O.2     1  LIG1       -0.4486
     14 H           2.2793    6.4468    0.0000 H       1  LIG1        0.0657
     15 H           0.4867    8.5055    0.0000 H       1  LIG1        0.0657
     16 C          -2.3009    7.4355   -0.0002 C.ar    1  LIG1        0.1697
     17 C          -2.7608    8.7195   -0.0002 C.ar    1  LIG1       -0.0128
     18 C          -4.1850    8.6314   -0.0003 C.ar    1  LIG1       -0.0232
     19 C          -4.4804    7.3087   -0.0003 C.ar    1  LIG1        0.0927
     20 O          -3.3452    6.5674   -0.0004 O.2     1  LIG1       -0.4598
     21 H          -5.4040    6.7527   -0.0003 H       1  LIG1        0.1029
     22 H          -2.1588    9.6155   -0.0002 H       1  LIG1        0.0656
     23 H          -4.8909    9.4480   -0.0004 H       1  LIG1        0.0649
@<TRIPOS>BOND
     1     7     2    1
     2    20    19   ar
     3    20    16   ar
     4    23    18    1
     5    18    19   ar
     6    18    17   ar
     7    21    19    1
     8     2     3   ar
     9     2     1   ar
    10    17    16   ar
    11    17    22    1
    12    16    12    1
    13    13    12   ar
    14    13     9   ar
    15    12    11   ar
    16     5     4   ar
    17     5     1   ar
    18     9     4    1
    19     9    10   ar
    20     4     3   ar
    21    11    10   ar
    22    11    15    1
    23    10    14    1
    24     3     8    1
    25     1     6    1
