@<TRIPOS>MOLECULE
mol_data/opt/cam/geoms/mol2/12aa4fd-4al-12di4ah-12dh-13li-6ll.out
 100 107 0 0 0
SMALL
GASTEIGER

@<TRIPOS>ATOM
      1 C           3.6727    2.2463   -2.6751 C.ar    1  LIG1        0.0926
      2 C           4.2910    2.0488   -1.4867 C.ar    1  LIG1       -0.0233
      3 C           4.0187    3.2076   -0.6993 C.ar    1  LIG1       -0.0158
      4 C           3.2504    4.0296   -1.4706 C.ar    1  LIG1        0.1383
      5 O           3.0361    3.4415   -2.6846 O.2     1  LIG1       -0.4628
      6 H           3.5914    1.6625   -3.5780 H       1  LIG1        0.1029
      7 H           4.8721    1.1855   -1.1999 H       1  LIG1        0.0649
      8 H           4.3459    3.4118    0.3057 H       1  LIG1        0.0655
      9 C           2.7597    6.0676   -0.0930 C.ar    1  LIG1        0.1281
     10 C           2.1593    7.3129    0.0444 C.ar    1  LIG1       -0.0105
     11 C           2.6383    5.3389   -1.2886 C.ar    1  LIG1        0.0599
     12 C           1.4170    7.8968   -0.9787 C.ar    1  LIG1        0.0031
     13 H           2.2512    7.8380    0.9908 H       1  LIG1        0.0661
     14 C           1.8975    5.9197   -2.3136 C.ar    1  LIG1       -0.0296
     15 C           1.2928    7.1700   -2.1788 C.ar    1  LIG1        0.0604
     16 H           1.7951    5.3832   -3.2483 H       1  LIG1        0.0639
     17 O           3.4691    5.5137    0.9192 O.3     1  LIG1       -0.5060
     18 H           3.4779    6.1120    1.6761 H       1  LIG1        0.2922
     19 N          -0.0207    8.0557   -4.2304 N.1     1  LIG1       -0.1908
     20 C           0.5714    7.6797   -3.3097 C.1     1  LIG1        0.0998
     21 C           1.5360   10.2346   -0.1152 C.ar    1  LIG1       -0.0531
     22 C           0.9624   11.4764    0.1012 C.ar    1  LIG1       -0.0469
     23 C           0.8140    9.2351   -0.7678 C.ar    1  LIG1       -0.0130
     24 C          -0.3282   11.7753   -0.3388 C.ar    1  LIG1        0.0602
     25 H           1.5321   12.2400    0.6173 H       1  LIG1        0.0626
     26 C          -0.4828    9.5138   -1.2023 C.ar    1  LIG1       -0.0115
     27 C          -1.0491   10.7710   -1.0197 C.ar    1  LIG1        0.1313
     28 H          -1.0535    8.7411   -1.6953 H       1  LIG1        0.0660
     29 H           2.5547   10.0510    0.2060 H       1  LIG1        0.0624
     30 O          -2.2767   11.0952   -1.4846 O.3     1  LIG1       -0.4944
     31 C          -2.9317   10.1821   -2.3493 C.3     1  LIG1        0.0788
     32 H          -3.8136   10.7040   -2.7192 H       1  LIG1        0.0660
     33 H          -2.2931    9.8980   -3.1919 H       1  LIG1        0.0660
     34 H          -3.2474    9.2797   -1.8137 H       1  LIG1        0.0660
     35 C          -0.8730   13.1094   -0.1109 C.ar    1  LIG1        0.1567
     36 C          -0.2841   14.3493   -0.0212 C.ar    1  LIG1        0.1010
     37 C          -1.3217   15.3050    0.2503 C.ar    1  LIG1        0.0133
     38 C          -2.4743   14.5742    0.3109 C.ar    1  LIG1        0.1399
     39 O          -2.1929   13.2530    0.0926 O.2     1  LIG1       -0.4531
     40 N           2.2059   14.9436   -0.3241 N.1     1  LIG1       -0.1907
     41 C           1.0901   14.6612   -0.1962 C.1     1  LIG1        0.1032
     42 C          -1.1149   16.7796    0.3852 C.3     1  LIG1       -0.0349
     43 H          -1.1420   17.0983    1.4320 H       1  LIG1        0.0279
     44 H          -1.8809   17.3410   -0.1542 H       1  LIG1        0.0279
     45 H          -0.1400   17.0631   -0.0164 H       1  LIG1        0.0279
     46 C          -4.2873   16.1245    1.0522 C.ar    1  LIG1       -0.0503
     47 C          -5.6300   16.3767    1.2209 C.ar    1  LIG1       -0.0486
     48 C          -3.8822   14.8924    0.5155 C.ar    1  LIG1        0.0194
     49 C          -6.6247   15.4432    0.8862 C.ar    1  LIG1        0.0393
     50 H          -5.9270   17.3314    1.6376 H       1  LIG1        0.0625
     51 C          -4.8487   13.9568    0.1731 C.ar    1  LIG1       -0.0297
     52 C          -6.2214   14.1934    0.3401 C.ar    1  LIG1        0.0360
     53 H          -4.5335   13.0082   -0.2482 H       1  LIG1        0.0643
     54 H          -3.5621   16.8675    1.3536 H       1  LIG1        0.0625
     55 N          -7.0899   13.2102   -0.0635 N.pl3   1  LIG1       -0.3574
     56 H          -8.0718   13.2510    0.1595 H       1  LIG1        0.1423
     57 H          -6.6994   12.2924   -0.1962 H       1  LIG1        0.1423
     58 C          -8.0124   15.7826    1.1434 C.ar    1  LIG1        0.1567
     59 C          -8.6561   16.7877    1.8359 C.ar    1  LIG1        0.1187
     60 C         -10.0730   16.5353    1.7359 C.ar    1  LIG1        0.0908
     61 C         -10.2016   15.3987    1.0011 C.ar    1  LIG1        0.1772
     62 O          -8.9632   14.9618    0.6308 O.2     1  LIG1       -0.4499
     63 N          -7.7169   18.7827    3.1640 N.1     1  LIG1       -0.1907
     64 C          -8.1067   17.8743    2.5591 C.1     1  LIG1        0.1048
     65 N         -11.1508   17.2756    2.2797 N.pl3   1  LIG1       -0.3540
     66 H         -10.9330   17.6018    3.2163 H       1  LIG1        0.1425
     67 H         -11.3560   18.0961    1.7161 H       1  LIG1        0.1425
     68 C         -11.3216   14.6042    0.5903 C.ar    1  LIG1        0.1269
     69 C         -11.3794   13.4303   -0.1441 C.ar    1  LIG1        0.1518
     70 C         -12.7245   13.0079   -0.2170 C.ar    1  LIG1        0.0174
     71 C         -13.4715   13.9547    0.4898 C.ar    1  LIG1        0.0588
     72 N         -12.5989   14.9021    0.9588 N.ar    1  LIG1       -0.3484
     73 H         -12.8536   15.6593    1.5808 H       1  LIG1        0.1661
     74 O         -10.3050   12.7622   -0.6737 O.3     1  LIG1       -0.4926
     75 C          -9.9722   13.1744   -1.9955 C.3     1  LIG1        0.0789
     76 H          -9.1126   12.5793   -2.3056 H       1  LIG1        0.0660
     77 H         -10.8079   13.0018   -2.6825 H       1  LIG1        0.0660
     78 H          -9.6986   14.2341   -2.0177 H       1  LIG1        0.0660
     79 C         -13.1456   11.7422   -0.8958 C.3     1  LIG1       -0.0342
     80 H         -13.6454   11.9182   -1.8556 H       1  LIG1        0.0279
     81 H         -13.8204   11.1467   -0.2742 H       1  LIG1        0.0279
     82 H         -12.2584   11.1379   -1.0979 H       1  LIG1        0.0279
     83 C         -15.4802   14.8861    1.7220 C.ar    1  LIG1        0.2240
     84 C         -14.9100   14.0397    0.7436 C.ar    1  LIG1        0.0636
     85 C         -15.8185   13.2726    0.0102 C.ar    1  LIG1       -0.0042
     86 C         -17.1832   13.3422    0.2761 C.ar    1  LIG1        0.1390
     87 C         -17.6142   14.2010    1.2776 C.ar    1  LIG1        0.0730
     88 N         -16.7698   14.9571    1.9750 N.ar    1  LIG1       -0.2171
     89 H         -15.4504   12.6331   -0.7768 H       1  LIG1        0.0663
     90 H         -18.6727   14.2749    1.5081 H       1  LIG1        0.0868
     91 O         -14.6435   15.6800    2.4420 O.3     1  LIG1       -0.4792
     92 C         -15.2266   16.5080    3.4401 C.3     1  LIG1        0.0804
     93 H         -14.3921   17.0445    3.8907 H       1  LIG1        0.0660
     94 H         -15.9407   17.2089    3.0022 H       1  LIG1        0.0660
     95 H         -15.7459   15.9091    4.1913 H       1  LIG1        0.0660
     96 O         -18.1443   12.6355   -0.3769 O.3     1  LIG1       -0.4936
     97 C         -17.7368   11.7515   -1.3977 C.3     1  LIG1        0.0789
     98 H         -18.6454   11.2855   -1.7780 H       1  LIG1        0.0660
     99 H         -17.2365   12.2816   -2.2172 H       1  LIG1        0.0660
    100 H         -17.0671   10.9717   -1.0152 H       1  LIG1        0.0660
@<TRIPOS>BOND
     1    19    20    3
     2     6     1    1
     3    20    15    1
     4    16    14    1
     5    33    31    1
     6    32    31    1
     7     5     1   ar
     8     5     4   ar
     9    77    75    1
    10     1     2   ar
    11    31    34    1
    12    31    30    1
    13    14    15   ar
    14    14    11   ar
    15    76    75    1
    16    99    97    1
    17    15    12   ar
    18    78    75    1
    19    75    74    1
    20    80    79    1
    21    98    97    1
    22    28    26    1
    23     2     7    1
    24     2     3   ar
    25    30    27    1
    26     4    11    1
    27     4     3   ar
    28    97   100    1
    29    97    96    1
    30    11     9   ar
    31    26    27   ar
    32    26    23   ar
    33    82    79    1
    34    27    24   ar
    35    12    23    1
    36    12    10   ar
    37    79    81    1
    38    79    70    1
    39    89    85    1
    40    23    21   ar
    41     3     8    1
    42    74    69    1
    43    96    86    1
    44    24    35    1
    45    24    22   ar
    46    40    41    3
    47    53    51    1
    48    70    69   ar
    49    70    71   ar
    50    41    36    1
    51    57    55    1
    52    44    42    1
    53    69    68   ar
    54    21    22   ar
    55    21    29    1
    56    35    36   ar
    57    35    39   ar
    58     9    10   ar
    59     9    17    1
    60    55    56    1
    61    55    52    1
    62    36    37   ar
    63    45    42    1
    64    85    86   ar
    65    85    84   ar
    66    10    13    1
    67    39    38   ar
    68    22    25    1
    69    51    52   ar
    70    51    48   ar
    71    37    38   ar
    72    37    42    1
    73    86    87   ar
    74    38    48    1
    75    52    49   ar
    76    42    43    1
    77    71    84    1
    78    71    72   ar
    79    48    46   ar
    80    68    72   ar
    81    68    61    1
    82    62    61   ar
    83    62    58   ar
    84    84    83   ar
    85    49    58    1
    86    49    47   ar
    87    17    18    1
    88    72    73    1
    89    61    60   ar
    90    46    47   ar
    91    46    54    1
    92    58    59   ar
    93    47    50    1
    94    87    90    1
    95    87    88   ar
    96    67    65    1
    97    83    88   ar
    98    83    91    1
    99    60    59   ar
   100    60    65    1
   101    59    64    1
   102    65    66    1
   103    91    92    1
   104    64    63    3
   105    94    92    1
   106    92    93    1
   107    92    95    1
