@<TRIPOS>MOLECULE
mol_data/opt/cam/geoms/mol2/12aa12aa-12aa-12aa.out
 30 33 0 0 0
SMALL
GASTEIGER

@<TRIPOS>ATOM
      1 C          -0.0486    1.7336   -0.0002 C.ar    1  LIG1        0.0927
      2 C           1.3041    1.6595    0.0001 C.ar    1  LIG1       -0.0232
      3 C           1.7784    3.0067   -0.0001 C.ar    1  LIG1       -0.0128
      4 C           0.6688    3.7960   -0.0001 C.ar    1  LIG1        0.1697
      5 O          -0.4546    3.0296   -0.0001 O.2     1  LIG1       -0.4598
      6 H          -0.8343    0.9955   -0.0002 H       1  LIG1        0.1029
      7 H           1.8971    0.7575    0.0003 H       1  LIG1        0.0649
      8 H           2.8007    3.3513   -0.0001 H       1  LIG1        0.0656
      9 C           0.4755    5.2214   -0.0001 C.ar    1  LIG1        0.1707
     10 C          -0.6344    6.0128   -0.0001 C.ar    1  LIG1       -0.0121
     11 C          -0.1651    7.3549   -0.0001 C.ar    1  LIG1       -0.0121
     12 C           1.1984    7.2875   -0.0001 C.ar    1  LIG1        0.1707
     13 O           1.5984    5.9874   -0.0001 O.2     1  LIG1       -0.4486
     14 H          -1.6572    5.6695   -0.0000 H       1  LIG1        0.0657
     15 H          -0.7600    8.2557   -0.0001 H       1  LIG1        0.0657
     16 C           2.2246    8.2971   -0.0001 C.ar    1  LIG1        0.1707
     17 C           2.1795    9.6615   -0.0002 C.ar    1  LIG1       -0.0121
     18 C           3.5291   10.1087   -0.0002 C.ar    1  LIG1       -0.0121
     19 C           4.3023    8.9861   -0.0002 C.ar    1  LIG1        0.1707
     20 O           3.5180    7.8759   -0.0001 O.2     1  LIG1       -0.4486
     21 H           1.2885   10.2710   -0.0002 H       1  LIG1        0.0657
     22 H           3.8891   11.1258   -0.0002 H       1  LIG1        0.0657
     23 C           5.7243    8.7695   -0.0002 C.ar    1  LIG1        0.1697
     24 C           6.4954    7.6472   -0.0001 C.ar    1  LIG1       -0.0128
     25 C           7.8501    8.0994   -0.0001 C.ar    1  LIG1       -0.0232
     26 C           7.7982    9.4531   -0.0002 C.ar    1  LIG1        0.0927
     27 O           6.5089    9.8802   -0.0002 O.2     1  LIG1       -0.4598
     28 H           8.5490   10.2266   -0.0003 H       1  LIG1        0.1029
     29 H           6.1341    6.6306   -0.0001 H       1  LIG1        0.0656
     30 H           8.7424    7.4917   -0.0001 H       1  LIG1        0.0649
@<TRIPOS>BOND
     1    28    26    1
     2     6     1    1
     3    27    26   ar
     4    27    23   ar
     5    26    25   ar
     6    22    18    1
     7    18    17   ar
     8    18    19   ar
     9    21    17    1
    10    23    19    1
    11    23    24   ar
    12    17    16   ar
    13    19    20   ar
    14     1     5   ar
    15     1     2   ar
    16    20    16   ar
    17    16    12    1
    18    25    24   ar
    19    25    30    1
    20    24    29    1
    21    12    13   ar
    22    12    11   ar
    23    13     9   ar
    24    15    11    1
    25    11    10   ar
    26     5     4   ar
    27     3     8    1
    28     3     4   ar
    29     3     2   ar
    30     9     4    1
    31     9    10   ar
    32    10    14    1
    33     2     7    1
