@<TRIPOS>MOLECULE
mol_data/opt/cam/geoms/mol2/12aa12aa12aa12aa.out
 30 33 0 0 0
SMALL
GASTEIGER

@<TRIPOS>ATOM
      1 C           0.7198    1.6748   -0.0000 C.ar    1  LIG1        0.0927
      2 C           2.0636    1.8509   -0.0001 C.ar    1  LIG1       -0.0232
      3 C           2.2785    3.2614    0.0000 C.ar    1  LIG1       -0.0128
      4 C           1.0406    3.8342   -0.0001 C.ar    1  LIG1        0.1697
      5 O           0.0829    2.8716   -0.0001 O.2     1  LIG1       -0.4598
      6 H           0.0836    0.8046   -0.0000 H       1  LIG1        0.1029
      7 H           2.8140    1.0749   -0.0002 H       1  LIG1        0.0649
      8 H           3.2247    3.7811    0.0000 H       1  LIG1        0.0656
      9 C           0.6037    5.2085   -0.0001 C.ar    1  LIG1        0.1707
     10 C           1.2833    6.3924   -0.0000 C.ar    1  LIG1       -0.0121
     11 C           0.3003    7.4179   -0.0001 C.ar    1  LIG1       -0.0121
     12 C          -0.9114    6.7879   -0.0001 C.ar    1  LIG1        0.1707
     13 O          -0.7341    5.4415   -0.0001 O.2     1  LIG1       -0.4486
     14 H           2.3559    6.5145    0.0000 H       1  LIG1        0.0657
     15 H           0.4674    8.4843   -0.0001 H       1  LIG1        0.0657
     16 C          -2.2635    7.2831   -0.0002 C.ar    1  LIG1        0.1707
     17 C          -2.7817    8.5466   -0.0002 C.ar    1  LIG1       -0.0121
     18 C          -4.1946    8.3986   -0.0003 C.ar    1  LIG1       -0.0121
     19 C          -4.4403    7.0558   -0.0003 C.ar    1  LIG1        0.1707
     20 O          -3.2685    6.3696   -0.0002 O.2     1  LIG1       -0.4486
     21 H          -2.2206    9.4687   -0.0002 H       1  LIG1        0.0657
     22 H          -4.9345    9.1844   -0.0003 H       1  LIG1        0.0657
     23 C          -5.6614    6.2886   -0.0003 C.ar    1  LIG1        0.1697
     24 C          -6.9764    6.6509   -0.0004 C.ar    1  LIG1       -0.0128
     25 C          -7.7233    5.4352   -0.0004 C.ar    1  LIG1       -0.0232
     26 C          -6.8111    4.4329   -0.0003 C.ar    1  LIG1        0.0927
     27 O          -5.5520    4.9352   -0.0003 O.2     1  LIG1       -0.4598
     28 H          -6.8873    3.3576   -0.0003 H       1  LIG1        0.1029
     29 H          -7.3632    7.6587   -0.0004 H       1  LIG1        0.0656
     30 H          -8.7974    5.3273   -0.0005 H       1  LIG1        0.0649
@<TRIPOS>BOND
     1    30    25    1
     2    25    24   ar
     3    25    26   ar
     4    29    24    1
     5    24    23   ar
     6    26    28    1
     7    26    27   ar
     8    23    27   ar
     9    23    19    1
    10    22    18    1
    11    19    18   ar
    12    19    20   ar
    13    18    17   ar
    14    20    16   ar
    15    17    21    1
    16    17    16   ar
    17    16    12    1
    18     7     2    1
    19    12    13   ar
    20    12    11   ar
    21    13     9   ar
    22     2     1   ar
    23     2     3   ar
    24    11    15    1
    25    11    10   ar
    26     5     4   ar
    27     5     1   ar
    28     9     4    1
    29     9    10   ar
    30     4     3   ar
    31    10    14    1
    32     1     6    1
    33     3     8    1
