@<TRIPOS>MOLECULE
mol_data/opt/cam/geoms/mol2/12aa12aa12aa12aa-.out
 30 33 0 0 0
SMALL
GASTEIGER

@<TRIPOS>ATOM
      1 C           0.6353    1.6734   -0.0002 C.ar    1  LIG1        0.0927
      2 C           1.9817    1.8285    0.0001 C.ar    1  LIG1       -0.0232
      3 C           2.2187    3.2354   -0.0000 C.ar    1  LIG1       -0.0128
      4 C           0.9900    3.8276   -0.0001 C.ar    1  LIG1        0.1697
      5 O           0.0170    2.8801   -0.0001 O.2     1  LIG1       -0.4598
      6 H          -0.0143    0.8131   -0.0002 H       1  LIG1        0.1029
      7 H           2.7198    1.0408    0.0003 H       1  LIG1        0.0649
      8 H           3.1729    3.7401   -0.0000 H       1  LIG1        0.0656
      9 C           0.5747    5.2086   -0.0001 C.ar    1  LIG1        0.1707
     10 C           1.2721    6.3821   -0.0001 C.ar    1  LIG1       -0.0121
     11 C           0.3048    7.4225   -0.0001 C.ar    1  LIG1       -0.0121
     12 C          -0.9163    6.8111   -0.0001 C.ar    1  LIG1        0.1707
     13 O          -0.7597    5.4617   -0.0001 O.2     1  LIG1       -0.4486
     14 H           2.3463    6.4879   -0.0001 H       1  LIG1        0.0657
     15 H           0.4880    8.4862   -0.0001 H       1  LIG1        0.0657
     16 C          -2.2617    7.3237   -0.0002 C.ar    1  LIG1        0.1707
     17 C          -2.7683    8.5915   -0.0002 C.ar    1  LIG1       -0.0121
     18 C          -4.1840    8.4588   -0.0003 C.ar    1  LIG1       -0.0121
     19 C          -4.4406    7.1199   -0.0003 C.ar    1  LIG1        0.1707
     20 O          -3.2767    6.4189   -0.0002 O.2     1  LIG1       -0.4486
     21 H          -2.1974    9.5076   -0.0002 H       1  LIG1        0.0657
     22 H          -4.9223    9.2455   -0.0003 H       1  LIG1        0.0657
     23 C          -5.6548    6.3486   -0.0003 C.ar    1  LIG1        0.1697
     24 C          -5.9065    5.0105   -0.0003 C.ar    1  LIG1       -0.0128
     25 C          -7.3284    4.8772   -0.0003 C.ar    1  LIG1       -0.0232
     26 C          -7.8279    6.1365   -0.0004 C.ar    1  LIG1        0.0927
     27 O          -6.8211    7.0481   -0.0004 O.2     1  LIG1       -0.4598
     28 H          -8.8272    6.5408   -0.0005 H       1  LIG1        0.1029
     29 H          -5.1647    4.2269   -0.0002 H       1  LIG1        0.0656
     30 H          -7.8992    3.9608   -0.0003 H       1  LIG1        0.0649
@<TRIPOS>BOND
     1    28    26    1
     2    26    27   ar
     3    26    25   ar
     4    27    23   ar
     5    25    30    1
     6    25    24   ar
     7    23    24   ar
     8    23    19    1
     9    22    18    1
    10    24    29    1
    11    19    18   ar
    12    19    20   ar
    13    18    17   ar
    14     6     1    1
    15    20    16   ar
    16    17    21    1
    17    17    16   ar
    18    16    12    1
    19     1     5   ar
    20     1     2   ar
    21    12    13   ar
    22    12    11   ar
    23    13     9   ar
    24     5     4   ar
    25    11    15    1
    26    11    10   ar
    27     9    10   ar
    28     9     4    1
    29    10    14    1
    30     4     3   ar
    31     3     8    1
    32     3     2   ar
    33     2     7    1
