@<TRIPOS>MOLECULE
mol_data/opt/cam/geoms/mol2/12ad6id-13li6hh-.out
 51 54 0 0 0
SMALL
GASTEIGER

@<TRIPOS>ATOM
      1 C          -0.2546   10.2302    8.6354 C.ar    1  LIG1        0.0939
      2 C           0.8661   10.9752    8.7922 C.ar    1  LIG1       -0.0058
      3 C           1.2503   11.3931    7.4699 C.ar    1  LIG1        0.0974
      4 C           0.3201   10.8577    6.5912 C.ar    1  LIG1        0.1538
      5 O          -0.5941   10.1505    7.3137 O.2     1  LIG1       -0.4615
      6 H          -0.9056    9.7095    9.3191 H       1  LIG1        0.1030
      7 H           1.3715   11.2188    9.7142 H       1  LIG1        0.0662
      8 N           3.2696   12.9034    6.9097 N.1     1  LIG1       -0.1907
      9 C           2.3555   12.2237    7.1519 C.1     1  LIG1        0.1030
     10 C          -1.0757   10.8224    4.4705 C.ar    1  LIG1        0.0497
     11 C           0.1781   10.8953    5.1412 C.ar    1  LIG1        0.0408
     12 C           1.3135   11.0486    4.3396 C.ar    1  LIG1       -0.0298
     13 C           1.2234   11.0691    2.9444 C.ar    1  LIG1        0.0799
     14 C          -0.0549   10.8746    2.3516 C.ar    1  LIG1        0.1083
     15 N          -1.1522   10.8026    3.1438 N.ar    1  LIG1       -0.2483
     16 H           2.2906   11.1688    4.7933 H       1  LIG1        0.0639
     17 C          -2.3992   10.7785    5.1924 C.3     1  LIG1       -0.0216
     18 H          -2.4473   11.5207    5.9941 H       1  LIG1        0.0293
     19 H          -2.5655    9.8003    5.6540 H       1  LIG1        0.0293
     20 H          -3.1957   10.9666    4.4716 H       1  LIG1        0.0293
     21 N           3.4355   11.6830    1.7453 N.1     1  LIG1       -0.1908
     22 C           2.4224   11.3715    2.2261 C.1     1  LIG1        0.1014
     23 C          -0.3491   10.7693    0.9391 C.ar    1  LIG1        0.1091
     24 C           0.3704   10.4177   -0.2171 C.ar    1  LIG1        0.1503
     25 C          -0.5247   10.3661   -1.3145 C.ar    1  LIG1        0.0173
     26 C          -1.7923   10.7010   -0.8074 C.ar    1  LIG1        0.0568
     27 N          -1.6607   10.9088    0.5360 N.ar    1  LIG1       -0.3497
     28 H          -2.4101   11.1350    1.1767 H       1  LIG1        0.1661
     29 O           1.6763   10.0357   -0.2129 O.3     1  LIG1       -0.4927
     30 C           2.5641   10.7699   -1.0676 C.3     1  LIG1        0.0789
     31 H           3.5658   10.4037   -0.8449 H       1  LIG1        0.0660
     32 H           2.3348   10.6001   -2.1244 H       1  LIG1        0.0660
     33 H           2.5233   11.8400   -0.8452 H       1  LIG1        0.0660
     34 C          -0.1900    9.8887   -2.6976 C.3     1  LIG1       -0.0342
     35 H           0.1867   10.6868   -3.3507 H       1  LIG1        0.0279
     36 H          -1.0666    9.4536   -3.1854 H       1  LIG1        0.0279
     37 H           0.5834    9.1157   -2.6519 H       1  LIG1        0.0279
     38 C          -4.3194   10.5472   -0.8511 C.ar    1  LIG1        0.1254
     39 C          -3.0827   10.8477   -1.4865 C.ar    1  LIG1        0.0399
     40 C          -3.1462   11.3254   -2.8002 C.ar    1  LIG1       -0.0272
     41 C          -4.3752   11.4995   -3.4484 C.ar    1  LIG1        0.0437
     42 C          -5.5227   11.1857   -2.7100 C.ar    1  LIG1        0.0503
     43 N          -5.4931   10.7195   -1.4590 N.ar    1  LIG1       -0.2382
     44 H          -2.2295   11.6066   -3.3083 H       1  LIG1        0.0644
     45 H          -6.5101   11.3150   -3.1527 H       1  LIG1        0.0849
     46 N          -4.3772   10.1007    0.4808 N.pl3   1  LIG1       -0.3426
     47 H          -5.3233    9.8137    0.7057 H       1  LIG1        0.1437
     48 H          -3.7062    9.3743    0.7080 H       1  LIG1        0.1437
     49 N          -4.4563   12.0413   -4.7373 N.pl3   1  LIG1       -0.3568
     50 H          -3.6610   11.8395   -5.3287 H       1  LIG1        0.1424
     51 H          -5.3234   11.8399   -5.2181 H       1  LIG1        0.1424
@<TRIPOS>BOND
     1    50    49    1
     2    51    49    1
     3    49    41    1
     4    41    40   ar
     5    41    42   ar
     6    35    34    1
     7    44    40    1
     8    36    34    1
     9    45    42    1
    10    40    39   ar
    11    42    43   ar
    12    34    37    1
    13    34    25    1
    14    32    30    1
    15    39    38   ar
    16    39    26    1
    17    43    38   ar
    18    25    26   ar
    19    25    24   ar
    20    30    33    1
    21    30    31    1
    22    30    29    1
    23    38    46    1
    24    26    27   ar
    25    24    29    1
    26    24    23   ar
    27    46    47    1
    28    46    48    1
    29    27    23   ar
    30    27    28    1
    31    23    14    1
    32    21    22    3
    33    22    13    1
    34    14    13   ar
    35    14    15   ar
    36    13    12   ar
    37    15    10   ar
    38    12    16    1
    39    12    11   ar
    40    10    11   ar
    41    10    17    1
    42    20    17    1
    43    11     4    1
    44    17    19    1
    45    17    18    1
    46     4     5   ar
    47     4     3   ar
    48     8     9    3
    49     9     3    1
    50     5     1   ar
    51     3     2   ar
    52     1     2   ar
    53     1     6    1
    54     2     7    1
