@<TRIPOS>MOLECULE
mol_data/opt/cam/geoms/mol2/12ad13ei-4da-13hh.out
 46 49 0 0 0
SMALL
GASTEIGER

@<TRIPOS>ATOM
      1 C           0.1424    1.8417   -0.8446 C.ar    1  LIG1        0.0939
      2 C           1.4693    1.7712   -1.0658 C.ar    1  LIG1       -0.0058
      3 C           1.9891    3.0884   -0.8161 C.ar    1  LIG1        0.0988
      4 C           0.9191    3.8652   -0.4393 C.ar    1  LIG1        0.1693
      5 O          -0.2068    3.1024   -0.4633 O.2     1  LIG1       -0.4601
      6 H          -0.6621    1.1273   -0.9054 H       1  LIG1        0.1030
      7 H           2.0390    0.9109   -1.3808 H       1  LIG1        0.0662
      8 N           4.4502    3.7133   -1.2489 N.1     1  LIG1       -0.1907
      9 C           3.3405    3.4692   -1.0301 C.1     1  LIG1        0.1030
     10 C           0.7070    5.2405   -0.0693 C.ar    1  LIG1        0.0996
     11 C           1.5344    6.2266    0.4582 C.ar    1  LIG1        0.0565
     12 C           0.7510    7.4092    0.6197 C.ar    1  LIG1       -0.0091
     13 C          -0.5286    7.1044    0.1948 C.ar    1  LIG1        0.0524
     14 N          -0.5394    5.7877   -0.1971 N.ar    1  LIG1       -0.3505
     15 H          -1.3206    5.3155   -0.6230 H       1  LIG1        0.1660
     16 C           2.8869    6.0854    0.8625 C.1     1  LIG1       -0.0672
     17 C           4.0282    5.9876    1.2328 C.1     1  LIG1       -0.1138
     18 H           5.0479    5.8762    1.5213 H       1  LIG1        0.1232
     19 C           1.2508    8.6858    1.2129 C.3     1  LIG1       -0.0365
     20 H           0.4359    9.2701    1.6460 H       1  LIG1        0.0279
     21 H           1.7397    9.3114    0.4610 H       1  LIG1        0.0279
     22 H           1.9803    8.4751    1.9983 H       1  LIG1        0.0279
     23 C          -1.8752    9.1677   -0.3667 C.ar    1  LIG1        0.0615
     24 C          -3.0773    9.8745   -0.3412 C.ar    1  LIG1       -0.0345
     25 C          -1.7746    7.8784    0.1883 C.ar    1  LIG1        0.0160
     26 C          -4.2365    9.3134    0.2053 C.ar    1  LIG1        0.0014
     27 H          -3.1045   10.8811   -0.7424 H       1  LIG1        0.0637
     28 C          -2.9399    7.3278    0.7318 C.ar    1  LIG1       -0.0508
     29 C          -4.1397    8.0159    0.7318 C.ar    1  LIG1       -0.0519
     30 H          -2.8921    6.3382    1.1749 H       1  LIG1        0.0625
     31 N           0.1259   10.3054   -1.5599 N.1     1  LIG1       -0.1908
     32 C          -0.7522    9.7842   -1.0164 C.1     1  LIG1        0.0998
     33 H          -5.0235    7.5329    1.1364 H       1  LIG1        0.0624
     34 C          -5.4824   10.0584    0.2266 C.ar    1  LIG1        0.0693
     35 C          -5.9377   11.0864   -0.5808 C.ar    1  LIG1        0.0711
     36 C          -7.2361   11.4528   -0.1269 C.ar    1  LIG1        0.0637
     37 C          -7.5415   10.6415    0.9390 C.ar    1  LIG1        0.0249
     38 N          -6.5053    9.7707    1.1216 N.ar    1  LIG1       -0.3575
     39 H          -6.3801    9.2133    1.9494 H       1  LIG1        0.1654
     40 H          -8.4218   10.6099    1.5636 H       1  LIG1        0.0826
     41 N          -5.3133   11.7026   -1.6665 N.pl3   1  LIG1       -0.3549
     42 H          -4.7766   11.0668   -2.2434 H       1  LIG1        0.1424
     43 H          -6.0054   12.1906   -2.2266 H       1  LIG1        0.1424
     44 N          -8.0080   12.4429   -0.7855 N.pl3   1  LIG1       -0.3554
     45 H          -9.0027   12.2875   -0.6795 H       1  LIG1        0.1424
     46 H          -7.7939   13.3774   -0.4519 H       1  LIG1        0.1424
@<TRIPOS>BOND
     1    42    41    1
     2    43    41    1
     3    41    35    1
     4    31    32    3
     5     7     2    1
     6     8     9    3
     7     2     1   ar
     8     2     3   ar
     9     9     3    1
    10    32    23    1
    11     6     1    1
    12     1     5   ar
    13     3     4   ar
    14    44    45    1
    15    44    46    1
    16    44    36    1
    17    27    24    1
    18    15    14    1
    19    35    36   ar
    20    35    34   ar
    21     5     4   ar
    22     4    10    1
    23    23    24   ar
    24    23    25   ar
    25    24    26   ar
    26    14    10   ar
    27    14    13   ar
    28    36    37   ar
    29    10    11   ar
    30    25    13    1
    31    25    28   ar
    32    13    12   ar
    33    26    34    1
    34    26    29   ar
    35    34    38   ar
    36    11    12   ar
    37    11    16    1
    38    21    19    1
    39    12    19    1
    40    28    29   ar
    41    28    30    1
    42    29    33    1
    43    16    17    3
    44    37    38   ar
    45    37    40    1
    46    38    39    1
    47    19    20    1
    48    19    22    1
    49    17    18    1
