@<TRIPOS>MOLECULE
mol_data/opt/cam/geoms/mol2/12ad4hf4ei4id6fd13af-4id-12ea.out
 95 102 0 0 0
SMALL
GASTEIGER

@<TRIPOS>ATOM
      1 C           0.3168    1.4524    1.0189 C.ar    1  LIG1        0.0939
      2 C           1.5644    1.2813    0.5396 C.ar    1  LIG1       -0.0058
      3 C           2.0112    2.5901    0.1511 C.ar    1  LIG1        0.0974
      4 C           0.9936    3.4706    0.4387 C.ar    1  LIG1        0.1539
      5 O          -0.0382    2.7643    0.9631 O.2     1  LIG1       -0.4615
      6 H          -0.4214    0.7809    1.4261 H       1  LIG1        0.1030
      7 H           2.1174    0.3591    0.4527 H       1  LIG1        0.0662
      8 N           4.2482    3.1647   -0.9899 N.1     1  LIG1       -0.1907
      9 C           3.2411    2.8935   -0.4851 C.1     1  LIG1        0.1030
     10 C           1.7344    5.8947    0.5039 C.ar    1  LIG1        0.0362
     11 C           1.3413    7.2321    0.3680 C.ar    1  LIG1       -0.0291
     12 C           0.7607    4.9040    0.2736 C.ar    1  LIG1        0.0426
     13 C           0.0547    7.6241    0.0308 C.ar    1  LIG1        0.0265
     14 H           2.0845    8.0027    0.5431 H       1  LIG1        0.0643
     15 C          -0.5424    5.2954   -0.0701 C.ar    1  LIG1       -0.0071
     16 C          -0.9042    6.6217   -0.1898 C.ar    1  LIG1        0.1254
     17 H          -1.2844    4.5218   -0.2424 H       1  LIG1        0.0662
     18 N           3.0199    5.6135    0.9583 N.pl3   1  LIG1       -0.3574
     19 H           3.5129    4.8569    0.5066 H       1  LIG1        0.1423
     20 H           3.6081    6.4328    1.0116 H       1  LIG1        0.1423
     21 O          -2.1717    7.0020   -0.5315 O.3     1  LIG1       -0.5061
     22 H          -2.7006    6.2149   -0.7051 H       1  LIG1        0.2922
     23 C           0.4551    9.9607   -0.8579 C.ar    1  LIG1        0.0331
     24 C           0.0937   11.3130   -0.8786 C.ar    1  LIG1       -0.0378
     25 C          -0.2935    9.0645   -0.0744 C.ar    1  LIG1        0.0013
     26 C          -0.9845   11.7942   -0.1492 C.ar    1  LIG1       -0.0135
     27 H           0.6733   11.9948   -1.4917 H       1  LIG1        0.0636
     28 C          -1.3819    9.5636    0.6417 C.ar    1  LIG1       -0.0493
     29 C          -1.7461   10.9048    0.6258 C.ar    1  LIG1       -0.0421
     30 H          -1.9704    8.8690    1.2303 H       1  LIG1        0.0627
     31 C           1.5626    9.5461   -1.6678 C.1     1  LIG1       -0.0690
     32 C           2.4945    9.2494   -2.3698 C.1     1  LIG1       -0.1139
     33 H           3.3124    8.9690   -2.9931 H       1  LIG1        0.1232
     34 C          -2.9364   11.3779    1.4179 C.3     1  LIG1       -0.0391
     35 H          -3.3763   10.5572    1.9867 H       1  LIG1        0.0278
     36 H          -3.7125   11.7872    0.7642 H       1  LIG1        0.0278
     37 H          -2.6662   12.1702    2.1228 H       1  LIG1        0.0278
     38 C          -0.7602   14.1659    0.6932 C.ar    1  LIG1       -0.0421
     39 C          -1.1033   15.5114    0.5865 C.ar    1  LIG1       -0.0491
     40 C          -1.3199   13.2486   -0.2138 C.ar    1  LIG1       -0.0134
     41 C          -1.9737   15.9918   -0.3912 C.ar    1  LIG1        0.0049
     42 H          -0.6842   16.2197    1.2943 H       1  LIG1        0.0627
     43 C          -2.1855   13.7093   -1.1972 C.ar    1  LIG1       -0.0358
     44 C          -2.5129   15.0645   -1.2999 C.ar    1  LIG1        0.0602
     45 H          -2.6051   13.0094   -1.9115 H       1  LIG1        0.0637
     46 C           0.1962   13.7109    1.7613 C.3     1  LIG1       -0.0391
     47 H           0.4971   14.5422    2.4008 H       1  LIG1        0.0278
     48 H           1.0963   13.2742    1.3199 H       1  LIG1        0.0278
     49 H          -0.2498   12.9364    2.3913 H       1  LIG1        0.0278
     50 N          -4.0695   15.8144   -3.2332 N.1     1  LIG1       -0.1908
     51 C          -3.3724   15.4902   -2.3691 C.1     1  LIG1        0.0998
     52 C          -3.5811   17.9592   -0.2672 C.ar    1  LIG1        0.2209
     53 C          -2.2789   17.4432   -0.4625 C.ar    1  LIG1        0.0460
     54 C          -1.2812   18.3769   -0.6690 C.ar    1  LIG1       -0.0294
     55 C          -1.5652   19.7444   -0.7074 C.ar    1  LIG1        0.0799
     56 C          -2.9015   20.1500   -0.5241 C.ar    1  LIG1        0.1083
     57 N          -3.8644   19.2438   -0.3013 N.ar    1  LIG1       -0.2097
     58 H          -0.2589   18.0456   -0.8166 H       1  LIG1        0.0639
     59 O          -4.6311   17.1686   -0.0016 O.3     1  LIG1       -0.4920
     60 H          -4.3544   16.2432    0.0186 H       1  LIG1        0.2937
     61 N           0.3993   21.3767   -1.1077 N.1     1  LIG1       -0.1908
     62 C          -0.4926   20.6605   -0.9300 C.1     1  LIG1        0.1014
     63 C          -3.3643   21.5264   -0.5449 C.ar    1  LIG1        0.0703
     64 C          -2.7443   22.7571   -0.7182 C.ar    1  LIG1        0.0073
     65 C          -3.7495   23.7308   -0.6043 C.ar    1  LIG1        0.1427
     66 C          -4.9609   23.0970   -0.3512 C.ar    1  LIG1        0.0892
     67 N          -4.6979   21.7556   -0.3475 N.ar    1  LIG1       -0.3500
     68 H          -5.3423   21.0024   -0.1535 H       1  LIG1        0.1661
     69 H          -1.7030   22.9463   -0.9205 H       1  LIG1        0.0676
     70 O          -3.5286   25.0703   -0.7437 O.3     1  LIG1       -0.5046
     71 H          -4.3345   25.4867   -1.0728 H       1  LIG1        0.2922
     72 C          -6.6117   24.6518    0.7406 C.ar    1  LIG1       -0.0405
     73 C          -7.9163   25.1262    0.8199 C.ar    1  LIG1       -0.0463
     74 C          -6.3162   23.6414   -0.1973 C.ar    1  LIG1        0.0060
     75 C          -8.9542   24.6377    0.0235 C.ar    1  LIG1        0.0361
     76 H          -8.1452   25.8928    1.5498 H       1  LIG1        0.0628
     77 C          -7.3454   23.1361   -0.9898 C.ar    1  LIG1       -0.0342
     78 C          -8.6523   23.6122   -0.8944 C.ar    1  LIG1        0.0631
     79 H          -7.1243   22.3681   -1.7230 H       1  LIG1        0.0637
     80 C          -5.5716   25.1707    1.6965 C.3     1  LIG1       -0.0391
     81 H          -6.0102   25.8849    2.3951 H       1  LIG1        0.0278
     82 H          -4.7404   25.6553    1.1793 H       1  LIG1        0.0278
     83 H          -5.1374   24.3478    2.2718 H       1  LIG1        0.0278
     84 N         -10.3267   22.5599   -2.5686 N.1     1  LIG1       -0.1908
     85 C          -9.6157   23.0494   -1.7989 C.1     1  LIG1        0.0999
     86 C         -10.2947   25.1899    0.1773 C.ar    1  LIG1        0.1513
     87 C         -10.7719   26.4010    0.6253 C.ar    1  LIG1        0.0703
     88 C         -12.2022   26.3243    0.5287 C.ar    1  LIG1       -0.0078
     89 C         -12.4812   25.0965    0.0392 C.ar    1  LIG1        0.0938
     90 O         -11.3391   24.4022   -0.1740 O.2     1  LIG1       -0.4616
     91 H         -13.3968   24.5822   -0.2041 H       1  LIG1        0.1030
     92 C         -10.0322   27.5307    1.0669 C.1     1  LIG1       -0.0659
     93 C          -9.4353   28.5049    1.4475 C.1     1  LIG1       -0.1138
     94 H          -8.9064   29.3702    1.7752 H       1  LIG1        0.1232
     95 H         -12.9031   27.1012    0.7915 H       1  LIG1        0.0661
@<TRIPOS>BOND
     1    50    51    3
     2    33    32    1
     3    84    85    3
     4    32    31    3
     5    51    44    1
     6    45    43    1
     7    85    78    1
     8    79    77    1
     9    31    23    1
    10    27    24    1
    11    44    43   ar
    12    44    41   ar
    13    43    40   ar
    14    61    62    3
    15    71    70    1
    16     8     9    3
    17    77    78   ar
    18    77    74   ar
    19    62    55    1
    20    69    64    1
    21    78    75   ar
    22    24    23   ar
    23    24    26   ar
    24    23    25   ar
    25    58    54    1
    26    70    65    1
    27    64    65   ar
    28    64    63   ar
    29    55    54   ar
    30    55    56   ar
    31    22    21    1
    32    54    53   ar
    33    65    66   ar
    34    63    56    1
    35    63    67   ar
    36    21    16    1
    37    56    57   ar
    38     9     3    1
    39    53    41    1
    40    53    52   ar
    41    41    39   ar
    42    66    67   ar
    43    66    74    1
    44    67    68    1
    45    57    52   ar
    46    52    59    1
    47    17    15    1
    48    40    26    1
    49    40    38   ar
    50    91    89    1
    51    74    72   ar
    52    16    15   ar
    53    16    13   ar
    54    90    89   ar
    55    90    86   ar
    56    26    29   ar
    57    25    13    1
    58    25    28   ar
    59    15    12   ar
    60    59    60    1
    61    75    86    1
    62    75    73   ar
    63    13    11   ar
    64    89    88   ar
    65     3     4   ar
    66     3     2   ar
    67    86    87   ar
    68    12     4    1
    69    12    10   ar
    70    11    10   ar
    71    11    14    1
    72     4     5   ar
    73     7     2    1
    74    10    18    1
    75    19    18    1
    76    88    87   ar
    77    88    95    1
    78     2     1   ar
    79    39    38   ar
    80    39    42    1
    81    87    92    1
    82    29    28   ar
    83    29    34    1
    84    28    30    1
    85    38    46    1
    86    72    73   ar
    87    72    80    1
    88    36    34    1
    89    73    76    1
    90    18    20    1
    91     5     1   ar
    92     1     6    1
    93    92    93    3
    94    82    80    1
    95    48    46    1
    96    34    35    1
    97    34    37    1
    98    93    94    1
    99    80    83    1
   100    80    81    1
   101    46    49    1
   102    46    47    1
