@<TRIPOS>MOLECULE
mol_data/opt/cam/geoms/mol2/12ad13fi13ih-6ei.out
 49 52 0 0 0
SMALL
GASTEIGER

@<TRIPOS>ATOM
      1 C           0.5467    1.8585   -0.8614 C.ar    1  LIG1        0.0939
      2 C           1.8802    1.8494   -0.6793 C.ar    1  LIG1       -0.0058
      3 C           2.2463    3.1852   -0.2879 C.ar    1  LIG1        0.0989
      4 C           1.0773    3.9127   -0.2529 C.ar    1  LIG1        0.1717
      5 O           0.0436    3.1034   -0.6047 O.2     1  LIG1       -0.4600
      6 H          -0.1717    1.1116   -1.1564 H       1  LIG1        0.1030
      7 H           2.5540    1.0164   -0.8057 H       1  LIG1        0.0662
      8 N           4.6889    3.9129    0.0844 N.1     1  LIG1       -0.1907
      9 C           3.5781    3.6224   -0.0631 C.1     1  LIG1        0.1030
     10 C           0.7172    5.2682    0.0361 C.ar    1  LIG1        0.1261
     11 C           1.4046    6.3170    0.6206 C.ar    1  LIG1        0.1486
     12 C           0.5644    7.4567    0.6553 C.ar    1  LIG1        0.0184
     13 C          -0.6365    7.0713    0.0773 C.ar    1  LIG1        0.0702
     14 N          -0.5426    5.7507   -0.2650 N.ar    1  LIG1       -0.3474
     15 H          -1.2166    5.2513   -0.8225 H       1  LIG1        0.1662
     16 O           2.6490    6.1948    1.1357 O.3     1  LIG1       -0.5043
     17 H           3.0185    7.0670    1.3126 H       1  LIG1        0.2922
     18 C           0.8986    8.7645    1.2999 C.3     1  LIG1       -0.0342
     19 H          -0.0093    9.3359    1.5022 H       1  LIG1        0.0279
     20 H           1.5481    9.3917    0.6787 H       1  LIG1        0.0279
     21 H           1.4073    8.6108    2.2582 H       1  LIG1        0.0279
     22 C          -1.8760    7.7957   -0.1371 C.ar    1  LIG1        0.0684
     23 C          -2.1278    9.0533   -0.6635 C.ar    1  LIG1       -0.0025
     24 C          -3.5379    9.2028   -0.7005 C.ar    1  LIG1        0.0539
     25 C          -4.1177    8.0387   -0.2017 C.ar    1  LIG1        0.0708
     26 N          -3.0738    7.1952    0.1157 N.ar    1  LIG1       -0.3513
     27 H          -3.1903    6.2944    0.5522 H       1  LIG1        0.1660
     28 C          -1.1292   10.0332   -1.1919 C.3     1  LIG1       -0.0359
     29 H          -0.9883   10.8932   -0.5277 H       1  LIG1        0.0279
     30 H          -1.4361   10.4256   -2.1686 H       1  LIG1        0.0279
     31 H          -0.1558    9.5584   -1.3287 H       1  LIG1        0.0279
     32 N          -4.2081   10.3449   -1.1686 N.pl3   1  LIG1       -0.3561
     33 H          -3.5850   10.9765   -1.6551 H       1  LIG1        0.1424
     34 H          -4.9971   10.1261   -1.7652 H       1  LIG1        0.1424
     35 C          -6.0186    6.3843    0.1338 C.ar    1  LIG1        0.1223
     36 C          -5.5186    7.7022    0.0147 C.ar    1  LIG1        0.0342
     37 C          -6.4643    8.7310    0.1399 C.ar    1  LIG1       -0.0456
     38 C          -7.8071    8.4571    0.3419 C.ar    1  LIG1       -0.0316
     39 C          -8.1728    7.1122    0.4324 C.ar    1  LIG1        0.0319
     40 N          -7.3134    6.1105    0.3398 N.ar    1  LIG1       -0.2458
     41 H          -6.1237    9.7605    0.1045 H       1  LIG1        0.0628
     42 H          -9.2133    6.8385    0.5973 H       1  LIG1        0.0832
     43 C          -5.1774    5.2178    0.0482 C.1     1  LIG1       -0.0491
     44 C          -4.4966    4.2247   -0.0045 C.1     1  LIG1       -0.1124
     45 H          -3.9188    3.3301   -0.0582 H       1  LIG1        0.1232
     46 C          -8.8311    9.5514    0.4564 C.3     1  LIG1       -0.0383
     47 H          -9.6962    9.2256    1.0384 H       1  LIG1        0.0278
     48 H          -9.1960    9.8531   -0.5312 H       1  LIG1        0.0278
     49 H          -8.4120   10.4390    0.9358 H       1  LIG1        0.0278
@<TRIPOS>BOND
     1    30    28    1
     2    34    32    1
     3    33    32    1
     4    31    28    1
     5    28    23    1
     6    28    29    1
     7    32    24    1
     8     6     1    1
     9     1     2   ar
    10     1     5   ar
    11    15    14    1
    12     7     2    1
    13    24    23   ar
    14    24    25   ar
    15     2     3   ar
    16    23    22   ar
    17     5     4   ar
    18    48    46    1
    19     3     4   ar
    20     3     9    1
    21    14    10   ar
    22    14    13   ar
    23     4    10    1
    24    25    36    1
    25    25    26   ar
    26    22    13    1
    27    22    26   ar
    28     9     8    3
    29    45    44    1
    30    44    43    3
    31    36    35   ar
    32    36    37   ar
    33    10    11   ar
    34    43    35    1
    35    13    12   ar
    36    41    37    1
    37    26    27    1
    38    35    40   ar
    39    37    38   ar
    40    40    39   ar
    41    38    39   ar
    42    38    46    1
    43    39    42    1
    44    46    49    1
    45    46    47    1
    46    11    12   ar
    47    11    16    1
    48    12    18    1
    49    20    18    1
    50    16    17    1
    51    18    19    1
    52    18    21    1
