@<TRIPOS>MOLECULE
mol_data/opt/cam/geoms/mol2/12ad6dh4ei-13id-6ff-13dd12el12df-.out
 92 99 0 0 0
SMALL
GASTEIGER

@<TRIPOS>ATOM
      1 C           2.5160    2.3112    2.4493 C.ar    1  LIG1        0.0939
      2 C           1.6603    1.5816    1.7007 C.ar    1  LIG1       -0.0058
      3 C           0.8195    2.5331    1.0362 C.ar    1  LIG1        0.0974
      4 C           1.2376    3.7804    1.4400 C.ar    1  LIG1        0.1549
      5 O           2.2698    3.6352    2.2941 O.2     1  LIG1       -0.4615
      6 H           3.3226    2.0585    3.1179 H       1  LIG1        0.1030
      7 H           1.6087    0.5073    1.6183 H       1  LIG1        0.0662
      8 N          -1.1002    1.9965   -0.5991 N.1     1  LIG1       -0.1907
      9 C          -0.2441    2.2348    0.1426 C.1     1  LIG1        0.1030
     10 C           1.0171    6.2350    1.9753 C.ar    1  LIG1        0.1515
     11 C           0.7907    5.1341    1.1280 C.ar    1  LIG1        0.0561
     12 C           0.0976    5.3808   -0.0509 C.ar    1  LIG1       -0.0255
     13 C          -0.3490    6.6620   -0.3771 C.ar    1  LIG1        0.0517
     14 C          -0.0203    7.7082    0.5220 C.ar    1  LIG1        0.0942
     15 N           0.6183    7.4657    1.6581 N.ar    1  LIG1       -0.2337
     16 H          -0.1146    4.5661   -0.7335 H       1  LIG1        0.0644
     17 N           2.1360    6.0732    4.3135 N.1     1  LIG1       -0.1893
     18 C           1.6514    6.1244    3.2654 C.1     1  LIG1        0.1198
     19 N          -1.1309    6.8569   -1.4864 N.pl3   1  LIG1       -0.3563
     20 H          -1.1867    6.0849   -2.1332 H       1  LIG1        0.1424
     21 H          -1.0907    7.7579   -1.9353 H       1  LIG1        0.1424
     22 C          -0.1342    9.8920   -0.8034 C.ar    1  LIG1        0.0345
     23 C          -0.5731   11.2177   -0.8689 C.ar    1  LIG1       -0.0363
     24 C          -0.4482    9.1231    0.3301 C.ar    1  LIG1        0.0178
     25 C          -1.2943   11.8083    0.1645 C.ar    1  LIG1        0.0027
     26 H          -0.3392   11.7983   -1.7537 H       1  LIG1        0.0637
     27 C          -1.1490    9.7334    1.3682 C.ar    1  LIG1       -0.0478
     28 C          -1.5791   11.0543    1.3198 C.ar    1  LIG1       -0.0406
     29 H          -1.3418    9.1477    2.2604 H       1  LIG1        0.0627
     30 C           0.6522    9.3792   -1.8863 C.1     1  LIG1       -0.0690
     31 C           1.3024    8.9702   -2.8139 C.1     1  LIG1       -0.1139
     32 H           1.8961    8.6107   -3.6234 H       1  LIG1        0.1232
     33 C          -2.3058   11.6367    2.5046 C.3     1  LIG1       -0.0391
     34 H          -2.0709   11.0738    3.4095 H       1  LIG1        0.0278
     35 H          -3.3942   11.5946    2.3810 H       1  LIG1        0.0278
     36 H          -2.0323   12.6806    2.6716 H       1  LIG1        0.0278
     37 C          -1.7068   13.2157    0.0193 C.ar    1  LIG1        0.0514
     38 C          -0.9755   14.3307   -0.3302 C.ar    1  LIG1       -0.0072
     39 C          -1.8873   15.4297   -0.3320 C.ar    1  LIG1        0.0806
     40 C          -3.1487   14.9615    0.0115 C.ar    1  LIG1        0.0700
     41 N          -3.0128   13.6153    0.2082 N.ar    1  LIG1       -0.3528
     42 H          -3.7612   13.0179    0.5256 H       1  LIG1        0.1660
     43 C           0.4851   14.4176   -0.6371 C.3     1  LIG1       -0.0365
     44 H           0.9270   15.2993   -0.1661 H       1  LIG1        0.0279
     45 H           0.6668   14.5050   -1.7131 H       1  LIG1        0.0279
     46 H           1.0167   13.5351   -0.2778 H       1  LIG1        0.0279
     47 N          -1.2492   17.8625   -0.9002 N.1     1  LIG1       -0.1908
     48 C          -1.5472   16.7725   -0.6471 C.1     1  LIG1        0.1016
     49 C          -5.6612   15.0276   -0.0700 C.ar    1  LIG1        0.2225
     50 C          -4.4226   15.6556    0.1975 C.ar    1  LIG1        0.0644
     51 C          -4.4890   16.9555    0.6642 C.ar    1  LIG1       -0.0037
     52 C          -5.7143   17.5910    0.8990 C.ar    1  LIG1        0.1451
     53 C          -6.8809   16.8487    0.6702 C.ar    1  LIG1        0.1334
     54 N          -6.8080   15.5970    0.1696 N.ar    1  LIG1       -0.2072
     55 H          -3.5904   17.5220    0.8778 H       1  LIG1        0.0663
     56 O          -5.7272   13.7579   -0.5724 O.3     1  LIG1       -0.4919
     57 H          -4.9882   13.6229   -1.1808 H       1  LIG1        0.2937
     58 O          -5.6135   18.8708    1.2970 O.3     1  LIG1       -0.5045
     59 H          -6.4080   19.2421    1.7056 H       1  LIG1        0.2922
     60 C          -8.2762   17.2818    0.8488 C.ar    1  LIG1        0.0880
     61 C          -8.9504   18.3210    1.4832 C.ar    1  LIG1        0.0966
     62 C         -10.3538   18.1296    1.2714 C.ar    1  LIG1        0.0980
     63 C         -10.4927   16.9650    0.5313 C.ar    1  LIG1        0.1028
     64 N          -9.2359   16.4942    0.2939 N.ar    1  LIG1       -0.3484
     65 H          -8.9898   15.6402   -0.1931 H       1  LIG1        0.1661
     66 N          -7.8948   20.2151    2.8705 N.1     1  LIG1       -0.1908
     67 C          -8.3891   19.3713    2.2478 C.1     1  LIG1        0.1027
     68 N         -12.1494   19.8145    2.0254 N.1     1  LIG1       -0.1908
     69 C         -11.3614   19.0374    1.6883 C.1     1  LIG1        0.1027
     70 C         -11.6307   16.2514    0.0068 C.ar    1  LIG1        0.1722
     71 C         -12.9495   16.1281    0.3722 C.ar    1  LIG1        0.1142
     72 C         -13.5197   15.2024   -0.5723 C.ar    1  LIG1        0.1849
     73 C         -12.5162   14.8386   -1.4264 C.ar    1  LIG1        0.2146
     74 O         -11.3589   15.4674   -1.0657 O.2     1  LIG1       -0.4451
     75 C         -13.5864   16.6751    1.5137 C.1     1  LIG1       -0.0621
     76 C         -14.1228   17.1280    2.4905 C.1     1  LIG1       -0.1137
     77 H         -14.5780   17.5526    3.3562 H       1  LIG1        0.1232
     78 O         -14.7515   14.6747   -0.5834 O.3     1  LIG1       -0.4901
     79 C         -15.8509   15.5925   -0.6366 C.3     1  LIG1        0.0790
     80 H         -16.7485   14.9779   -0.6163 H       1  LIG1        0.0660
     81 H         -15.8366   16.2678    0.2208 H       1  LIG1        0.0660
     82 H         -15.8267   16.1566   -1.5720 H       1  LIG1        0.0660
     83 C         -12.4654   13.9465   -2.5511 C.ar    1  LIG1        0.1944
     84 C         -13.4241   13.4815   -3.4207 C.ar    1  LIG1        0.1419
     85 C         -12.7355   12.6057   -4.3262 C.ar    1  LIG1        0.1729
     86 C         -11.4317   12.6091   -3.9550 C.ar    1  LIG1        0.1354
     87 O         -11.2665   13.4266   -2.8687 O.2     1  LIG1       -0.4546
     88 H         -10.5470   12.1227   -4.3301 H       1  LIG1        0.1068
     89 N         -15.9080   14.1395   -3.5806 N.1     1  LIG1       -0.1906
     90 C         -14.7942   13.8389   -3.4909 C.1     1  LIG1        0.1068
     91 O         -13.3726   11.9654   -5.3251 O.3     1  LIG1       -0.5028
     92 H         -12.7461   11.4399   -5.8363 H       1  LIG1        0.2923
@<TRIPOS>BOND
     1    92    91    1
     2    91    85    1
     3    88    86    1
     4    85    86   ar
     5    85    84   ar
     6    86    87   ar
     7    32    31    1
     8    89    90    3
     9    90    84    1
    10    84    83   ar
    11    87    83   ar
    12    31    30    3
    13    83    73    1
    14    20    19    1
    15    21    19    1
    16    30    22    1
    17    26    23    1
    18    45    43    1
    19    82    79    1
    20    19    13    1
    21    73    74   ar
    22    73    72   ar
    23    57    56    1
    24    74    70   ar
    25    47    48    3
    26    23    22   ar
    27    23    25   ar
    28    22    24   ar
    29    16    12    1
    30    48    39    1
    31    43    38    1
    32    43    46    1
    33    43    44    1
    34    79    80    1
    35    79    78    1
    36    79    81    1
    37     8     9    3
    38    78    72    1
    39    56    49    1
    40    72    71   ar
    41    13    12   ar
    42    13    14   ar
    43    39    38   ar
    44    39    40   ar
    45    38    37   ar
    46    65    64    1
    47    49    54   ar
    48    49    50   ar
    49    12    11   ar
    50    70    71   ar
    51    70    63    1
    52    40    50    1
    53    40    41   ar
    54    37    25    1
    55    37    41   ar
    56     9     3    1
    57    25    28   ar
    58    54    53   ar
    59    50    51   ar
    60    41    42    1
    61    64    63   ar
    62    64    60   ar
    63    24    14    1
    64    24    27   ar
    65    71    75    1
    66    14    15   ar
    67    63    62   ar
    68    51    55    1
    69    51    52   ar
    70    53    60    1
    71    53    52   ar
    72    60    61   ar
    73    52    58    1
    74     3     4   ar
    75     3     2   ar
    76    11     4    1
    77    11    10   ar
    78    62    61   ar
    79    62    69    1
    80    58    59    1
    81    28    27   ar
    82    28    33    1
    83    27    29    1
    84     4     5   ar
    85    61    67    1
    86    75    76    3
    87     7     2    1
    88    15    10   ar
    89    69    68    3
    90     2     1   ar
    91    10    18    1
    92    67    66    3
    93     5     1   ar
    94    35    33    1
    95     1     6    1
    96    76    77    1
    97    33    36    1
    98    33    34    1
    99    18    17    3
