@<TRIPOS>MOLECULE
mol_data/opt/cam/geoms/mol2/12ad12il4aa-4ia-.out
 47 50 0 0 0
SMALL
GASTEIGER

@<TRIPOS>ATOM
      1 C           0.5807    1.7523    1.3429 C.ar    1  LIG1        0.0940
      2 C           1.7706    1.6546    0.7140 C.ar    1  LIG1       -0.0057
      3 C           2.0386    2.9612    0.1825 C.ar    1  LIG1        0.1004
      4 C           0.9814    3.7586    0.5539 C.ar    1  LIG1        0.1873
      5 O           0.0943    3.0195    1.2566 O.2     1  LIG1       -0.4585
      6 H          -0.0364    1.0476    1.8761 H       1  LIG1        0.1030
      7 H           2.3900    0.7775    0.6109 H       1  LIG1        0.0662
      8 N           4.0162    3.6327   -1.3273 N.1     1  LIG1       -0.1907
      9 C           3.1308    3.3346   -0.6435 C.1     1  LIG1        0.1031
     10 C           0.6745    5.1499    0.3487 C.ar    1  LIG1        0.1784
     11 C           1.4503    6.2704    0.2374 C.ar    1  LIG1        0.0408
     12 C           0.5168    7.3368    0.0573 C.ar    1  LIG1        0.1692
     13 C          -0.7478    6.8119    0.0861 C.ar    1  LIG1        0.1775
     14 O          -0.6489    5.4688    0.2660 O.2     1  LIG1       -0.4476
     15 C           2.9295    6.4286    0.3599 C.3     1  LIG1       -0.0325
     16 H           3.1577    7.4407    0.7016 H       1  LIG1        0.0280
     17 H           3.4447    6.2602   -0.5898 H       1  LIG1        0.0280
     18 H           3.3460    5.7190    1.0781 H       1  LIG1        0.0280
     19 O           0.8440    8.6547   -0.0606 O.3     1  LIG1       -0.4910
     20 C           1.3039    9.0227   -1.3582 C.3     1  LIG1        0.0790
     21 H           1.5555   10.0824   -1.3106 H       1  LIG1        0.0660
     22 H           2.1942    8.4518   -1.6419 H       1  LIG1        0.0660
     23 H           0.5223    8.8638   -2.1088 H       1  LIG1        0.0660
     24 C          -2.2717    8.7669   -0.0646 C.ar    1  LIG1       -0.0504
     25 C          -3.5465    9.2972   -0.1773 C.ar    1  LIG1       -0.0534
     26 C          -2.0833    7.3805   -0.0252 C.ar    1  LIG1        0.0210
     27 C          -4.6732    8.4730   -0.2511 C.ar    1  LIG1       -0.0176
     28 H          -3.6697   10.3739   -0.2246 H       1  LIG1        0.0624
     29 C          -3.2043    6.5481   -0.0970 C.ar    1  LIG1       -0.0504
     30 C          -4.4745    7.0899   -0.2099 C.ar    1  LIG1       -0.0534
     31 H          -3.0723    5.4730   -0.0600 H       1  LIG1        0.0625
     32 H          -1.4112    9.4219    0.0008 H       1  LIG1        0.0625
     33 H          -5.3354    6.4306   -0.2558 H       1  LIG1        0.0624
     34 C          -6.5846    9.9804    0.4720 C.ar    1  LIG1       -0.0427
     35 C          -7.8825   10.4389    0.2432 C.ar    1  LIG1       -0.0583
     36 C          -6.0443    9.0286   -0.4118 C.ar    1  LIG1       -0.0150
     37 C          -8.6430    9.9840   -0.8252 C.ar    1  LIG1       -0.0615
     38 H          -8.3072   11.1648    0.9309 H       1  LIG1        0.0620
     39 C          -6.8240    8.5670   -1.4768 C.ar    1  LIG1       -0.0538
     40 C          -8.1111    9.0378   -1.6908 C.ar    1  LIG1       -0.0612
     41 H          -6.3967    7.8355   -2.1555 H       1  LIG1        0.0624
     42 H          -9.6491   10.3623   -0.9748 H       1  LIG1        0.0618
     43 C          -5.8275   10.4995    1.6692 C.3     1  LIG1       -0.0391
     44 H          -6.5222   10.8567    2.4328 H       1  LIG1        0.0278
     45 H          -5.1766   11.3399    1.4071 H       1  LIG1        0.0278
     46 H          -5.1941    9.7305    2.1153 H       1  LIG1        0.0278
     47 H          -8.6926    8.6685   -2.5292 H       1  LIG1        0.0618
@<TRIPOS>BOND
     1    47    40    1
     2    41    39    1
     3    23    20    1
     4    40    39   ar
     5    40    37   ar
     6    22    20    1
     7    39    36   ar
     8    20    21    1
     9    20    19    1
    10     8     9    3
    11    42    37    1
    12    37    35   ar
    13     9     3    1
    14    17    15    1
    15    36    27    1
    16    36    34   ar
    17    33    30    1
    18    27    30   ar
    19    27    25   ar
    20    28    25    1
    21    30    29   ar
    22    25    24   ar
    23    29    31    1
    24    29    26   ar
    25    24    26   ar
    26    24    32    1
    27    19    12    1
    28    26    13    1
    29    12    13   ar
    30    12    11   ar
    31    13    14   ar
    32     3     4   ar
    33     3     2   ar
    34    11    10   ar
    35    11    15    1
    36    35    34   ar
    37    35    38    1
    38    14    10   ar
    39    10     4    1
    40    15    16    1
    41    15    18    1
    42    34    43    1
    43     4     5   ar
    44     7     2    1
    45     2     1   ar
    46     5     1   ar
    47     1     6    1
    48    45    43    1
    49    43    46    1
    50    43    44    1
