@<TRIPOS>MOLECULE
mol_data/opt/cam/geoms/mol2/12ad6ia-13lf6ie-12ae12fi-13ea4ih-.out
 94 101 0 0 0
SMALL
GASTEIGER

@<TRIPOS>ATOM
      1 C           0.1740    1.0989   -0.9090 C.ar    1  LIG1        0.0939
      2 C           1.4428    1.1316   -0.4527 C.ar    1  LIG1       -0.0058
      3 C           1.7064    2.5063   -0.1357 C.ar    1  LIG1        0.0974
      4 C           0.5637    3.2125   -0.4317 C.ar    1  LIG1        0.1538
      5 O          -0.3657    2.3480   -0.9026 O.2     1  LIG1       -0.4615
      6 H          -0.4690    0.3095   -1.2624 H       1  LIG1        0.1030
      7 H           2.1228    0.3019   -0.3393 H       1  LIG1        0.0662
      8 N           3.9031    3.4391    0.8398 N.1     1  LIG1       -0.1907
      9 C           2.9127    3.0258    0.4057 C.1     1  LIG1        0.1030
     10 C          -1.0678    5.1039   -0.0881 C.ar    1  LIG1        0.0496
     11 C           0.2304    4.6310   -0.3596 C.ar    1  LIG1        0.0396
     12 C           1.2388    5.5809   -0.5590 C.ar    1  LIG1       -0.0473
     13 C           0.9519    6.9253   -0.4860 C.ar    1  LIG1       -0.0334
     14 C          -0.3698    7.3098   -0.2302 C.ar    1  LIG1        0.0911
     15 N          -1.3489    6.4067   -0.0520 N.ar    1  LIG1       -0.2496
     16 H           2.2510    5.2582   -0.7753 H       1  LIG1        0.0626
     17 C          -2.2201    4.1865    0.2188 C.3     1  LIG1       -0.0216
     18 H          -1.9169    3.3549    0.8572 H       1  LIG1        0.0293
     19 H          -2.6391    3.7498   -0.6926 H       1  LIG1        0.0293
     20 H          -2.9917    4.7627    0.7279 H       1  LIG1        0.0293
     21 H           1.7129    7.6792   -0.6321 H       1  LIG1        0.0640
     22 C          -0.7479    8.7070   -0.1279 C.ar    1  LIG1        0.1114
     23 C           0.0269    9.8624   -0.1185 C.ar    1  LIG1        0.1888
     24 C          -0.8524   10.9549    0.0221 C.ar    1  LIG1        0.1851
     25 C          -2.1485   10.4598    0.0942 C.ar    1  LIG1        0.0945
     26 N          -2.0549    9.0934    0.0104 N.ar    1  LIG1       -0.3470
     27 H          -2.8221    8.4341    0.0156 H       1  LIG1        0.1662
     28 O           1.3785    9.8946   -0.2631 O.3     1  LIG1       -0.4895
     29 C           2.0818   10.6478    0.7217 C.3     1  LIG1        0.0791
     30 H           3.1409   10.5459    0.4846 H       1  LIG1        0.0660
     31 H           1.7942   11.7005    0.6907 H       1  LIG1        0.0660
     32 H           1.8931   10.2463    1.7236 H       1  LIG1        0.0660
     33 O          -0.4464   12.2608    0.0596 O.3     1  LIG1       -0.5019
     34 H          -1.0788   12.7698    0.5822 H       1  LIG1        0.2924
     35 C          -4.5567   10.8021    0.8350 C.ar    1  LIG1        0.0483
     36 C          -3.3958   11.2225    0.1484 C.ar    1  LIG1        0.0242
     37 C          -3.4630   12.4497   -0.5107 C.ar    1  LIG1       -0.0332
     38 C          -4.6332   13.2073   -0.5208 C.ar    1  LIG1        0.0543
     39 C          -5.7579   12.6591    0.1235 C.ar    1  LIG1        0.1216
     40 N          -5.6862   11.4992    0.7845 N.ar    1  LIG1       -0.2469
     41 H          -2.6024   12.8153   -1.0597 H       1  LIG1        0.0637
     42 C          -4.6016    9.5553    1.6735 C.3     1  LIG1       -0.0217
     43 H          -3.6604    9.3916    2.2033 H       1  LIG1        0.0293
     44 H          -4.7998    8.6719    1.0564 H       1  LIG1        0.0293
     45 H          -5.4145    9.6494    2.3931 H       1  LIG1        0.0293
     46 C          -4.6534   14.4547   -1.2180 C.1     1  LIG1       -0.0674
     47 C          -4.6212   15.5010   -1.8130 C.1     1  LIG1       -0.1138
     48 H          -4.6066   16.4243   -2.3453 H       1  LIG1        0.1232
     49 C          -7.0838   13.2708    0.0791 C.ar    1  LIG1        0.1564
     50 C          -7.5858   14.5264   -0.0759 C.ar    1  LIG1        0.0019
     51 C          -9.0140   14.4109   -0.0580 C.ar    1  LIG1        0.0742
     52 C          -9.2746   13.0670    0.1060 C.ar    1  LIG1        0.1896
     53 O          -8.1128   12.3873    0.2030 O.2     1  LIG1       -0.4488
     54 H          -7.0236   15.4374   -0.1973 H       1  LIG1        0.0668
     55 C          -9.9450   15.4685   -0.2265 C.1     1  LIG1       -0.0657
     56 C         -10.7097   16.3853   -0.3804 C.1     1  LIG1       -0.1138
     57 H         -11.3981   17.1873   -0.5119 H       1  LIG1        0.1232
     58 C         -10.4351   12.2231    0.1240 C.ar    1  LIG1        0.2132
     59 C         -11.7827   12.3484    0.3203 C.ar    1  LIG1        0.1694
     60 C         -12.3698   11.0466    0.2087 C.ar    1  LIG1        0.0390
     61 C         -11.3260   10.2030   -0.0656 C.ar    1  LIG1        0.1596
     62 O         -10.1648   10.9039   -0.1140 O.2     1  LIG1       -0.4461
     63 O         -12.4279   13.4975    0.6131 O.3     1  LIG1       -0.5029
     64 H         -13.3739   13.3203    0.6731 H       1  LIG1        0.2923
     65 C         -13.8195   10.7611    0.4293 C.3     1  LIG1       -0.0325
     66 H         -14.0185    9.6914    0.4451 H       1  LIG1        0.0280
     67 H         -14.4417   11.1911   -0.3639 H       1  LIG1        0.0280
     68 H         -14.1570   11.1798    1.3848 H       1  LIG1        0.0280
     69 C         -11.1017    8.7895   -0.2775 C.ar    1  LIG1        0.0985
     70 C         -11.8809    7.6993   -0.6573 C.ar    1  LIG1        0.0535
     71 C         -11.0133    6.5724   -0.7170 C.ar    1  LIG1       -0.0203
     72 C          -9.7385    6.9868   -0.3941 C.ar    1  LIG1        0.0485
     73 N          -9.8210    8.3310   -0.1350 N.ar    1  LIG1       -0.3508
     74 H          -9.0604    8.9209    0.1675 H       1  LIG1        0.1660
     75 C         -13.2604    7.6783   -0.9957 C.1     1  LIG1       -0.0674
     76 C         -14.4251    7.6148   -1.2997 C.1     1  LIG1       -0.1138
     77 H         -15.4520    7.5636   -1.5783 H       1  LIG1        0.1232
     78 H         -11.3121    5.5810   -1.0155 H       1  LIG1        0.0651
     79 C          -8.3304    4.9518    0.0742 C.ar    1  LIG1       -0.0412
     80 C          -7.0551    4.3931    0.1064 C.ar    1  LIG1       -0.0565
     81 C          -8.4431    6.2920   -0.3420 C.ar    1  LIG1        0.0030
     82 C          -5.9189    5.1005   -0.2503 C.ar    1  LIG1       -0.0408
     83 H          -6.9483    3.3608    0.4273 H       1  LIG1        0.0621
     84 C          -7.2916    7.0076   -0.6968 C.ar    1  LIG1       -0.0317
     85 C          -6.0235    6.4309   -0.6536 C.ar    1  LIG1        0.0252
     86 H          -7.3858    8.0337   -1.0413 H       1  LIG1        0.0643
     87 H          -4.9489    4.6184   -0.2220 H       1  LIG1        0.0636
     88 C          -9.5097    4.1137    0.4929 C.3     1  LIG1       -0.0391
     89 H          -9.1751    3.2573    1.0826 H       1  LIG1        0.0278
     90 H         -10.0574    3.7174   -0.3688 H       1  LIG1        0.0278
     91 H         -10.2231    4.6846    1.0912 H       1  LIG1        0.0278
     92 N          -4.8772    7.1836   -0.9687 N.pl3   1  LIG1       -0.3579
     93 H          -4.0546    6.6236   -1.1566 H       1  LIG1        0.1423
     94 H          -5.0247    7.8658   -1.7011 H       1  LIG1        0.1423
@<TRIPOS>BOND
     1    48    47    1
     2    47    46    3
     3    94    92    1
     4    77    76    1
     5    76    75    3
     6     6     1    1
     7    46    38    1
     8    93    92    1
     9    41    37    1
    10    86    84    1
    11    78    71    1
    12    75    70    1
    13    92    85    1
    14     1     5   ar
    15     1     2   ar
    16     5     4   ar
    17    16    12    1
    18    71    70   ar
    19    71    72   ar
    20    84    85   ar
    21    84    81   ar
    22    19    17    1
    23    70    69   ar
    24    85    82   ar
    25    21    13    1
    26    12    13   ar
    27    12    11   ar
    28    38    37   ar
    29    38    39   ar
    30    57    56    1
    31    37    36   ar
    32    13    14   ar
    33     2     7    1
    34     2     3   ar
    35     4    11    1
    36     4     3   ar
    37    72    81    1
    38    72    73   ar
    39    56    55    3
    40    90    88    1
    41    67    65    1
    42    11    10   ar
    43    81    79   ar
    44    69    73   ar
    45    69    61    1
    46    28    23    1
    47    28    29    1
    48    82    87    1
    49    82    80   ar
    50    14    22    1
    51    14    15   ar
    52    55    51    1
    53    54    50    1
    54     3     9    1
    55    73    74    1
    56    22    23   ar
    57    22    26   ar
    58    23    24   ar
    59    62    61   ar
    60    62    58   ar
    61    10    15   ar
    62    10    17    1
    63    50    51   ar
    64    50    49   ar
    65    61    60   ar
    66    51    52   ar
    67    26    27    1
    68    26    25   ar
    69    24    33    1
    70    24    25   ar
    71    33    34    1
    72    79    80   ar
    73    79    88    1
    74    49    39    1
    75    49    53   ar
    76    25    36    1
    77    52    58    1
    78    52    53   ar
    79    80    83    1
    80    39    40   ar
    81    58    59   ar
    82    36    35   ar
    83    60    59   ar
    84    60    65    1
    85    17    20    1
    86    17    18    1
    87    59    63    1
    88     9     8    3
    89    65    66    1
    90    65    68    1
    91    30    29    1
    92    88    89    1
    93    88    91    1
    94    63    64    1
    95    31    29    1
    96    29    32    1
    97    40    35   ar
    98    35    42    1
    99    44    42    1
   100    42    43    1
   101    42    45    1
