@<TRIPOS>MOLECULE
mol_data/opt/cam/geoms/mol2/12ad4if-4if-12ee-.out
 49 52 0 0 0
SMALL
GASTEIGER

@<TRIPOS>ATOM
      1 C           1.0582    1.8920    1.5360 C.ar    1  LIG1        0.0939
      2 C           1.3682    1.5163    0.2785 C.ar    1  LIG1       -0.0058
      3 C           1.3346    2.7200   -0.5052 C.ar    1  LIG1        0.0973
      4 C           1.0130    3.7461    0.3489 C.ar    1  LIG1        0.1524
      5 O           0.8388    3.2328    1.5915 O.2     1  LIG1       -0.4616
      6 H           0.9612    1.3589    2.4678 H       1  LIG1        0.1030
      7 H           1.5878    0.5218   -0.0772 H       1  LIG1        0.0662
      8 N           1.6420    2.8435   -3.0618 N.1     1  LIG1       -0.1907
      9 C           1.5066    2.7990   -1.9133 C.1     1  LIG1        0.1030
     10 C           1.5920    6.0375   -0.5396 C.ar    1  LIG1       -0.0390
     11 C           1.2306    7.3842   -0.5988 C.ar    1  LIG1       -0.0469
     12 C           0.7602    5.1825    0.1982 C.ar    1  LIG1        0.0249
     13 C           0.1111    7.9158    0.0318 C.ar    1  LIG1        0.0242
     14 H           1.8600    8.0592   -1.1702 H       1  LIG1        0.0628
     15 C          -0.3630    5.6968    0.8556 C.ar    1  LIG1       -0.0086
     16 C          -0.6939    7.0391    0.7738 C.ar    1  LIG1        0.1252
     17 H          -0.9879    5.0239    1.4357 H       1  LIG1        0.0661
     18 C           2.8531    5.5877   -1.2295 C.3     1  LIG1       -0.0390
     19 H           3.5520    6.4224   -1.3157 H       1  LIG1        0.0278
     20 H           2.6567    5.2139   -2.2378 H       1  LIG1        0.0278
     21 H           3.3533    4.7869   -0.6805 H       1  LIG1        0.0278
     22 O          -1.7909    7.5494    1.3984 O.3     1  LIG1       -0.5061
     23 H          -2.2230    6.8507    1.9035 H       1  LIG1        0.2922
     24 C           0.6609   10.3654    0.3409 C.ar    1  LIG1       -0.0417
     25 C           0.2838   11.6910    0.1508 C.ar    1  LIG1       -0.0440
     26 C          -0.2213    9.3621   -0.0888 C.ar    1  LIG1       -0.0080
     27 C          -0.9255   12.0663   -0.4356 C.ar    1  LIG1        0.0601
     28 H           0.9566   12.4759    0.4777 H       1  LIG1        0.0629
     29 C          -1.4389    9.7210   -0.6639 C.ar    1  LIG1       -0.0114
     30 C          -1.8032   11.0485   -0.8384 C.ar    1  LIG1        0.1281
     31 H          -2.1278    8.9392   -0.9715 H       1  LIG1        0.0660
     32 C           1.9799   10.0613    1.0069 C.3     1  LIG1       -0.0391
     33 H           2.3146   10.9192    1.5941 H       1  LIG1        0.0278
     34 H           2.7684    9.8381    0.2809 H       1  LIG1        0.0278
     35 H           1.9062    9.2006    1.6749 H       1  LIG1        0.0278
     36 O          -3.0019   11.3936   -1.3762 O.3     1  LIG1       -0.5060
     37 H          -3.5066   10.5916   -1.5551 H       1  LIG1        0.2922
     38 C          -1.2499   13.4830   -0.5834 C.ar    1  LIG1        0.1548
     39 C          -0.9592   14.5833    0.1835 C.ar    1  LIG1        0.0858
     40 C          -1.5245   15.7198   -0.5116 C.ar    1  LIG1        0.0783
     41 C          -2.1052   15.2104   -1.6291 C.ar    1  LIG1        0.1092
     42 O          -1.9452   13.8731   -1.6830 O.2     1  LIG1       -0.4603
     43 H          -2.6475   15.6664   -2.4413 H       1  LIG1        0.1042
     44 C          -0.2704   14.6284    1.4234 C.1     1  LIG1       -0.0646
     45 C           0.3128   14.6892    2.4748 C.1     1  LIG1       -0.1138
     46 H           0.8198   14.7456    3.4102 H       1  LIG1        0.1232
     47 C          -1.4867   17.0805   -0.1069 C.1     1  LIG1       -0.0653
     48 C          -1.4534   18.2330    0.2369 C.1     1  LIG1       -0.1138
     49 H          -1.4226   19.2527    0.5441 H       1  LIG1        0.1232
@<TRIPOS>BOND
     1     8     9    3
     2    43    41    1
     3    20    18    1
     4     9     3    1
     5    42    41   ar
     6    42    38   ar
     7    41    40   ar
     8    37    36    1
     9    36    30    1
    10    19    18    1
    11    18    21    1
    12    18    10    1
    13    14    11    1
    14    31    29    1
    15    30    29   ar
    16    30    27   ar
    17    29    26   ar
    18    11    10   ar
    19    11    13   ar
    20    38    27    1
    21    38    39   ar
    22    10    12   ar
    23    40    47    1
    24    40    39   ar
    25     3     2   ar
    26     3     4   ar
    27    27    25   ar
    28    47    48    3
    29    26    13    1
    30    26    24   ar
    31     7     2    1
    32    13    16   ar
    33    25    24   ar
    34    25    28    1
    35    39    44    1
    36    12     4    1
    37    12    15   ar
    38    48    49    1
    39     2     1   ar
    40    34    32    1
    41    24    32    1
    42     4     5   ar
    43    16    15   ar
    44    16    22    1
    45    15    17    1
    46    32    33    1
    47    32    35    1
    48    22    23    1
    49    44    45    3
    50     1     5   ar
    51     1     6    1
    52    45    46    1
