@<TRIPOS>MOLECULE
mol_data/opt/cam/geoms/mol2/12ad6el-13ll12ai-.out
 51 54 0 0 0
SMALL
GASTEIGER

@<TRIPOS>ATOM
      1 C           0.0178    1.3243    0.1066 C.ar    1  LIG1        0.0939
      2 C           1.3092    1.2937   -0.2846 C.ar    1  LIG1       -0.0058
      3 C           1.7052    2.6657   -0.4152 C.ar    1  LIG1        0.0974
      4 C           0.6068    3.4303   -0.0871 C.ar    1  LIG1        0.1548
      5 O          -0.4117    2.6064    0.2313 O.2     1  LIG1       -0.4615
      6 H          -0.7090    0.5610    0.3312 H       1  LIG1        0.1030
      7 H           1.9213    0.4249   -0.4692 H       1  LIG1        0.0662
      8 N           4.0267    3.5277   -1.1325 N.1     1  LIG1       -0.1907
      9 C           2.9818    3.1381   -0.8202 C.1     1  LIG1        0.1030
     10 C          -0.8428    5.4986   -0.1958 C.ar    1  LIG1        0.1248
     11 C           0.4014    4.8717   -0.0211 C.ar    1  LIG1        0.0558
     12 C           1.5058    5.6979    0.2223 C.ar    1  LIG1       -0.0044
     13 C           1.3695    7.0719    0.2573 C.ar    1  LIG1        0.1483
     14 C           0.0866    7.6274    0.0302 C.ar    1  LIG1        0.1337
     15 N          -0.9640    6.8298   -0.1612 N.ar    1  LIG1       -0.2324
     16 H           2.4717    5.2492    0.4032 H       1  LIG1        0.0663
     17 C          -2.0606    4.7852   -0.4626 C.1     1  LIG1       -0.0491
     18 C          -3.1040    4.2375   -0.7023 C.1     1  LIG1       -0.1124
     19 H          -4.0261    3.7466   -0.9129 H       1  LIG1        0.1232
     20 O           2.3780    7.9185    0.5330 O.3     1  LIG1       -0.4929
     21 C           3.6884    7.3931    0.6464 C.3     1  LIG1        0.0789
     22 H           4.3453    8.2535    0.7652 H       1  LIG1        0.0660
     23 H           3.7838    6.7416    1.5225 H       1  LIG1        0.0660
     24 H           3.9754    6.8353   -0.2510 H       1  LIG1        0.0660
     25 C          -0.2269    9.0513    0.0321 C.ar    1  LIG1        0.1151
     26 C           0.4715   10.2545   -0.0818 C.ar    1  LIG1        0.1892
     27 C          -0.4783   11.3014   -0.0497 C.ar    1  LIG1        0.1906
     28 C          -1.7357   10.7325    0.0680 C.ar    1  LIG1        0.1285
     29 N          -1.5580    9.3858    0.1154 N.ar    1  LIG1       -0.3446
     30 H          -2.2821    8.6823    0.1324 H       1  LIG1        0.1663
     31 O           1.8038   10.4517   -0.2792 O.3     1  LIG1       -0.4895
     32 C           2.4712   11.0024    0.8494 C.3     1  LIG1        0.0791
     33 H           3.5013   11.1908    0.5416 H       1  LIG1        0.0660
     34 H           2.0064   11.9430    1.1616 H       1  LIG1        0.0660
     35 H           2.4620   10.2917    1.6820 H       1  LIG1        0.0660
     36 O          -0.2172   12.6410   -0.1035 O.3     1  LIG1       -0.4894
     37 C           0.3085   13.0696   -1.3575 C.3     1  LIG1        0.0791
     38 H           0.5055   14.1385   -1.2641 H       1  LIG1        0.0660
     39 H           1.2364   12.5413   -1.5934 H       1  LIG1        0.0660
     40 H          -0.4176   12.9013   -2.1605 H       1  LIG1        0.0660
     41 C          -3.0330   11.3515    0.1446 C.ar    1  LIG1        0.1548
     42 C          -3.4488   12.6463    0.1929 C.ar    1  LIG1       -0.0114
     43 C          -4.8808   12.6145    0.2549 C.ar    1  LIG1       -0.0121
     44 C          -5.2163   11.3006    0.2404 C.ar    1  LIG1        0.0955
     45 O          -4.1062   10.5140    0.1730 O.2     1  LIG1       -0.4611
     46 H          -6.1614   10.7819    0.2711 H       1  LIG1        0.1032
     47 H          -2.8026   13.5107    0.1946 H       1  LIG1        0.0658
     48 C          -5.8087   13.7846    0.3242 C.3     1  LIG1       -0.0367
     49 H          -6.8510   13.4603    0.3657 H       1  LIG1        0.0278
     50 H          -5.6950   14.4341   -0.5488 H       1  LIG1        0.0278
     51 H          -5.6126   14.3947    1.2110 H       1  LIG1        0.0278
@<TRIPOS>BOND
     1    40    37    1
     2    39    37    1
     3    37    38    1
     4    37    36    1
     5     8     9    3
     6    19    18    1
     7     9     3    1
     8    18    17    3
     9    50    48    1
    10     7     2    1
    11    17    10    1
    12     3     2   ar
    13     3     4   ar
    14     2     1   ar
    15    31    26    1
    16    31    32    1
    17    24    21    1
    18    10    15   ar
    19    10    11   ar
    20    15    14   ar
    21    36    27    1
    22     4    11    1
    23     4     5   ar
    24    26    27   ar
    25    26    25   ar
    26    27    28   ar
    27    11    12   ar
    28    14    25    1
    29    14    13   ar
    30    25    29   ar
    31    28    29   ar
    32    28    41    1
    33     1     5   ar
    34     1     6    1
    35    29    30    1
    36    41    45   ar
    37    41    42   ar
    38    45    44   ar
    39    42    47    1
    40    42    43   ar
    41    12    13   ar
    42    12    16    1
    43    44    43   ar
    44    44    46    1
    45    43    48    1
    46    13    20    1
    47    48    49    1
    48    48    51    1
    49    20    21    1
    50    33    32    1
    51    21    22    1
    52    21    23    1
    53    32    34    1
    54    32    35    1
