@<TRIPOS>MOLECULE
mol_data/opt/cam/geoms/mol2/12ae13ld-6ae-12dh.out
 45 48 0 0 0
SMALL
GASTEIGER

@<TRIPOS>ATOM
      1 C          -0.0880    1.4937   -0.0442 C.ar    1  LIG1        0.0939
      2 C           1.2393    1.3670    0.1537 C.ar    1  LIG1       -0.0078
      3 C           1.7920    2.6958    0.1136 C.ar    1  LIG1        0.0719
      4 C           0.7310    3.5337   -0.1251 C.ar    1  LIG1        0.1698
      5 O          -0.4163    2.8039   -0.2164 O.2     1  LIG1       -0.4601
      6 H          -0.9049    0.7924   -0.0935 H       1  LIG1        0.1030
      7 H           1.7923    0.4556    0.3196 H       1  LIG1        0.0661
      8 C           3.1545    3.0202    0.3449 C.1     1  LIG1       -0.0658
      9 C           4.3187    3.2228    0.5753 C.1     1  LIG1       -0.1138
     10 H           5.3507    3.4087    0.7645 H       1  LIG1        0.1232
     11 C           0.5440    4.9558   -0.2581 C.ar    1  LIG1        0.1272
     12 C           1.4019    5.9977   -0.5475 C.ar    1  LIG1        0.1662
     13 C           0.6324    7.2006   -0.5347 C.ar    1  LIG1        0.1193
     14 C          -0.6878    6.8524   -0.2540 C.ar    1  LIG1        0.0697
     15 N          -0.7127    5.5024   -0.1053 N.ar    1  LIG1       -0.3477
     16 H          -1.5176    4.9577    0.1615 H       1  LIG1        0.1661
     17 O           2.6980    5.8534   -0.8856 O.3     1  LIG1       -0.4916
     18 C           3.6451    6.5583   -0.0859 C.3     1  LIG1        0.0789
     19 H           4.6221    6.3360   -0.5132 H       1  LIG1        0.0660
     20 H           3.4738    7.6373   -0.1190 H       1  LIG1        0.0660
     21 H           3.6121    6.2032    0.9485 H       1  LIG1        0.0660
     22 N           1.5192    9.5600   -1.0681 N.1     1  LIG1       -0.1907
     23 C           1.1127    8.5001   -0.8374 C.1     1  LIG1        0.1050
     24 C          -3.1579    7.1186   -0.4031 C.ar    1  LIG1        0.0376
     25 C          -1.8947    7.6659   -0.1418 C.ar    1  LIG1        0.0190
     26 C          -1.8567    9.0029    0.2417 C.ar    1  LIG1       -0.0335
     27 C          -3.0400    9.7352    0.3518 C.ar    1  LIG1        0.0543
     28 C          -4.2510    9.0800    0.0522 C.ar    1  LIG1        0.1226
     29 N          -4.2901    7.7925   -0.3059 N.ar    1  LIG1       -0.2500
     30 H          -0.9180    9.4889    0.4778 H       1  LIG1        0.0637
     31 H          -3.2530    6.0866   -0.7348 H       1  LIG1        0.0836
     32 C          -2.9811   11.0832    0.8191 C.1     1  LIG1       -0.0674
     33 C          -2.8879   12.2109    1.2266 C.1     1  LIG1       -0.1138
     34 H          -2.8252   13.2212    1.5615 H       1  LIG1        0.1232
     35 C          -5.5603    9.7387    0.1303 C.ar    1  LIG1        0.1732
     36 C          -6.0481   10.9659   -0.2527 C.ar    1  LIG1        0.1195
     37 C          -7.4579   10.9640    0.0410 C.ar    1  LIG1        0.0811
     38 C          -7.7104    9.7402    0.5756 C.ar    1  LIG1        0.1145
     39 O          -6.5638    8.9995    0.6231 O.2     1  LIG1       -0.4581
     40 H          -8.5986    9.2697    0.9620 H       1  LIG1        0.1049
     41 N          -4.9749   12.9459   -1.4972 N.1     1  LIG1       -0.1907
     42 C          -5.4010   12.0346   -0.9239 C.1     1  LIG1        0.1049
     43 N          -8.3060   12.0408   -0.1546 N.pl3   1  LIG1       -0.3545
     44 H          -7.9736   12.7099   -0.8355 H       1  LIG1        0.1424
     45 H          -9.2754   11.8022   -0.3015 H       1  LIG1        0.1424
@<TRIPOS>BOND
     1    41    42    3
     2    22    23    3
     3    42    36    1
     4    17    12    1
     5    17    18    1
     6    23    13    1
     7    44    43    1
     8    31    24    1
     9    12    13   ar
    10    12    11   ar
    11    13    14   ar
    12    19    18    1
    13    24    29   ar
    14    24    25   ar
    15    29    28   ar
    16    45    43    1
    17    11     4    1
    18    11    15   ar
    19    14    25    1
    20    14    15   ar
    21    36    37   ar
    22    36    35   ar
    23     5     4   ar
    24     5     1   ar
    25    43    37    1
    26    25    26   ar
    27     4     3   ar
    28    20    18    1
    29    15    16    1
    30     6     1    1
    31    18    21    1
    32     1     2   ar
    33    37    38   ar
    34    28    35    1
    35    28    27   ar
    36     3     2   ar
    37     3     8    1
    38    35    39   ar
    39     2     7    1
    40    26    27   ar
    41    26    30    1
    42     8     9    3
    43    27    32    1
    44     9    10    1
    45    38    39   ar
    46    38    40    1
    47    32    33    3
    48    33    34    1
