@<TRIPOS>MOLECULE
mol_data/opt/cam/geoms/mol2/12ae13dh6ed6lf13he6fh4fd6il.out
 100 107 0 0 0
SMALL
GASTEIGER

@<TRIPOS>ATOM
      1 C           0.8523    2.2795    2.2354 C.ar    1  LIG1        0.0939
      2 C           2.1558    2.2350    1.8899 C.ar    1  LIG1       -0.0078
      3 C           2.3379    3.2147    0.8538 C.ar    1  LIG1        0.0718
      4 C           1.1008    3.7716    0.6438 C.ar    1  LIG1        0.1675
      5 O           0.1942    3.2064    1.4909 O.2     1  LIG1       -0.4602
      6 H           0.2557    1.7417    2.9543 H       1  LIG1        0.1030
      7 H           2.9230    1.6016    2.3070 H       1  LIG1        0.0661
      8 C           3.5657    3.5588    0.2336 C.1     1  LIG1       -0.0658
      9 C           4.6181    3.8461   -0.2733 C.1     1  LIG1       -0.1138
     10 H           5.5299    4.1110   -0.7576 H       1  LIG1        0.1232
     11 C           0.5695    4.8141   -0.1994 C.ar    1  LIG1        0.1032
     12 C           0.9851    5.3795   -1.4070 C.ar    1  LIG1        0.1012
     13 C           0.0287    6.3715   -1.7664 C.ar    1  LIG1        0.0686
     14 C          -0.9462    6.3898   -0.7760 C.ar    1  LIG1        0.0719
     15 N          -0.5855    5.4251    0.1459 N.ar    1  LIG1       -0.3491
     16 H          -1.1404    5.1674    0.9494 H       1  LIG1        0.1661
     17 N           2.8845    4.8207   -3.0472 N.1     1  LIG1       -0.1907
     18 C           2.0622    5.0314   -2.2585 C.1     1  LIG1        0.1033
     19 N           0.1104    7.1691   -2.9036 N.pl3   1  LIG1       -0.3553
     20 H           0.8663    6.8932   -3.5191 H       1  LIG1        0.1424
     21 H          -0.7567    7.2481   -3.4197 H       1  LIG1        0.1424
     22 C          -3.2381    6.9760    0.1684 C.ar    1  LIG1        0.1230
     23 C          -2.1021    7.2631   -0.6255 C.ar    1  LIG1        0.0352
     24 C          -2.1214    8.4963   -1.2827 C.ar    1  LIG1       -0.0304
     25 C          -3.2120    9.3477   -1.1607 C.ar    1  LIG1        0.0785
     26 C          -4.2955    8.9651   -0.3471 C.ar    1  LIG1        0.0949
     27 N          -4.2782    7.8037    0.2946 N.ar    1  LIG1       -0.2363
     28 H          -1.2711    8.7984   -1.8825 H       1  LIG1        0.0638
     29 C          -3.3661    5.7511    0.9125 C.1     1  LIG1       -0.0491
     30 C          -3.4935    4.7355    1.5468 C.1     1  LIG1       -0.1124
     31 H          -3.6333    3.8336    2.0986 H       1  LIG1        0.1232
     32 N          -3.1740   11.5758   -2.4822 N.1     1  LIG1       -0.1908
     33 C          -3.2071   10.5881   -1.8816 C.1     1  LIG1        0.1013
     34 C          -6.7892    9.3683   -0.4133 C.ar    1  LIG1        0.2247
     35 C          -5.4809    9.8326   -0.1472 C.ar    1  LIG1        0.0666
     36 C          -5.3647   11.1204    0.3301 C.ar    1  LIG1       -0.0037
     37 C          -6.4910   11.9230    0.5632 C.ar    1  LIG1        0.1451
     38 C          -7.7381   11.3668    0.2671 C.ar    1  LIG1        0.1340
     39 N          -7.8518   10.1062   -0.2124 N.ar    1  LIG1       -0.2071
     40 H          -4.3947   11.5459    0.5628 H       1  LIG1        0.0663
     41 O          -6.9159    8.1290   -0.9241 O.3     1  LIG1       -0.4792
     42 C          -8.2319    7.6523   -1.1559 C.3     1  LIG1        0.0804
     43 H          -8.1127    6.6526   -1.5718 H       1  LIG1        0.0660
     44 H          -8.8028    7.6014   -0.2246 H       1  LIG1        0.0660
     45 H          -8.7703    8.2907   -1.8614 H       1  LIG1        0.0660
     46 O          -6.2717   13.1412    1.0759 O.3     1  LIG1       -0.5045
     47 H          -7.1035   13.6894    1.1190 H       1  LIG1        0.2922
     48 C          -9.0304   12.0351    0.4500 C.ar    1  LIG1        0.0913
     49 C          -9.4580   13.3063    0.7794 C.ar    1  LIG1        0.0680
     50 C         -10.8853   13.2990    0.8058 C.ar    1  LIG1        0.0713
     51 C         -11.2966   12.0103    0.4783 C.ar    1  LIG1        0.0695
     52 N         -10.1605   11.2855    0.2558 N.ar    1  LIG1       -0.3503
     53 H         -10.0974   10.2944    0.0633 H       1  LIG1        0.1660
     54 N          -8.6170   14.4330    1.0183 N.pl3   1  LIG1       -0.3553
     55 H          -8.6397   15.0809    0.2342 H       1  LIG1        0.1424
     56 H          -8.9335   14.9491    1.8351 H       1  LIG1        0.1424
     57 C         -11.6844   14.4374    1.0898 C.1     1  LIG1       -0.0657
     58 C         -12.3129   15.4346    1.3436 C.1     1  LIG1       -0.1138
     59 H         -12.8786   16.3132    1.5525 H       1  LIG1        0.1232
     60 C         -12.9161   10.3597   -0.5093 C.ar    1  LIG1        0.2224
     61 C         -12.6294   11.4181    0.3760 C.ar    1  LIG1        0.0627
     62 C         -13.6806   11.8592    1.1675 C.ar    1  LIG1       -0.0247
     63 C         -14.9420   11.2613    1.1131 C.ar    1  LIG1        0.0519
     64 C         -15.0957   10.1889    0.2156 C.ar    1  LIG1        0.0989
     65 N         -14.0878    9.7774   -0.5650 N.ar    1  LIG1       -0.2105
     66 H         -13.5092   12.6705    1.8671 H       1  LIG1        0.0645
     67 O         -11.9692    9.8444   -1.3523 O.3     1  LIG1       -0.4919
     68 H         -11.3632   10.5491   -1.6163 H       1  LIG1        0.2937
     69 N         -15.9427   11.6548    1.9973 N.pl3   1  LIG1       -0.3563
     70 H         -15.7165   12.4998    2.5026 H       1  LIG1        0.1424
     71 H         -16.8616   11.7074    1.5771 H       1  LIG1        0.1424
     72 C         -17.6260    9.8452   -0.0275 C.ar    1  LIG1        0.1267
     73 C         -18.7153    8.9859   -0.1480 C.ar    1  LIG1       -0.0105
     74 C         -16.3234    9.3526    0.1084 C.ar    1  LIG1        0.0449
     75 C         -18.5574    7.6066   -0.1511 C.ar    1  LIG1        0.0048
     76 H         -19.7156    9.4010   -0.2401 H       1  LIG1        0.0661
     77 C         -16.1676    7.9694    0.0705 C.ar    1  LIG1       -0.0310
     78 C         -17.2505    7.1001   -0.0481 C.ar    1  LIG1        0.0604
     79 H         -15.1627    7.5686    0.1214 H       1  LIG1        0.0638
     80 O         -17.8084   11.1979   -0.0595 O.3     1  LIG1       -0.5061
     81 H         -18.7389   11.3945   -0.2233 H       1  LIG1        0.2922
     82 N         -16.7881    4.5509   -0.1027 N.1     1  LIG1       -0.1908
     83 C         -17.0045    5.6873   -0.0835 C.1     1  LIG1        0.0998
     84 C         -20.2193    5.9168    0.7383 C.ar    1  LIG1        0.0462
     85 C         -19.7504    6.7293   -0.3009 C.ar    1  LIG1        0.0079
     86 C         -20.4434    6.7495   -1.5146 C.ar    1  LIG1       -0.0090
     87 C         -21.5674    5.9514   -1.6629 C.ar    1  LIG1        0.1387
     88 C         -21.9598    5.1720   -0.5722 C.ar    1  LIG1        0.0695
     89 N         -21.3147    5.1616    0.5813 N.ar    1  LIG1       -0.2559
     90 H         -20.0805    7.3753   -2.3211 H       1  LIG1        0.0661
     91 H         -22.8417    4.5431   -0.6668 H       1  LIG1        0.0867
     92 C         -19.5478    5.8368    2.0821 C.3     1  LIG1       -0.0218
     93 H         -19.1461    6.8016    2.4002 H       1  LIG1        0.0293
     94 H         -18.7195    5.1220    2.0599 H       1  LIG1        0.0293
     95 H         -20.2722    5.4875    2.8179 H       1  LIG1        0.0293
     96 O         -22.3320    5.8605   -2.7788 O.3     1  LIG1       -0.4936
     97 C         -21.9354    6.6037   -3.9118 C.3     1  LIG1        0.0789
     98 H         -22.6594    6.3772   -4.6938 H       1  LIG1        0.0660
     99 H         -21.9489    7.6820   -3.7122 H       1  LIG1        0.0660
    100 H         -20.9344    6.3148   -4.2526 H       1  LIG1        0.0660
@<TRIPOS>BOND
     1    98    97    1
     2   100    97    1
     3    97    99    1
     4    97    96    1
     5    20    19    1
     6    21    19    1
     7    17    18    3
     8    19    13    1
     9    96    87    1
    10    32    33    3
    11    90    86    1
    12    18    12    1
    13    28    24    1
    14    33    25    1
    15    45    42    1
    16    13    12   ar
    17    13    14   ar
    18    87    86   ar
    19    87    88   ar
    20    68    67    1
    21    43    42    1
    22    86    85   ar
    23    12    11   ar
    24    67    60    1
    25    24    25   ar
    26    24    23   ar
    27    25    26   ar
    28    42    41    1
    29    42    44    1
    30    41    34    1
    31    14    23    1
    32    14    15   ar
    33    10     9    1
    34    91    88    1
    35    23    22   ar
    36    88    89   ar
    37    65    60   ar
    38    65    64   ar
    39    60    61   ar
    40    34    39   ar
    41    34    35   ar
    42    26    35    1
    43    26    27   ar
    44    85    75    1
    45    85    84   ar
    46     9     8    3
    47    76    73    1
    48    81    80    1
    49    39    38   ar
    50    11    15   ar
    51    11     4    1
    52    75    73   ar
    53    75    78   ar
    54    73    72   ar
    55    35    36   ar
    56    82    83    3
    57    83    78    1
    58    80    72    1
    59    78    77   ar
    60    72    74   ar
    61    53    52    1
    62    77    74   ar
    63    77    79    1
    64    74    64    1
    65    15    16    1
    66    22    27   ar
    67    22    29    1
    68    64    63   ar
    69     8     3    1
    70    55    54    1
    71    52    48   ar
    72    52    51   ar
    73    38    48    1
    74    38    37   ar
    75    36    40    1
    76    36    37   ar
    77    61    51    1
    78    61    62   ar
    79    48    49   ar
    80    51    50   ar
    81    37    46    1
    82    89    84   ar
    83     4     3   ar
    84     4     5   ar
    85    84    92    1
    86    49    50   ar
    87    49    54    1
    88    50    57    1
    89     3     2   ar
    90    29    30    3
    91    54    56    1
    92    46    47    1
    93    57    58    3
    94    63    62   ar
    95    63    69    1
    96    62    66    1
    97    58    59    1
    98     5     1   ar
    99    30    31    1
   100    71    69    1
   101     2     1   ar
   102     2     7    1
   103    69    70    1
   104    94    92    1
   105    92    93    1
   106    92    95    1
   107     1     6    1
