@<TRIPOS>MOLECULE
mol_data/opt/cam/geoms/mol2/12ae12ae-12ae-12ae-.out
 38 41 0 0 0
SMALL
GASTEIGER

@<TRIPOS>ATOM
      1 C          -0.1372    1.6996   -0.0001 C.ar    1  LIG1        0.0939
      2 C           1.2104    1.6089   -0.0001 C.ar    1  LIG1       -0.0077
      3 C           1.7082    2.9572   -0.0001 C.ar    1  LIG1        0.0734
      4 C           0.5936    3.7595   -0.0001 C.ar    1  LIG1        0.1850
      5 O          -0.5296    3.0014   -0.0000 O.2     1  LIG1       -0.4586
      6 H          -0.9308    0.9703   -0.0001 H       1  LIG1        0.1030
      7 H           1.8048    0.7086   -0.0001 H       1  LIG1        0.0661
      8 C           3.0629    3.3795   -0.0002 C.1     1  LIG1       -0.0658
      9 C           4.2082    3.7483   -0.0003 C.1     1  LIG1       -0.1138
     10 H           5.2055    4.1229   -0.0004 H       1  LIG1        0.1232
     11 C           0.4090    5.1837   -0.0001 C.ar    1  LIG1        0.1731
     12 C          -0.6969    5.9774   -0.0000 C.ar    1  LIG1        0.0035
     13 C          -0.2220    7.3265   -0.0001 C.ar    1  LIG1        0.0741
     14 C           1.1525    7.2419   -0.0001 C.ar    1  LIG1        0.1860
     15 O           1.5344    5.9462   -0.0001 O.2     1  LIG1       -0.4473
     16 H          -1.7252    5.6525   -0.0000 H       1  LIG1        0.0669
     17 C          -0.9986    8.5139   -0.0001 C.1     1  LIG1       -0.0657
     18 C          -1.6593    9.5208   -0.0000 C.1     1  LIG1       -0.1138
     19 H          -2.2519   10.4067   -0.0002 H       1  LIG1        0.1232
     20 C           2.1914    8.2327   -0.0001 C.ar    1  LIG1        0.1732
     21 C           2.1752    9.5946   -0.0001 C.ar    1  LIG1        0.0035
     22 C           3.5420   10.0115   -0.0001 C.ar    1  LIG1        0.0741
     23 C           4.2900    8.8554   -0.0001 C.ar    1  LIG1        0.1860
     24 O           3.4762    7.7778   -0.0001 O.2     1  LIG1       -0.4473
     25 H           1.3017   10.2266   -0.0001 H       1  LIG1        0.0669
     26 C           4.0322   11.3433   -0.0002 C.1     1  LIG1       -0.0657
     27 C           4.4430   12.4753   -0.0002 C.1     1  LIG1       -0.1138
     28 H           4.7987   13.4800    0.0000 H       1  LIG1        0.1232
     29 C           5.7093    8.6234   -0.0001 C.ar    1  LIG1        0.1721
     30 C           6.7777    9.4675   -0.0001 C.ar    1  LIG1        0.0027
     31 C           7.9442    8.6342   -0.0001 C.ar    1  LIG1        0.0630
     32 C           7.4828    7.3508   -0.0001 C.ar    1  LIG1        0.1081
     33 O           6.1343    7.3274   -0.0001 O.2     1  LIG1       -0.4585
     34 H           7.9834    6.3962   -0.0000 H       1  LIG1        0.1042
     35 H           6.7447   10.5449   -0.0002 H       1  LIG1        0.0669
     36 C           9.3048    9.0483   -0.0001 C.1     1  LIG1       -0.0665
     37 C          10.4539    9.4045   -0.0001 C.1     1  LIG1       -0.1138
     38 H          11.4722    9.7187   -0.0001 H       1  LIG1        0.1232
@<TRIPOS>BOND
     1    10     9    1
     2     9     8    3
     3    19    18    1
     4     8     3    1
     5    35    30    1
     6    26    27    3
     7    26    22    1
     8    27    28    1
     9     3     4   ar
    10     3     2   ar
    11    22    21   ar
    12    22    23   ar
    13    30    29   ar
    14    30    31   ar
    15    25    21    1
    16    21    20   ar
    17    38    37    1
    18    37    36    3
    19    23    29    1
    20    23    24   ar
    21    36    31    1
    22    29    33   ar
    23    20    24   ar
    24    20    14    1
    25    31    32   ar
    26    15    14   ar
    27    15    11   ar
    28    14    13   ar
    29     4    11    1
    30     4     5   ar
    31     2     1   ar
    32     2     7    1
    33    11    12   ar
    34     1     6    1
    35     1     5   ar
    36    13    17    1
    37    13    12   ar
    38    32    33   ar
    39    32    34    1
    40    17    18    3
    41    12    16    1
