@<TRIPOS>MOLECULE
mol_data/opt/cam/geoms/mol2/12ae12ae-12ae12ae-.out
 38 41 0 0 0
SMALL
GASTEIGER

@<TRIPOS>ATOM
      1 C           0.1574    1.7340    0.0000 C.ar    1  LIG1        0.0939
      2 C           1.5071    1.7075    0.0000 C.ar    1  LIG1       -0.0077
      3 C           1.9410    3.0785    0.0000 C.ar    1  LIG1        0.0734
      4 C           0.7900    3.8278   -0.0001 C.ar    1  LIG1        0.1850
      5 O          -0.2949    3.0159   -0.0001 O.2     1  LIG1       -0.4586
      6 H          -0.6012    0.9683    0.0000 H       1  LIG1        0.1030
      7 H           2.1447    0.8372    0.0000 H       1  LIG1        0.0661
      8 C           3.2842    3.5375    0.0001 C.1     1  LIG1       -0.0658
      9 C           4.4356    3.8889    0.0001 C.1     1  LIG1       -0.1138
     10 H           5.4544    4.2014   -0.0001 H       1  LIG1        0.1232
     11 C           0.5230    5.2388   -0.0001 C.ar    1  LIG1        0.1731
     12 C          -0.6314    5.9584   -0.0002 C.ar    1  LIG1        0.0035
     13 C          -0.2499    7.3381   -0.0002 C.ar    1  LIG1        0.0741
     14 C           1.1260    7.3441   -0.0002 C.ar    1  LIG1        0.1860
     15 O           1.5960    6.0742   -0.0001 O.2     1  LIG1       -0.4473
     16 H          -1.6360    5.5665   -0.0002 H       1  LIG1        0.0669
     17 C          -1.1253    8.4559   -0.0003 C.1     1  LIG1       -0.0657
     18 C          -1.8950    9.3813   -0.0003 C.1     1  LIG1       -0.1138
     19 H          -2.5761   10.2009    0.0002 H       1  LIG1        0.1232
     20 C           2.1222    8.3744   -0.0002 C.ar    1  LIG1        0.1732
     21 C           3.4822    8.3305   -0.0001 C.ar    1  LIG1        0.0035
     22 C           3.9305    9.6896   -0.0001 C.ar    1  LIG1        0.0741
     23 C           2.7903   10.4593   -0.0002 C.ar    1  LIG1        0.1860
     24 O           1.6935    9.6650   -0.0002 O.2     1  LIG1       -0.4473
     25 H           4.0945    7.4426   -0.0000 H       1  LIG1        0.0669
     26 C           5.2791   10.1338   -0.0001 C.1     1  LIG1       -0.0657
     27 C           6.4314   10.4800   -0.0000 C.1     1  LIG1       -0.1138
     28 H           7.4486   10.7972    0.0000 H       1  LIG1        0.1232
     29 C           2.5274   11.8708   -0.0003 C.ar    1  LIG1        0.1721
     30 C           1.3623   12.5736   -0.0003 C.ar    1  LIG1        0.0027
     31 C           1.7355   13.9580   -0.0004 C.ar    1  LIG1        0.0630
     32 C           3.1000   13.9740   -0.0003 C.ar    1  LIG1        0.1081
     33 O           3.5916   12.7179   -0.0003 O.2     1  LIG1       -0.4585
     34 H           3.8218   14.7743   -0.0003 H       1  LIG1        0.1042
     35 H           0.3655   12.1616   -0.0004 H       1  LIG1        0.0669
     36 C           0.8730   15.0889   -0.0005 C.1     1  LIG1       -0.0665
     37 C           0.1383   16.0416   -0.0004 C.1     1  LIG1       -0.1138
     38 H          -0.5111   16.8865    0.0006 H       1  LIG1        0.1232
@<TRIPOS>BOND
     1    36    37    3
     2    36    31    1
     3    37    38    1
     4    31    30   ar
     5    31    32   ar
     6    35    30    1
     7    30    29   ar
     8    34    32    1
     9    32    33   ar
    10    18    17    3
    11    18    19    1
    12    17    13    1
    13    29    33   ar
    14    29    23    1
    15    24    23   ar
    16    24    20   ar
    17    16    12    1
    18    13    12   ar
    19    13    14   ar
    20    23    22   ar
    21    12    11   ar
    22    14    20    1
    23    14    15   ar
    24    20    21   ar
    25    22    21   ar
    26    22    26    1
    27    11    15   ar
    28    11     4    1
    29    21    25    1
    30    10     9    1
    31    26    27    3
    32     5     4   ar
    33     5     1   ar
    34     4     3   ar
    35    27    28    1
    36     2     1   ar
    37     2     7    1
    38     2     3   ar
    39     1     6    1
    40     3     8    1
    41     8     9    3
