@<TRIPOS>MOLECULE
mol_data/opt/cam/geoms/mol2/12ae12ae12ae12ae-.out
 38 41 0 0 0
SMALL
GASTEIGER

@<TRIPOS>ATOM
      1 C           0.5819    1.6141   -0.0001 C.ar    1  LIG1        0.0939
      2 C           1.9268    1.7402   -0.0000 C.ar    1  LIG1       -0.0077
      3 C           2.1978    3.1506   -0.0000 C.ar    1  LIG1        0.0734
      4 C           0.9681    3.7650   -0.0001 C.ar    1  LIG1        0.1850
      5 O          -0.0141    2.8351   -0.0001 O.2     1  LIG1       -0.4586
      6 H          -0.0846    0.7670   -0.0001 H       1  LIG1        0.1030
      7 H           2.6588    0.9477    0.0000 H       1  LIG1        0.0661
      8 C           3.4674    3.7831    0.0000 C.1     1  LIG1       -0.0658
      9 C           4.5484    4.3146    0.0000 C.1     1  LIG1       -0.1138
     10 H           5.5081    4.7778    0.0000 H       1  LIG1        0.1232
     11 C           0.5796    5.1494   -0.0001 C.ar    1  LIG1        0.1731
     12 C           1.2940    6.3086   -0.0001 C.ar    1  LIG1        0.0035
     13 C           0.3373    7.3702   -0.0001 C.ar    1  LIG1        0.0741
     14 C          -0.8990    6.7644   -0.0001 C.ar    1  LIG1        0.1860
     15 O          -0.7559    5.4200   -0.0001 O.2     1  LIG1       -0.4473
     16 H           2.3681    6.4007   -0.0000 H       1  LIG1        0.0669
     17 C           0.6009    8.7643   -0.0001 C.1     1  LIG1       -0.0657
     18 C           0.8284    9.9469   -0.0001 C.1     1  LIG1       -0.1138
     19 H           1.0379   10.9919   -0.0000 H       1  LIG1        0.1232
     20 C          -2.2337    7.2929   -0.0002 C.ar    1  LIG1        0.1732
     21 C          -2.7269    8.5621   -0.0002 C.ar    1  LIG1        0.0035
     22 C          -4.1526    8.4441   -0.0002 C.ar    1  LIG1        0.0741
     23 C          -4.4162    7.0941   -0.0002 C.ar    1  LIG1        0.1860
     24 O          -3.2580    6.3938   -0.0002 O.2     1  LIG1       -0.4473
     25 H          -2.1525    9.4743   -0.0002 H       1  LIG1        0.0669
     26 C          -5.0854    9.5145   -0.0003 C.1     1  LIG1       -0.0657
     27 C          -5.8501   10.4435   -0.0003 C.1     1  LIG1       -0.1138
     28 H          -6.5357   11.2591   -0.0003 H       1  LIG1        0.1232
     29 C          -5.6188    6.3088   -0.0003 C.ar    1  LIG1        0.1721
     30 C          -5.8278    4.9641   -0.0003 C.ar    1  LIG1        0.0027
     31 C          -7.2504    4.7844   -0.0003 C.ar    1  LIG1        0.0630
     32 C          -7.7826    6.0407   -0.0003 C.ar    1  LIG1        0.1081
     33 O          -6.8069    6.9716   -0.0003 O.2     1  LIG1       -0.4585
     34 H          -8.7969    6.4051   -0.0004 H       1  LIG1        0.1042
     35 H          -5.0720    4.1948   -0.0002 H       1  LIG1        0.0669
     36 C          -7.9694    3.5572   -0.0003 C.1     1  LIG1       -0.0665
     37 C          -8.5724    2.5161   -0.0003 C.1     1  LIG1       -0.1138
     38 H          -9.1076    1.5947   -0.0005 H       1  LIG1        0.1232
@<TRIPOS>BOND
     1    38    37    1
     2    34    32    1
     3    32    33   ar
     4    32    31   ar
     5    37    36    3
     6    36    31    1
     7    33    29   ar
     8    31    30   ar
     9    27    26    3
    10    27    28    1
    11    26    22    1
    12    29    30   ar
    13    29    23    1
    14    30    35    1
    15    22    23   ar
    16    22    21   ar
    17    23    24   ar
    18    24    20   ar
    19    21    25    1
    20    21    20   ar
    21    20    14    1
    22    14    15   ar
    23    14    13   ar
    24    15    11   ar
    25     6     1    1
    26     5     1   ar
    27     5     4   ar
    28     1     2   ar
    29    13    17    1
    30    13    12   ar
    31    11     4    1
    32    11    12   ar
    33    17    18    3
    34    18    19    1
    35     4     3   ar
    36    12    16    1
    37     3     2   ar
    38     3     8    1
    39     2     7    1
    40     8     9    3
    41    10     9    1
