@<TRIPOS>MOLECULE
mol_data/opt/cam/geoms/mol2/12ae12ae12ae-12ae-.out
 38 41 0 0 0
SMALL
GASTEIGER

@<TRIPOS>ATOM
      1 C           0.2644    1.6305   -0.0001 C.ar    1  LIG1        0.0939
      2 C           1.6149    1.6551   -0.0001 C.ar    1  LIG1       -0.0077
      3 C           1.9915    3.0411   -0.0000 C.ar    1  LIG1        0.0734
      4 C           0.8118    3.7465   -0.0001 C.ar    1  LIG1        0.1850
      5 O          -0.2380    2.8931   -0.0001 O.2     1  LIG1       -0.4586
      6 H          -0.4638    0.8358   -0.0001 H       1  LIG1        0.1030
      7 H           2.2853    0.8098   -0.0001 H       1  LIG1        0.0661
      8 C           3.3051    3.5763   -0.0000 C.1     1  LIG1       -0.0658
      9 C           4.4229    4.0249   -0.0000 C.1     1  LIG1       -0.1138
     10 H           5.4144    4.4158   -0.0001 H       1  LIG1        0.1232
     11 C           0.5275    5.1560   -0.0001 C.ar    1  LIG1        0.1731
     12 C           1.3226    6.2605   -0.0001 C.ar    1  LIG1        0.0035
     13 C           0.4471    7.3923   -0.0001 C.ar    1  LIG1        0.0741
     14 C          -0.8286    6.8778   -0.0001 C.ar    1  LIG1        0.1860
     15 O          -0.7847    5.5238   -0.0001 O.2     1  LIG1       -0.4473
     16 H           2.4005    6.2755   -0.0001 H       1  LIG1        0.0669
     17 C           0.8333    8.7582   -0.0001 C.1     1  LIG1       -0.0657
     18 C           1.1863    9.9083   -0.0001 C.1     1  LIG1       -0.1138
     19 H           1.4849   10.9310   -0.0001 H       1  LIG1        0.1232
     20 C          -2.1405    7.4575   -0.0002 C.ar    1  LIG1        0.1732
     21 C          -3.3822    6.8995   -0.0002 C.ar    1  LIG1        0.0035
     22 C          -4.3096    7.9867   -0.0002 C.ar    1  LIG1        0.0741
     23 C          -3.5472    9.1331   -0.0002 C.ar    1  LIG1        0.1860
     24 O          -2.2331    8.8149   -0.0002 O.2     1  LIG1       -0.4473
     25 H          -3.6150    5.8466   -0.0001 H       1  LIG1        0.0669
     26 C          -5.7264    7.9070   -0.0002 C.1     1  LIG1       -0.0657
     27 C          -6.9284    7.8337   -0.0002 C.1     1  LIG1       -0.1138
     28 H          -7.9917    7.7607   -0.0002 H       1  LIG1        0.1232
     29 C          -3.8975   10.5275   -0.0002 C.ar    1  LIG1        0.1721
     30 C          -5.0947   11.1766   -0.0002 C.ar    1  LIG1        0.0027
     31 C          -4.7872   12.5769   -0.0003 C.ar    1  LIG1        0.0630
     32 C          -3.4253   12.6574   -0.0002 C.ar    1  LIG1        0.1081
     33 O          -2.8745   11.4274   -0.0002 O.2     1  LIG1       -0.4585
     34 H          -2.7432   13.4919   -0.0002 H       1  LIG1        0.1042
     35 H          -6.0722   10.7224   -0.0003 H       1  LIG1        0.0669
     36 C          -5.7032   13.6648   -0.0003 C.1     1  LIG1       -0.0665
     37 C          -6.4829   14.5811   -0.0004 C.1     1  LIG1       -0.1138
     38 H          -7.1722   15.3938   -0.0004 H       1  LIG1        0.1232
@<TRIPOS>BOND
     1    38    37    1
     2    37    36    3
     3    36    31    1
     4    31    30   ar
     5    31    32   ar
     6    35    30    1
     7    30    29   ar
     8    34    32    1
     9    32    33   ar
    10    28    27    1
    11    29    33   ar
    12    29    23    1
    13    27    26    3
    14    26    22    1
    15    23    22   ar
    16    23    24   ar
    17    22    21   ar
    18    24    20   ar
    19    21    20   ar
    20    21    25    1
    21    20    14    1
    22    14    15   ar
    23    14    13   ar
    24    15    11   ar
    25    18    19    1
    26    18    17    3
    27    13    17    1
    28    13    12   ar
    29    11    12   ar
    30    11     4    1
    31    12    16    1
    32    10     9    1
    33     5     4   ar
    34     5     1   ar
    35     7     2    1
    36     4     3   ar
    37     2     1   ar
    38     2     3   ar
    39     1     6    1
    40     3     8    1
    41     8     9    3
