@<TRIPOS>MOLECULE
mol_data/opt/cam/geoms/mol2/12ae12ae-12ae-12ae.out
 38 41 0 0 0
SMALL
GASTEIGER

@<TRIPOS>ATOM
      1 C          -0.0532    1.7381   -0.0001 C.ar    1  LIG1        0.0939
      2 C           1.2929    1.6377   -0.0000 C.ar    1  LIG1       -0.0077
      3 C           1.8021    2.9827   -0.0001 C.ar    1  LIG1        0.0734
      4 C           0.6944    3.7946   -0.0001 C.ar    1  LIG1        0.1850
      5 O          -0.4339    3.0428   -0.0001 O.2     1  LIG1       -0.4586
      6 H          -0.8527    1.0153   -0.0001 H       1  LIG1        0.1030
      7 H           1.8822    0.7340    0.0000 H       1  LIG1        0.0661
      8 C           3.1707    3.3588   -0.0000 C.1     1  LIG1       -0.0658
      9 C           4.3435    3.6295   -0.0000 C.1     1  LIG1       -0.1138
     10 H           5.3823    3.8672   -0.0001 H       1  LIG1        0.1232
     11 C           0.4948    5.2171   -0.0001 C.ar    1  LIG1        0.1731
     12 C          -0.6322    5.9802   -0.0001 C.ar    1  LIG1        0.0035
     13 C          -0.1954    7.3411   -0.0001 C.ar    1  LIG1        0.0741
     14 C           1.1806    7.2949   -0.0001 C.ar    1  LIG1        0.1860
     15 O           1.6003    6.0087   -0.0001 O.2     1  LIG1       -0.4473
     16 H          -1.6507    5.6262   -0.0001 H       1  LIG1        0.0669
     17 C          -1.0055    8.5058   -0.0001 C.1     1  LIG1       -0.0657
     18 C          -1.6956    9.4928   -0.0001 C.1     1  LIG1       -0.1138
     19 H          -2.3135   10.3613   -0.0002 H       1  LIG1        0.1232
     20 C           2.1850    8.3201   -0.0001 C.ar    1  LIG1        0.1732
     21 C           2.1255    9.6806   -0.0001 C.ar    1  LIG1        0.0035
     22 C           3.4786   10.1460   -0.0001 C.ar    1  LIG1        0.0741
     23 C           4.2624    9.0159   -0.0001 C.ar    1  LIG1        0.1860
     24 O           3.4837    7.9095   -0.0001 O.2     1  LIG1       -0.4473
     25 H           1.2326   10.2848   -0.0001 H       1  LIG1        0.0669
     26 C           3.9047   11.5004   -0.0002 C.1     1  LIG1       -0.0657
     27 C           4.2358   12.6572   -0.0002 C.1     1  LIG1       -0.1138
     28 H           4.5392   13.6785   -0.0001 H       1  LIG1        0.1232
     29 C           5.6775    8.7713   -0.0001 C.ar    1  LIG1        0.1721
     30 C           6.3933    7.6144   -0.0001 C.ar    1  LIG1        0.0027
     31 C           7.7735    8.0022   -0.0001 C.ar    1  LIG1        0.0630
     32 C           7.7744    9.3668   -0.0002 C.ar    1  LIG1        0.1081
     33 O           6.5128    9.8444   -0.0002 O.2     1  LIG1       -0.4585
     34 H           8.5667   10.0974   -0.0002 H       1  LIG1        0.1042
     35 H           5.9909    6.6139   -0.0001 H       1  LIG1        0.0669
     36 C           8.9124    7.1503   -0.0001 C.1     1  LIG1       -0.0665
     37 C           9.8708    6.4228   -0.0001 C.1     1  LIG1       -0.1138
     38 H          10.7216    5.7812    0.0000 H       1  LIG1        0.1232
@<TRIPOS>BOND
     1    34    32    1
     2    19    18    1
     3    32    33   ar
     4    32    31   ar
     5    27    26    3
     6    27    28    1
     7    33    29   ar
     8    26    22    1
     9    31    36    1
    10    31    30   ar
    11    36    37    3
    12    29    30   ar
    13    29    23    1
    14    22    23   ar
    15    22    21   ar
    16    30    35    1
    17    23    24   ar
    18    37    38    1
    19    18    17    3
    20    21    25    1
    21    21    20   ar
    22    24    20   ar
    23    20    14    1
    24    17    13    1
    25    14    13   ar
    26    14    15   ar
    27    13    12   ar
    28    15    11   ar
    29    12    16    1
    30    12    11   ar
    31     5     4   ar
    32     5     1   ar
    33    11     4    1
    34     6     1    1
    35    10     9    1
    36     4     3   ar
    37     1     2   ar
    38     3     8    1
    39     3     2   ar
    40     8     9    3
    41     2     7    1
