@<TRIPOS>MOLECULE
mol_data/opt/cam/geoms/mol2/12ae12ae-12ae.out
 29 31 0 0 0
SMALL
GASTEIGER

@<TRIPOS>ATOM
      1 C           0.1676    1.7761   -0.0002 C.ar    1  LIG1        0.0939
      2 C           1.5173    1.7560    0.0001 C.ar    1  LIG1       -0.0077
      3 C           1.9447    3.1291   -0.0001 C.ar    1  LIG1        0.0734
      4 C           0.7902    3.8730   -0.0001 C.ar    1  LIG1        0.1850
      5 O          -0.2907    3.0560   -0.0002 O.2     1  LIG1       -0.4586
      6 H          -0.5874    1.0068   -0.0002 H       1  LIG1        0.1030
      7 H           2.1590    0.8887    0.0002 H       1  LIG1        0.0661
      8 C           3.2858    3.5943   -0.0001 C.1     1  LIG1       -0.0658
      9 C           4.4355    3.9514    0.0000 C.1     1  LIG1       -0.1138
     10 H           5.4526    4.2691    0.0000 H       1  LIG1        0.1232
     11 C           0.5163    5.2828   -0.0001 C.ar    1  LIG1        0.1731
     12 C          -0.6410    5.9970   -0.0001 C.ar    1  LIG1        0.0035
     13 C          -0.2654    7.3788   -0.0001 C.ar    1  LIG1        0.0741
     14 C           1.1096    7.3915   -0.0001 C.ar    1  LIG1        0.1860
     15 O           1.5852    6.1235   -0.0001 O.2     1  LIG1       -0.4473
     16 H          -1.6440    5.6010   -0.0001 H       1  LIG1        0.0669
     17 C          -1.1459    8.4925   -0.0001 C.1     1  LIG1       -0.0657
     18 C          -1.9173    9.4160   -0.0001 C.1     1  LIG1       -0.1138
     19 H          -2.5920   10.2406   -0.0004 H       1  LIG1        0.1232
     20 C           2.1085    8.4232   -0.0001 C.ar    1  LIG1        0.1721
     21 C           3.4679    8.3658   -0.0000 C.ar    1  LIG1        0.0027
     22 C           3.9210    9.7263   -0.0000 C.ar    1  LIG1        0.0630
     23 C           2.7923   10.4929   -0.0001 C.ar    1  LIG1        0.1081
     24 O           1.6889    9.7170   -0.0001 O.2     1  LIG1       -0.4585
     25 H           2.6324   11.5587   -0.0001 H       1  LIG1        0.1042
     26 H           4.0714    7.4719   -0.0000 H       1  LIG1        0.0669
     27 C           5.2646   10.1927   -0.0000 C.1     1  LIG1       -0.0665
     28 C           6.4033   10.5814   -0.0000 C.1     1  LIG1       -0.1138
     29 H           7.4110   10.9277   -0.0005 H       1  LIG1        0.1232
@<TRIPOS>BOND
     1    29    28    1
     2    19    18    1
     3     6     1    1
     4     1     5   ar
     5     1     2   ar
     6     5     4   ar
     7    18    17    3
     8    17    13    1
     9     3     8    1
    10     3     4   ar
    11     3     2   ar
    12    13    14   ar
    13    13    12   ar
    14     8     9    3
    15     4    11    1
    16    25    23    1
    17    11    15   ar
    18    11    12   ar
    19    24    23   ar
    20    24    20   ar
    21    15    14   ar
    22    14    20    1
    23    23    22   ar
    24    12    16    1
    25    20    21   ar
    26    21    22   ar
    27    21    26    1
    28    22    27    1
    29    28    27    3
    30    10     9    1
    31     2     7    1
