@<TRIPOS>MOLECULE
mol_data/opt/cam/geoms/mol2/12ae12ae12ae.out
 29 31 0 0 0
SMALL
GASTEIGER

@<TRIPOS>ATOM
      1 C           0.3879    1.6161   -0.0001 C.ar    1  LIG1        0.0939
      2 C           1.7352    1.7119   -0.0001 C.ar    1  LIG1       -0.0077
      3 C           2.0377    3.1160   -0.0001 C.ar    1  LIG1        0.0734
      4 C           0.8220    3.7577   -0.0001 C.ar    1  LIG1        0.1850
      5 O          -0.1805    2.8501   -0.0001 O.2     1  LIG1       -0.4586
      6 H          -0.2975    0.7842   -0.0001 H       1  LIG1        0.1030
      7 H           2.4494    0.9033   -0.0001 H       1  LIG1        0.0661
      8 C           3.3212    3.7199   -0.0001 C.1     1  LIG1       -0.0658
      9 C           4.4139    4.2268   -0.0000 C.1     1  LIG1       -0.1138
     10 H           5.3834    4.6693    0.0007 H       1  LIG1        0.1232
     11 C           0.4650    5.1509   -0.0001 C.ar    1  LIG1        0.1731
     12 C           1.2055    6.2931   -0.0001 C.ar    1  LIG1        0.0035
     13 C           0.2723    7.3762   -0.0001 C.ar    1  LIG1        0.0741
     14 C          -0.9767    6.7987   -0.0001 C.ar    1  LIG1        0.1860
     15 O          -0.8641    5.4519   -0.0001 O.2     1  LIG1       -0.4473
     16 H           2.2813    6.3609   -0.0001 H       1  LIG1        0.0669
     17 C           0.5684    8.7640   -0.0001 C.1     1  LIG1       -0.0657
     18 C           0.8248    9.9407   -0.0001 C.1     1  LIG1       -0.1138
     19 H           1.0600   10.9802   -0.0005 H       1  LIG1        0.1232
     20 C          -2.3012    7.3589   -0.0002 C.ar    1  LIG1        0.1721
     21 C          -2.7602    8.6409   -0.0002 C.ar    1  LIG1        0.0027
     22 C          -4.1912    8.5504   -0.0002 C.ar    1  LIG1        0.0630
     23 C          -4.4785    7.2167   -0.0002 C.ar    1  LIG1        0.1081
     24 O          -3.3467    6.4851   -0.0002 O.2     1  LIG1       -0.4585
     25 H          -5.4071    6.6693   -0.0002 H       1  LIG1        0.1042
     26 H          -2.1623    9.5377   -0.0002 H       1  LIG1        0.0669
     27 C          -5.1267    9.6216   -0.0002 C.1     1  LIG1       -0.0665
     28 C          -5.9134   10.5319   -0.0002 C.1     1  LIG1       -0.1138
     29 H          -6.6121   11.3364   -0.0002 H       1  LIG1        0.1232
@<TRIPOS>BOND
     1    19    18    1
     2    28    27    3
     3    28    29    1
     4    27    22    1
     5    25    23    1
     6    22    23   ar
     7    22    21   ar
     8    23    24   ar
     9    24    20   ar
    10    21    20   ar
    11    21    26    1
    12    20    14    1
    13    14    15   ar
    14    14    13   ar
    15    18    17    3
    16    15    11   ar
    17     7     2    1
    18    13    17    1
    19    13    12   ar
    20     5     4   ar
    21     5     1   ar
    22    11     4    1
    23    11    12   ar
    24     2     1   ar
    25     2     3   ar
    26     6     1    1
    27     4     3   ar
    28    12    16    1
    29     3     8    1
    30     8     9    3
    31     9    10    1
