@<TRIPOS>MOLECULE
mol_data/opt/cam/geoms/mol2/12ae6fi12da-12da.out
 40 43 0 0 0
SMALL
GASTEIGER

@<TRIPOS>ATOM
      1 C           0.4513    1.5946   -0.3944 C.ar    1  LIG1        0.0938
      2 C           1.7712    1.6811   -0.1433 C.ar    1  LIG1       -0.0078
      3 C           2.0726    3.0796    0.0051 C.ar    1  LIG1        0.0705
      4 C           0.8869    3.7550   -0.1662 C.ar    1  LIG1        0.1552
      5 O          -0.1002    2.8411   -0.4093 O.2     1  LIG1       -0.4615
      6 H          -0.2261    0.7766   -0.5766 H       1  LIG1        0.1030
      7 H           2.4769    0.8685   -0.0694 H       1  LIG1        0.0661
      8 C           3.3661    3.6087    0.2573 C.1     1  LIG1       -0.0659
      9 C           4.4788    4.0171    0.4699 C.1     1  LIG1       -0.1138
     10 H           5.4641    4.3827    0.6487 H       1  LIG1        0.1232
     11 C          -0.7574    5.6365   -0.5917 C.ar    1  LIG1        0.2239
     12 C           0.5041    5.1609   -0.1426 C.ar    1  LIG1        0.0800
     13 C           1.3884    6.1214    0.3379 C.ar    1  LIG1       -0.0409
     14 C           1.0807    7.4793    0.3491 C.ar    1  LIG1       -0.0205
     15 C          -0.1746    7.8178   -0.1672 C.ar    1  LIG1        0.1140
     16 N          -1.0611    6.9161   -0.6008 N.ar    1  LIG1       -0.2090
     17 H           2.3471    5.8012    0.7277 H       1  LIG1        0.0630
     18 O          -1.7326    4.8343   -1.0459 O.3     1  LIG1       -0.4919
     19 H          -1.4598    3.9088   -0.9725 H       1  LIG1        0.2938
     20 C           2.0596    8.4618    0.9332 C.3     1  LIG1       -0.0376
     21 H           1.5531    9.3068    1.4043 H       1  LIG1        0.0278
     22 H           2.7314    8.8689    0.1732 H       1  LIG1        0.0278
     23 H           2.6725    7.9725    1.6931 H       1  LIG1        0.0278
     24 C          -0.6555    9.2057   -0.2612 C.ar    1  LIG1        0.1716
     25 C          -0.1113   10.3847   -0.7152 C.ar    1  LIG1        0.0996
     26 C          -1.1292   11.3819   -0.6128 C.ar    1  LIG1        0.0054
     27 C          -2.2169   10.7382   -0.1088 C.ar    1  LIG1        0.1732
     28 O          -1.9349    9.4257    0.1014 O.2     1  LIG1       -0.4488
     29 N           2.2390   10.7239   -1.7202 N.1     1  LIG1       -0.1907
     30 C           1.1855   10.5686   -1.2678 C.1     1  LIG1        0.1030
     31 H          -1.0532   12.4222   -0.8895 H       1  LIG1        0.0670
     32 C          -3.5430   11.1868    0.2273 C.ar    1  LIG1        0.1870
     33 C          -4.1443   12.4204    0.1620 C.ar    1  LIG1        0.1004
     34 C          -5.4870   12.2389    0.6315 C.ar    1  LIG1       -0.0057
     35 C          -5.5927   10.9285    0.9413 C.ar    1  LIG1        0.0940
     36 O          -4.4200   10.2822    0.7006 O.2     1  LIG1       -0.4585
     37 H          -6.3931   10.3183    1.3262 H       1  LIG1        0.1030
     38 N          -3.0030   14.5810   -0.6545 N.1     1  LIG1       -0.1907
     39 C          -3.5295   13.6182   -0.2855 C.1     1  LIG1        0.1031
     40 H          -6.2488   12.9978    0.7161 H       1  LIG1        0.0662
@<TRIPOS>BOND
     1    29    30    3
     2    30    25    1
     3    18    19    1
     4    18    11    1
     5    31    26    1
     6    25    26   ar
     7    25    24   ar
     8    38    39    3
     9    26    27   ar
    10    16    11   ar
    11    16    15   ar
    12    11    12   ar
    13     6     1    1
    14     5     1   ar
    15     5     4   ar
    16     1     2   ar
    17    39    33    1
    18    24    15    1
    19    24    28   ar
    20    15    14   ar
    21     4    12    1
    22     4     3   ar
    23     2     7    1
    24     2     3   ar
    25    12    13   ar
    26    27    28   ar
    27    27    32    1
    28     3     8    1
    29    33    32   ar
    30    33    34   ar
    31    22    20    1
    32    32    36   ar
    33     8     9    3
    34    13    14   ar
    35    13    17    1
    36    14    20    1
    37     9    10    1
    38    34    40    1
    39    34    35   ar
    40    36    35   ar
    41    20    21    1
    42    20    23    1
    43    35    37    1
