@<TRIPOS>MOLECULE
mol_data/opt/cam/geoms/mol2/12ae4ee6eh-6fa-.out
 48 51 0 0 0
SMALL
GASTEIGER

@<TRIPOS>ATOM
      1 C           1.4486    1.7993    0.7233 C.ar    1  LIG1        0.0938
      2 C           2.7444    1.8710    0.3308 C.ar    1  LIG1       -0.0078
      3 C           2.9866    3.2475   -0.0253 C.ar    1  LIG1        0.0703
      4 C           1.7883    3.9109    0.1723 C.ar    1  LIG1        0.1513
      5 O           0.8559    3.0240    0.6415 O.2     1  LIG1       -0.4616
      6 H           0.8177    0.9940    1.0652 H       1  LIG1        0.1030
      7 H           3.4657    1.0685    0.2971 H       1  LIG1        0.0661
      8 C           4.2419    3.7908   -0.3960 C.1     1  LIG1       -0.0659
      9 C           5.3378    4.2156   -0.6831 C.1     1  LIG1       -0.1138
     10 H           6.2928    4.6094   -0.9428 H       1  LIG1        0.1232
     11 C           1.6598    6.1533   -1.0060 C.ar    1  LIG1        0.0360
     12 C           1.2256    7.4900   -0.9733 C.ar    1  LIG1       -0.0367
     13 C           1.3528    5.3054    0.0898 C.ar    1  LIG1        0.0350
     14 C           0.4776    8.0129    0.0806 C.ar    1  LIG1        0.0014
     15 H           1.4752    8.1274   -1.8130 H       1  LIG1        0.0636
     16 C           0.5762    5.8204    1.1338 C.ar    1  LIG1       -0.0339
     17 C           0.1325    7.1503    1.1547 C.ar    1  LIG1        0.0332
     18 H           0.3130    5.1723    1.9613 H       1  LIG1        0.0637
     19 C           2.3356    5.6918   -2.1739 C.1     1  LIG1       -0.0689
     20 C           2.8728    5.3464   -3.2015 C.1     1  LIG1       -0.1139
     21 H           3.3608    5.0174   -4.0895 H       1  LIG1        0.1232
     22 C          -0.6691    7.5840    2.2559 C.1     1  LIG1       -0.0690
     23 C          -1.3487    7.9090    3.2032 C.1     1  LIG1       -0.1139
     24 H          -1.9570    8.2041    4.0267 H       1  LIG1        0.1232
     25 C          -0.6138   10.0441   -1.0025 C.ar    1  LIG1        0.1216
     26 C           0.0820    9.4457    0.0719 C.ar    1  LIG1        0.0189
     27 C           0.4393   10.2806    1.1298 C.ar    1  LIG1       -0.0285
     28 C           0.1095   11.6393    1.1521 C.ar    1  LIG1        0.0517
     29 C          -0.6665   12.1462    0.0671 C.ar    1  LIG1        0.0980
     30 N          -0.9585   11.3434   -0.9687 N.ar    1  LIG1       -0.2358
     31 H           1.0140    9.8691    1.9543 H       1  LIG1        0.0643
     32 C          -1.0196    9.3170   -2.1677 C.1     1  LIG1       -0.0492
     33 C          -1.3757    8.7278   -3.1620 C.1     1  LIG1       -0.1124
     34 H          -1.6922    8.2042   -4.0345 H       1  LIG1        0.1232
     35 N           0.5306   12.4291    2.2156 N.pl3   1  LIG1       -0.3563
     36 H           1.2920   12.0331    2.7511 H       1  LIG1        0.1424
     37 H           0.6844   13.4049    1.9977 H       1  LIG1        0.1424
     38 C          -1.4228   14.1426   -1.3113 C.ar    1  LIG1        0.2218
     39 C          -1.1542   13.5421   -0.0348 C.ar    1  LIG1        0.0635
     40 C          -1.4221   14.3398    1.0882 C.ar    1  LIG1       -0.0460
     41 C          -1.8321   15.6621    0.9398 C.ar    1  LIG1       -0.0427
     42 C          -1.9536   16.1600   -0.3557 C.ar    1  LIG1        0.0314
     43 N          -1.7681   15.4241   -1.4526 N.ar    1  LIG1       -0.2209
     44 H          -1.3353   13.9139    2.0816 H       1  LIG1        0.0626
     45 H          -2.2300   17.1999   -0.5242 H       1  LIG1        0.0831
     46 O          -1.3434   13.4506   -2.4485 O.3     1  LIG1       -0.4919
     47 H          -1.2578   12.4924   -2.1934 H       1  LIG1        0.2937
     48 H          -2.0463   16.2849    1.8014 H       1  LIG1        0.0633
@<TRIPOS>BOND
     1    21    20    1
     2    34    33    1
     3    20    19    3
     4    33    32    3
     5    46    47    1
     6    46    38    1
     7    19    11    1
     8    32    25    1
     9    15    12    1
    10    43    38   ar
    11    43    42   ar
    12    38    39   ar
    13    11    12   ar
    14    11    13   ar
    15    25    30   ar
    16    25    26   ar
    17    12    14   ar
    18    30    29   ar
    19    10     9    1
    20     9     8    3
    21    45    42    1
    22     8     3    1
    23    42    41   ar
    24    39    29    1
    25    39    40   ar
    26     3     4   ar
    27     3     2   ar
    28    29    28   ar
    29    26    14    1
    30    26    27   ar
    31    14    17   ar
    32    13     4    1
    33    13    16   ar
    34     4     5   ar
    35     7     2    1
    36     2     1   ar
    37     5     1   ar
    38     1     6    1
    39    41    40   ar
    40    41    48    1
    41    40    44    1
    42    27    28   ar
    43    27    31    1
    44    16    17   ar
    45    16    18    1
    46    28    35    1
    47    17    22    1
    48    37    35    1
    49    35    36    1
    50    22    23    3
    51    23    24    1
