@<TRIPOS>MOLECULE
mol_data/opt/cam/geoms/mol2/12ae12ae-12ae12ae.out
 38 41 0 0 0
SMALL
GASTEIGER

@<TRIPOS>ATOM
      1 C           0.2567    1.6698   -0.0000 C.ar    1  LIG1        0.0939
      2 C           1.6065    1.6882   -0.0000 C.ar    1  LIG1       -0.0077
      3 C           1.9945    3.0729   -0.0000 C.ar    1  LIG1        0.0734
      4 C           0.8192    3.7837   -0.0001 C.ar    1  LIG1        0.1850
      5 O          -0.2379    2.9360   -0.0001 O.2     1  LIG1       -0.4586
      6 H          -0.4761    0.8793   -0.0001 H       1  LIG1        0.1030
      7 H           2.2726    0.8396    0.0000 H       1  LIG1        0.0661
      8 C           3.3221    3.5754   -0.0000 C.1     1  LIG1       -0.0658
      9 C           4.4623    3.9619    0.0000 C.1     1  LIG1       -0.1138
     10 H           5.4712    4.3052   -0.0000 H       1  LIG1        0.1232
     11 C           0.5053    5.1849   -0.0001 C.ar    1  LIG1        0.1731
     12 C          -0.6725    5.8656   -0.0001 C.ar    1  LIG1        0.0035
     13 C          -0.3376    7.2573   -0.0001 C.ar    1  LIG1        0.0741
     14 C           1.0371    7.3097   -0.0001 C.ar    1  LIG1        0.1860
     15 O           1.5497    6.0556   -0.0001 O.2     1  LIG1       -0.4473
     16 H          -1.6635    5.4405   -0.0001 H       1  LIG1        0.0669
     17 C          -1.2472    8.3467   -0.0002 C.1     1  LIG1       -0.0657
     18 C          -2.0379    9.2536   -0.0002 C.1     1  LIG1       -0.1138
     19 H          -2.7273   10.0659   -0.0003 H       1  LIG1        0.1232
     20 C           2.0045    8.3678   -0.0001 C.ar    1  LIG1        0.1732
     21 C           3.3656    8.3477   -0.0001 C.ar    1  LIG1        0.0035
     22 C           3.7848    9.7138   -0.0001 C.ar    1  LIG1        0.0741
     23 C           2.6298   10.4634   -0.0002 C.ar    1  LIG1        0.1860
     24 O           1.5497    9.6499   -0.0002 O.2     1  LIG1       -0.4473
     25 H           3.9924    7.4699   -0.0001 H       1  LIG1        0.0669
     26 C           5.1166   10.2041   -0.0001 C.1     1  LIG1       -0.0657
     27 C           6.2485   10.6152   -0.0001 C.1     1  LIG1       -0.1138
     28 H           7.2528   10.9721   -0.0001 H       1  LIG1        0.1232
     29 C           2.3974   11.8822   -0.0002 C.ar    1  LIG1        0.1721
     30 C           3.2377   12.9538   -0.0002 C.ar    1  LIG1        0.0027
     31 C           2.3987   14.1163   -0.0002 C.ar    1  LIG1        0.0630
     32 C           1.1171   13.6486   -0.0002 C.ar    1  LIG1        0.1081
     33 O           1.1009   12.3011   -0.0002 O.2     1  LIG1       -0.4585
     34 H           0.1594   14.1430   -0.0003 H       1  LIG1        0.1042
     35 H           4.3153   12.9259   -0.0002 H       1  LIG1        0.0669
     36 C           2.8067   15.4788   -0.0002 C.1     1  LIG1       -0.0665
     37 C           3.1577   16.6296   -0.0002 C.1     1  LIG1       -0.1138
     38 H           3.4672   17.6492   -0.0003 H       1  LIG1        0.1232
@<TRIPOS>BOND
     1    38    37    1
     2    19    18    1
     3    34    32    1
     4    37    36    3
     5    32    31   ar
     6    32    33   ar
     7    36    31    1
     8    31    30   ar
     9    33    29   ar
    10    18    17    3
    11    30    29   ar
    12    30    35    1
    13    29    23    1
    14    17    13    1
    15    24    23   ar
    16    24    20   ar
    17    23    22   ar
    18    13    14   ar
    19    13    12   ar
    20    16    12    1
    21    20    14    1
    22    20    21   ar
    23    14    15   ar
    24    22    26    1
    25    22    21   ar
    26    12    11   ar
    27    26    27    3
    28    28    27    1
    29    21    25    1
    30    15    11   ar
    31    11     4    1
    32     5     4   ar
    33     5     1   ar
    34     4     3   ar
    35     6     1    1
    36     1     2   ar
    37     3     8    1
    38     3     2   ar
    39     8     9    3
    40     2     7    1
    41    10     9    1
