@<TRIPOS>MOLECULE
mol_data/opt/cam/geoms/mol2/12ae12ae12ae12ae.out
 38 41 0 0 0
SMALL
GASTEIGER

@<TRIPOS>ATOM
      1 C           0.7262    1.5935   -0.0001 C.ar    1  LIG1        0.0939
      2 C           2.0677    1.7522   -0.0002 C.ar    1  LIG1       -0.0077
      3 C           2.3041    3.1688   -0.0001 C.ar    1  LIG1        0.0734
      4 C           1.0596    3.7528   -0.0002 C.ar    1  LIG1        0.1850
      5 O           0.1008    2.7994   -0.0002 O.2     1  LIG1       -0.4586
      6 H           0.0804    0.7305   -0.0001 H       1  LIG1        0.1030
      7 H           2.8189    0.9779   -0.0002 H       1  LIG1        0.0661
      8 C           3.5578    3.8322   -0.0001 C.1     1  LIG1       -0.0658
      9 C           4.6256    4.3898   -0.0000 C.1     1  LIG1       -0.1138
     10 H           5.5736    4.8767    0.0011 H       1  LIG1        0.1232
     11 C           0.6378    5.1276   -0.0002 C.ar    1  LIG1        0.1731
     12 C           1.3251    6.3030   -0.0002 C.ar    1  LIG1        0.0035
     13 C           0.3437    7.3418   -0.0002 C.ar    1  LIG1        0.0741
     14 C          -0.8782    6.7069   -0.0002 C.ar    1  LIG1        0.1860
     15 O          -0.7035    5.3668   -0.0002 O.2     1  LIG1       -0.4473
     16 H           2.3967    6.4203   -0.0001 H       1  LIG1        0.0669
     17 C           0.5755    8.7416   -0.0002 C.1     1  LIG1       -0.0657
     18 C           0.7766    9.9290   -0.0002 C.1     1  LIG1       -0.1138
     19 H           0.9641   10.9782   -0.0001 H       1  LIG1        0.1232
     20 C          -2.2241    7.2069   -0.0002 C.ar    1  LIG1        0.1732
     21 C          -2.7389    8.4682   -0.0003 C.ar    1  LIG1        0.0035
     22 C          -4.1600    8.3212   -0.0003 C.ar    1  LIG1        0.0741
     23 C          -4.3998    6.9656   -0.0003 C.ar    1  LIG1        0.1860
     24 O          -3.2308    6.2885   -0.0002 O.2     1  LIG1       -0.4473
     25 H          -2.1799    9.3899   -0.0003 H       1  LIG1        0.0669
     26 C          -5.1296    9.3575   -0.0003 C.1     1  LIG1       -0.0657
     27 C          -5.9485   10.2404   -0.0003 C.1     1  LIG1       -0.1138
     28 H          -6.6678   11.0269    0.0001 H       1  LIG1        0.1232
     29 C          -5.6167    6.1997   -0.0003 C.ar    1  LIG1        0.1721
     30 C          -6.9308    6.5570   -0.0003 C.ar    1  LIG1        0.0027
     31 C          -7.6753    5.3318   -0.0003 C.ar    1  LIG1        0.0630
     32 C          -6.7458    4.3330   -0.0002 C.ar    1  LIG1        0.1081
     33 O          -5.4984    4.8424   -0.0002 O.2     1  LIG1       -0.4585
     34 H          -6.8282    3.2583   -0.0002 H       1  LIG1        0.1042
     35 H          -7.3241    7.5606   -0.0003 H       1  LIG1        0.0669
     36 C          -9.0892    5.1777   -0.0003 C.1     1  LIG1       -0.0665
     37 C         -10.2859    5.0537   -0.0003 C.1     1  LIG1       -0.1138
     38 H         -11.3456    4.9414   -0.0004 H       1  LIG1        0.1232
@<TRIPOS>BOND
     1    38    37    1
     2    35    30    1
     3    37    36    3
     4    26    27    3
     5    26    22    1
     6    36    31    1
     7    27    28    1
     8    30    31   ar
     9    30    29   ar
    10    31    32   ar
    11    22    23   ar
    12    22    21   ar
    13    29    23    1
    14    29    33   ar
    15    25    21    1
    16    23    24   ar
    17    21    20   ar
    18    32    33   ar
    19    32    34    1
    20    24    20   ar
    21    20    14    1
    22    14    13   ar
    23    14    15   ar
    24    17    18    3
    25    17    13    1
    26    18    19    1
    27    13    12   ar
    28    15    11   ar
    29    11    12   ar
    30    11     4    1
    31    12    16    1
    32     7     2    1
    33     5     4   ar
    34     5     1   ar
    35     4     3   ar
    36     2     1   ar
    37     2     3   ar
    38     1     6    1
    39     3     8    1
    40     8     9    3
    41     9    10    1
