@<TRIPOS>MOLECULE
mol_data/opt/cam/geoms/mol2/12ae12ae-.out
 20 21 0 0 0
SMALL
GASTEIGER

@<TRIPOS>ATOM
      1 C           0.1784    1.8116   -0.0000 C.ar    1  LIG1        0.0939
      2 C           1.5277    1.7782    0.0000 C.ar    1  LIG1       -0.0077
      3 C           1.9685    3.1474   -0.0001 C.ar    1  LIG1        0.0734
      4 C           0.8225    3.9028   -0.0001 C.ar    1  LIG1        0.1850
      5 O          -0.2665    3.0962   -0.0001 O.2     1  LIG1       -0.4586
      6 H          -0.5845    1.0502   -0.0001 H       1  LIG1        0.1030
      7 H           2.1612    0.9050    0.0001 H       1  LIG1        0.0661
      8 C           3.3142    3.5989   -0.0001 C.1     1  LIG1       -0.0658
      9 C           4.4666    3.9461   -0.0000 C.1     1  LIG1       -0.1138
     10 H           5.4829    4.2658   -0.0000 H       1  LIG1        0.1232
     11 C           0.5545    5.3166   -0.0001 C.ar    1  LIG1        0.1721
     12 C          -0.6064    6.0251   -0.0001 C.ar    1  LIG1        0.0027
     13 C          -0.2272    7.4088   -0.0001 C.ar    1  LIG1        0.0630
     14 C           1.1367    7.4187   -0.0001 C.ar    1  LIG1        0.1081
     15 O           1.6216    6.1598   -0.0001 O.2     1  LIG1       -0.4585
     16 H           1.8626    8.2153   -0.0002 H       1  LIG1        0.1042
     17 H          -1.6074    5.6242   -0.0001 H       1  LIG1        0.0669
     18 C          -1.0860    8.5424   -0.0001 C.1     1  LIG1       -0.0665
     19 C          -1.8181    9.4972   -0.0001 C.1     1  LIG1       -0.1138
     20 H          -2.4653   10.3438   -0.0002 H       1  LIG1        0.1232
@<TRIPOS>BOND
     1    20    19    1
     2    16    14    1
     3    19    18    3
     4    14    15   ar
     5    14    13   ar
     6    18    13    1
     7    15    11   ar
     8    13    12   ar
     9    11    12   ar
    10    11     4    1
    11    12    17    1
    12     5     4   ar
    13     5     1   ar
    14     4     3   ar
    15     3     8    1
    16     3     2   ar
    17     8     9    3
    18     6     1    1
    19     1     2   ar
    20     9    10    1
    21     2     7    1
