@<TRIPOS>MOLECULE
mol_data/opt/cam/geoms/mol2/12ae4ad-12eh12fi.out
 44 47 0 0 0
SMALL
GASTEIGER

@<TRIPOS>ATOM
      1 C           0.5394    1.5463   -0.3127 C.ar    1  LIG1        0.0938
      2 C           1.8468    1.6054    0.0161 C.ar    1  LIG1       -0.0078
      3 C           2.1568    2.9991    0.1798 C.ar    1  LIG1        0.0703
      4 C           0.9892    3.6840   -0.0678 C.ar    1  LIG1        0.1501
      5 O           0.0087    2.7930   -0.3671 O.2     1  LIG1       -0.4617
      6 H          -0.1366    0.7355   -0.5312 H       1  LIG1        0.1030
      7 H           2.5320    0.7807    0.1352 H       1  LIG1        0.0661
      8 C           3.4321    3.5178    0.5291 C.1     1  LIG1       -0.0659
      9 C           4.5286    3.9176    0.8268 C.1     1  LIG1       -0.1138
     10 H           5.4984    4.2722    1.0907 H       1  LIG1        0.1232
     11 C           1.5219    6.1071    0.2212 C.ar    1  LIG1       -0.0503
     12 C           1.1298    7.4315    0.2136 C.ar    1  LIG1       -0.0491
     13 C           0.6074    5.0896   -0.0755 C.ar    1  LIG1        0.0197
     14 C          -0.1817    7.8131   -0.0950 C.ar    1  LIG1        0.0359
     15 H           1.8530    8.1976    0.4620 H       1  LIG1        0.0625
     16 C          -0.7028    5.4522   -0.3871 C.ar    1  LIG1       -0.0330
     17 C          -1.1017    6.7875   -0.4035 C.ar    1  LIG1        0.0631
     18 H          -1.4290    4.6872   -0.6303 H       1  LIG1        0.0638
     19 H           2.5450    5.8562    0.4705 H       1  LIG1        0.0625
     20 N          -3.5661    7.1279   -1.1289 N.1     1  LIG1       -0.1908
     21 C          -2.4652    7.0327   -0.7881 C.1     1  LIG1        0.0999
     22 C          -0.5418    9.2206   -0.0799 C.ar    1  LIG1        0.1542
     23 C           0.1991   10.3806   -0.1768 C.ar    1  LIG1        0.0918
     24 C          -0.7303   11.4706   -0.0759 C.ar    1  LIG1        0.0904
     25 C          -1.9668   10.8956    0.0612 C.ar    1  LIG1        0.1959
     26 O          -1.8432    9.5328    0.0581 O.2     1  LIG1       -0.4484
     27 C           1.5932   10.5534   -0.3707 C.1     1  LIG1       -0.0640
     28 C           2.7664   10.7718   -0.5412 C.1     1  LIG1       -0.1137
     29 H           3.8064   10.9467   -0.6947 H       1  LIG1        0.1232
     30 N          -0.3904   12.8077   -0.0546 N.pl3   1  LIG1       -0.3540
     31 H           0.5149   13.0005   -0.4593 H       1  LIG1        0.1425
     32 H          -1.1212   13.4296   -0.3790 H       1  LIG1        0.1425
     33 C          -3.2854   11.4487    0.1927 C.ar    1  LIG1        0.2129
     34 C          -3.8184   12.6636   -0.1278 C.ar    1  LIG1        0.1687
     35 C          -5.1929   12.6569    0.2685 C.ar    1  LIG1        0.0295
     36 C          -5.3912   11.4212    0.7943 C.ar    1  LIG1        0.0993
     37 O          -4.2598   10.6825    0.7614 O.2     1  LIG1       -0.4557
     38 H          -6.2618   10.9374    1.2083 H       1  LIG1        0.1033
     39 O          -3.1447   13.6716   -0.7629 O.3     1  LIG1       -0.5030
     40 H          -3.6511   14.4878   -0.6816 H       1  LIG1        0.2923
     41 C          -6.1737   13.7721    0.1026 C.3     1  LIG1       -0.0332
     42 H          -7.1593   13.4804    0.4699 H       1  LIG1        0.0280
     43 H          -6.2871   14.0565   -0.9490 H       1  LIG1        0.0280
     44 H          -5.8739   14.6673    0.6597 H       1  LIG1        0.0280
@<TRIPOS>BOND
     1    20    21    3
     2    43    41    1
     3    21    17    1
     4    39    40    1
     5    39    34    1
     6    29    28    1
     7    18    16    1
     8    28    27    3
     9     6     1    1
    10    31    30    1
    11    17    16   ar
    12    17    14   ar
    13    16    13   ar
    14    32    30    1
    15    27    23    1
    16     5     1   ar
    17     5     4   ar
    18     1     2   ar
    19    23    22   ar
    20    23    24   ar
    21    34    33   ar
    22    34    35   ar
    23    14    22    1
    24    14    12   ar
    25    22    26   ar
    26    24    30    1
    27    24    25   ar
    28    13     4    1
    29    13    11   ar
    30     4     3   ar
    31     2     7    1
    32     2     3   ar
    33    26    25   ar
    34    25    33    1
    35    41    35    1
    36    41    42    1
    37    41    44    1
    38     3     8    1
    39    33    37   ar
    40    12    11   ar
    41    12    15    1
    42    11    19    1
    43    35    36   ar
    44     8     9    3
    45    37    36   ar
    46    36    38    1
    47     9    10    1
