@<TRIPOS>MOLECULE
mol_data/opt/cam/geoms/mol2/12ae12ae.out
 20 21 0 0 0
SMALL
GASTEIGER

@<TRIPOS>ATOM
      1 C           0.1987    1.7343   -0.0000 C.ar    1  LIG1        0.0939
      2 C           1.5488    1.7676   -0.0000 C.ar    1  LIG1       -0.0077
      3 C           1.9159    3.1567   -0.0000 C.ar    1  LIG1        0.0734
      4 C           0.7323    3.8539   -0.0001 C.ar    1  LIG1        0.1850
      5 O          -0.3115    2.9938   -0.0001 O.2     1  LIG1       -0.4586
      6 H          -0.5246    0.9352    0.0000 H       1  LIG1        0.1030
      7 H           2.2248    0.9269    0.0000 H       1  LIG1        0.0661
      8 C           3.2265    3.6999   -0.0000 C.1     1  LIG1       -0.0658
      9 C           4.3419    4.1546   -0.0000 C.1     1  LIG1       -0.1138
     10 H           5.3311    4.5511    0.0001 H       1  LIG1        0.1232
     11 C           0.4380    5.2639   -0.0001 C.ar    1  LIG1        0.1721
     12 C           1.2284    6.3715   -0.0001 C.ar    1  LIG1        0.0027
     13 C           0.3376    7.4958   -0.0002 C.ar    1  LIG1        0.0630
     14 C          -0.9214    6.9714   -0.0002 C.ar    1  LIG1        0.1081
     15 O          -0.8762    5.6239   -0.0002 O.2     1  LIG1       -0.4585
     16 H          -1.9007    7.4216   -0.0002 H       1  LIG1        0.1042
     17 H           2.3062    6.3921   -0.0001 H       1  LIG1        0.0669
     18 C           0.6840    8.8752   -0.0003 C.1     1  LIG1       -0.0665
     19 C           0.9832   10.0406   -0.0003 C.1     1  LIG1       -0.1138
     20 H           1.2466   11.0731    0.0002 H       1  LIG1        0.1232
@<TRIPOS>BOND
     1    18    19    3
     2    18    13    1
     3    19    20    1
     4    16    14    1
     5    13    14   ar
     6    13    12   ar
     7    14    15   ar
     8    15    11   ar
     9    12    17    1
    10    12    11   ar
    11    11     4    1
    12     4     5   ar
    13     4     3   ar
    14     5     1   ar
    15     3     8    1
    16     3     2   ar
    17     8     9    3
    18     9    10    1
    19     2     1   ar
    20     2     7    1
    21     1     6    1
