@<TRIPOS>MOLECULE
mol_data/opt/cam/geoms/mol2/12ae12ae12ae-12ae.out
 38 41 0 0 0
SMALL
GASTEIGER

@<TRIPOS>ATOM
      1 C           0.3387    1.6499   -0.0001 C.ar    1  LIG1        0.0939
      2 C           1.6877    1.7190   -0.0001 C.ar    1  LIG1       -0.0077
      3 C           2.0184    3.1166   -0.0001 C.ar    1  LIG1        0.0734
      4 C           0.8161    3.7827   -0.0001 C.ar    1  LIG1        0.1850
      5 O          -0.2050    2.8952   -0.0001 O.2     1  LIG1       -0.4586
      6 H          -0.3629    0.8317   -0.0001 H       1  LIG1        0.1030
      7 H           2.3855    0.8962   -0.0001 H       1  LIG1        0.0661
      8 C           3.3136    3.6947   -0.0001 C.1     1  LIG1       -0.0658
      9 C           4.4160    4.1802   -0.0000 C.1     1  LIG1       -0.1138
     10 H           5.3942    4.6032    0.0005 H       1  LIG1        0.1232
     11 C           0.4862    5.1821   -0.0001 C.ar    1  LIG1        0.1731
     12 C           1.2457    6.3114   -0.0001 C.ar    1  LIG1        0.0035
     13 C           0.3344    7.4146   -0.0001 C.ar    1  LIG1        0.0741
     14 C          -0.9243    6.8592   -0.0001 C.ar    1  LIG1        0.1860
     15 O          -0.8373    5.5080   -0.0001 O.2     1  LIG1       -0.4473
     16 H           2.3226    6.3605   -0.0001 H       1  LIG1        0.0669
     17 C           0.6802    8.7917   -0.0001 C.1     1  LIG1       -0.0657
     18 C           1.0086    9.9497   -0.0001 C.1     1  LIG1       -0.1138
     19 H           1.2993   10.9750    0.0002 H       1  LIG1        0.1232
     20 C          -2.2504    7.4043   -0.0002 C.ar    1  LIG1        0.1732
     21 C          -3.4830    6.8278   -0.0002 C.ar    1  LIG1        0.0035
     22 C          -4.4317    7.8994   -0.0002 C.ar    1  LIG1        0.0741
     23 C          -3.6880    9.0566   -0.0002 C.ar    1  LIG1        0.1860
     24 O          -2.3670    8.7595   -0.0002 O.2     1  LIG1       -0.4473
     25 H          -3.7006    5.7716   -0.0002 H       1  LIG1        0.0669
     26 C          -5.8460    7.7745   -0.0002 C.1     1  LIG1       -0.0657
     27 C          -7.0413    7.6367   -0.0003 C.1     1  LIG1       -0.1138
     28 H          -8.1009    7.5249   -0.0003 H       1  LIG1        0.1232
     29 C          -4.0037   10.4573   -0.0002 C.ar    1  LIG1        0.1721
     30 C          -3.2107   11.5631   -0.0002 C.ar    1  LIG1        0.0027
     31 C          -4.1003   12.6876   -0.0002 C.ar    1  LIG1        0.0630
     32 C          -5.3602   12.1634   -0.0002 C.ar    1  LIG1        0.1081
     33 O          -5.3158   10.8154   -0.0002 O.2     1  LIG1       -0.4585
     34 H          -6.3393   12.6138   -0.0002 H       1  LIG1        0.1042
     35 H          -2.1322   11.5782   -0.0002 H       1  LIG1        0.0669
     36 C          -3.7543   14.0671   -0.0002 C.1     1  LIG1       -0.0665
     37 C          -3.4554   15.2326   -0.0002 C.1     1  LIG1       -0.1138
     38 H          -3.1927   16.2653   -0.0008 H       1  LIG1        0.1232
@<TRIPOS>BOND
     1    38    37    1
     2    28    27    1
     3    27    26    3
     4    34    32    1
     5    37    36    3
     6    32    33   ar
     7    32    31   ar
     8    33    29   ar
     9    26    22    1
    10    31    36    1
    11    31    30   ar
    12    29    23    1
    13    29    30   ar
    14    22    23   ar
    15    22    21   ar
    16    23    24   ar
    17    30    35    1
    18    21    25    1
    19    21    20   ar
    20    24    20   ar
    21    20    14    1
    22    15    14   ar
    23    15    11   ar
    24     6     1    1
    25    14    13   ar
    26     5     1   ar
    27     5     4   ar
    28     1     2   ar
    29     8     3    1
    30     8     9    3
    31     3     4   ar
    32     3     2   ar
    33    11     4    1
    34    11    12   ar
    35    13    12   ar
    36    13    17    1
    37    12    16    1
    38    17    18    3
    39    18    19    1
    40     2     7    1
    41     9    10    1
