@<TRIPOS>MOLECULE
mol_data/opt/cam/geoms/mol2/12af12af-12af-12af-.out
 34 37 0 0 0
SMALL
GASTEIGER

@<TRIPOS>ATOM
      1 C          -0.0660    1.6786    0.0000 C.ar    1  LIG1        0.0964
      2 C           1.2895    1.6649   -0.0001 C.ar    1  LIG1        0.0185
      3 C           1.6893    3.0346   -0.0001 C.ar    1  LIG1        0.1657
      4 C           0.5365    3.7761   -0.0001 C.ar    1  LIG1        0.2109
      5 O          -0.5475    2.9427   -0.0001 O.2     1  LIG1       -0.4560
      6 H          -0.8059    0.8941    0.0001 H       1  LIG1        0.1031
      7 H           1.9400    0.8043   -0.0001 H       1  LIG1        0.0686
      8 O           2.9661    3.4547   -0.0000 O.3     1  LIG1       -0.5031
      9 H           2.9834    4.4240   -0.0000 H       1  LIG1        0.2923
     10 C           0.3420    5.1916   -0.0001 C.ar    1  LIG1        0.1780
     11 C          -0.7401    6.0232   -0.0001 C.ar    1  LIG1        0.0298
     12 C          -0.2077    7.3443   -0.0001 C.ar    1  LIG1        0.1665
     13 C           1.1553    7.2446   -0.0001 C.ar    1  LIG1        0.2119
     14 O           1.4938    5.9132   -0.0001 O.2     1  LIG1       -0.4447
     15 H          -1.7773    5.7240   -0.0001 H       1  LIG1        0.0693
     16 O          -0.8705    8.5262   -0.0001 O.3     1  LIG1       -0.5031
     17 H          -1.8194    8.3599   -0.0001 H       1  LIG1        0.2923
     18 C           2.2052    8.2158   -0.0001 C.ar    1  LIG1        0.1780
     19 C           2.1883    9.5836   -0.0002 C.ar    1  LIG1        0.0298
     20 C           3.5541    9.9771   -0.0002 C.ar    1  LIG1        0.1665
     21 C           4.3109    8.8380   -0.0001 C.ar    1  LIG1        0.2119
     22 O           3.4765    7.7524   -0.0001 O.2     1  LIG1       -0.4447
     23 H           1.3077   10.2081   -0.0002 H       1  LIG1        0.0693
     24 O           4.0781   11.2291   -0.0002 O.3     1  LIG1       -0.5031
     25 H           3.3607   11.8717   -0.0002 H       1  LIG1        0.2923
     26 C           5.7301    8.6283   -0.0001 C.ar    1  LIG1        0.1770
     27 C           6.7740    9.5094   -0.0002 C.ar    1  LIG1        0.0290
     28 C           7.9516    8.7025   -0.0001 C.ar    1  LIG1        0.1551
     29 C           7.5492    7.4057   -0.0001 C.ar    1  LIG1        0.1340
     30 O           6.1816    7.3547   -0.0001 O.2     1  LIG1       -0.4560
     31 H           8.0738    6.4664   -0.0001 H       1  LIG1        0.1068
     32 H           6.6966   10.5863   -0.0002 H       1  LIG1        0.0693
     33 O           9.2462    9.1151   -0.0001 O.3     1  LIG1       -0.5036
     34 H           9.2635   10.0778   -0.0002 H       1  LIG1        0.2923
@<TRIPOS>BOND
     1    32    27    1
     2    25    24    1
     3    34    33    1
     4    23    19    1
     5    24    20    1
     6    27    26   ar
     7    27    28   ar
     8    19    20   ar
     9    19    18   ar
    10    20    21   ar
    11     7     2    1
    12    33    28    1
    13    21    26    1
    14    21    22   ar
    15    26    30   ar
    16    28    29   ar
    17    18    22   ar
    18    18    13    1
    19    17    16    1
    20    16    12    1
    21    13    12   ar
    22    13    14   ar
    23    30    29   ar
    24    12    11   ar
    25    15    11    1
    26    11    10   ar
    27     2     3   ar
    28     2     1   ar
    29    14    10   ar
    30    29    31    1
    31    10     4    1
    32     5     4   ar
    33     5     1   ar
    34     4     3   ar
    35     3     8    1
    36     8     9    1
    37     1     6    1
