@<TRIPOS>MOLECULE
mol_data/opt/cam/geoms/mol2/12af12af-12af-12af.out
 34 37 0 0 0
SMALL
GASTEIGER

@<TRIPOS>ATOM
      1 C           0.0681    1.6880    0.0000 C.ar    1  LIG1        0.0964
      2 C           1.4237    1.7073   -0.0001 C.ar    1  LIG1        0.0185
      3 C           1.7890    3.0863   -0.0001 C.ar    1  LIG1        0.1657
      4 C           0.6189    3.7994   -0.0001 C.ar    1  LIG1        0.2109
      5 O          -0.4443    2.9400   -0.0001 O.2     1  LIG1       -0.4560
      6 H          -0.6524    0.8857    0.0001 H       1  LIG1        0.1031
      7 H           2.0948    0.8627   -0.0002 H       1  LIG1        0.0686
      8 O           3.0540    3.5430   -0.0001 O.3     1  LIG1       -0.5031
      9 H           3.0361    4.5121   -0.0000 H       1  LIG1        0.2923
     10 C           0.3926    5.2104   -0.0001 C.ar    1  LIG1        0.1780
     11 C          -0.7074    6.0176   -0.0001 C.ar    1  LIG1        0.0298
     12 C          -0.2048    7.3504   -0.0001 C.ar    1  LIG1        0.1665
     13 C           1.1600    7.2820   -0.0001 C.ar    1  LIG1        0.2119
     14 O           1.5286    5.9581   -0.0001 O.2     1  LIG1       -0.4447
     15 H          -1.7377    5.6952   -0.0001 H       1  LIG1        0.0693
     16 O          -0.8944    8.5166   -0.0001 O.3     1  LIG1       -0.5031
     17 H          -1.8393    8.3292   -0.0001 H       1  LIG1        0.2923
     18 C           2.1848    8.2801   -0.0001 C.ar    1  LIG1        0.1780
     19 C           2.1301    9.6452   -0.0002 C.ar    1  LIG1        0.0298
     20 C           3.4842   10.0845   -0.0002 C.ar    1  LIG1        0.1665
     21 C           4.2746    8.9673   -0.0002 C.ar    1  LIG1        0.2119
     22 O           3.4695    7.8552   -0.0001 O.2     1  LIG1       -0.4447
     23 H           1.2322   10.2449   -0.0002 H       1  LIG1        0.0693
     24 O           3.9460   11.3564   -0.0002 O.3     1  LIG1       -0.5031
     25 H           3.1949   11.9595   -0.0002 H       1  LIG1        0.2923
     26 C           5.6914    8.7396   -0.0002 C.ar    1  LIG1        0.1770
     27 C           6.4315    7.5935   -0.0001 C.ar    1  LIG1        0.0290
     28 C           7.7914    8.0201   -0.0001 C.ar    1  LIG1        0.1551
     29 C           7.7861    9.3792   -0.0002 C.ar    1  LIG1        0.1340
     30 O           6.4936    9.8290   -0.0002 O.2     1  LIG1       -0.4560
     31 H           8.5575   10.1313   -0.0002 H       1  LIG1        0.1068
     32 H           6.0684    6.5784   -0.0000 H       1  LIG1        0.0693
     33 O           8.8371    7.1543   -0.0000 O.3     1  LIG1       -0.5036
     34 H           9.6621    7.6526   -0.0001 H       1  LIG1        0.2923
@<TRIPOS>BOND
     1    30    29   ar
     2    30    26   ar
     3    31    29    1
     4    25    24    1
     5    24    20    1
     6    23    19    1
     7    29    28   ar
     8    20    19   ar
     9    20    21   ar
    10    19    18   ar
    11    21    26    1
    12    21    22   ar
    13     7     2    1
    14    26    27   ar
    15    18    22   ar
    16    18    13    1
    17    13    12   ar
    18    13    14   ar
    19    16    17    1
    20    16    12    1
    21    12    11   ar
    22     2     3   ar
    23     2     1   ar
    24    14    10   ar
    25    28    27   ar
    26    28    33    1
    27    11    15    1
    28    11    10   ar
    29    10     4    1
    30    27    32    1
    31     5     4   ar
    32     5     1   ar
    33     4     3   ar
    34    34    33    1
    35     3     8    1
    36     8     9    1
    37     1     6    1
