@<TRIPOS>MOLECULE
mol_data/opt/cam/geoms/mol2/12af12af12af12af.out
 34 37 0 0 0
SMALL
GASTEIGER

@<TRIPOS>ATOM
      1 C           0.7308    1.6533    0.0001 C.ar    1  LIG1        0.0964
      2 C           2.0763    1.8161   -0.0001 C.ar    1  LIG1        0.0185
      3 C           2.2892    3.2237   -0.0000 C.ar    1  LIG1        0.1657
      4 C           1.0531    3.8167   -0.0000 C.ar    1  LIG1        0.2109
      5 O           0.0940    2.8415   -0.0000 O.2     1  LIG1       -0.4560
      6 H           0.0971    0.7808    0.0002 H       1  LIG1        0.1031
      7 H           2.8367    1.0510   -0.0001 H       1  LIG1        0.0686
      8 O           3.5200    3.7832   -0.0001 O.3     1  LIG1       -0.5031
      9 H           3.4489    4.7437   -0.0001 H       1  LIG1        0.2923
     10 C           0.6240    5.1878   -0.0001 C.ar    1  LIG1        0.1780
     11 C           1.3057    6.3752   -0.0001 C.ar    1  LIG1        0.0298
     12 C           0.3159    7.3909   -0.0001 C.ar    1  LIG1        0.1665
     13 C          -0.9053    6.7685   -0.0001 C.ar    1  LIG1        0.2119
     14 O          -0.7072    5.4123   -0.0001 O.2     1  LIG1       -0.4447
     15 H           2.3704    6.5525   -0.0000 H       1  LIG1        0.0693
     16 O           0.6173    8.7081   -0.0001 O.3     1  LIG1       -0.5031
     17 H          -0.1900    9.2334   -0.0002 H       1  LIG1        0.2923
     18 C          -2.2536    7.2576   -0.0002 C.ar    1  LIG1        0.1780
     19 C          -2.7837    8.5206   -0.0001 C.ar    1  LIG1        0.0298
     20 C          -4.1921    8.3496   -0.0002 C.ar    1  LIG1        0.1665
     21 C          -4.4386    7.0027   -0.0003 C.ar    1  LIG1        0.2119
     22 O          -3.2410    6.3361   -0.0002 O.2     1  LIG1       -0.4447
     23 H          -2.2792    9.4749   -0.0001 H       1  LIG1        0.0693
     24 O          -5.0575    9.3886   -0.0002 O.3     1  LIG1       -0.5031
     25 H          -5.9639    9.0623   -0.0003 H       1  LIG1        0.2923
     26 C          -5.6482    6.2263   -0.0003 C.ar    1  LIG1        0.1770
     27 C          -6.9723    6.5695   -0.0003 C.ar    1  LIG1        0.0290
     28 C          -7.6908    5.3385   -0.0004 C.ar    1  LIG1        0.1551
     29 C          -6.7710    4.3402   -0.0004 C.ar    1  LIG1        0.1340
     30 O          -5.5142    4.8819   -0.0004 O.2     1  LIG1       -0.4560
     31 H          -6.8310    3.2647   -0.0005 H       1  LIG1        0.1068
     32 H          -7.4251    7.5495   -0.0002 H       1  LIG1        0.0693
     33 O          -9.0461    5.2813   -0.0004 O.3     1  LIG1       -0.5036
     34 H          -9.3278    4.3595   -0.0004 H       1  LIG1        0.2923
@<TRIPOS>BOND
     1    31    29    1
     2    34    33    1
     3    29    30   ar
     4    29    28   ar
     5    30    26   ar
     6    33    28    1
     7    28    27   ar
     8    26    27   ar
     9    26    21    1
    10    27    32    1
    11    25    24    1
    12    21    22   ar
    13    21    20   ar
    14    22    18   ar
    15    24    20    1
    16    20    19   ar
    17    17    16    1
    18    18    19   ar
    19    18    13    1
    20    19    23    1
    21    16    12    1
    22    13    12   ar
    23    13    14   ar
    24    12    11   ar
    25    14    10   ar
    26     7     2    1
    27     9     8    1
    28     8     3    1
    29    11    10   ar
    30    11    15    1
    31    10     4    1
    32     2     3   ar
    33     2     1   ar
    34     4     3   ar
    35     4     5   ar
    36     5     1   ar
    37     1     6    1
