@<TRIPOS>MOLECULE
mol_data/opt/cam/geoms/mol2/12af12af-12af.out
 26 28 0 0 0
SMALL
GASTEIGER

@<TRIPOS>ATOM
      1 C           0.2443    1.7383   -0.0000 C.ar    1  LIG1        0.0964
      2 C           1.5986    1.7984    0.0000 C.ar    1  LIG1        0.0185
      3 C           1.9207    3.1878   -0.0000 C.ar    1  LIG1        0.1657
      4 C           0.7315    3.8665   -0.0001 C.ar    1  LIG1        0.2109
      5 O          -0.3047    2.9746   -0.0000 O.2     1  LIG1       -0.4560
      6 H          -0.4523    0.9151   -0.0000 H       1  LIG1        0.1031
      7 H           2.2951    0.9745    0.0000 H       1  LIG1        0.0686
      8 O           3.1722    3.6856   -0.0001 O.3     1  LIG1       -0.5031
      9 H           3.1144    4.6521   -0.0001 H       1  LIG1        0.2923
     10 C           0.4501    5.2692   -0.0001 C.ar    1  LIG1        0.1780
     11 C          -0.6874    6.0178   -0.0001 C.ar    1  LIG1        0.0298
     12 C          -0.2595    7.3789   -0.0001 C.ar    1  LIG1        0.1665
     13 C           1.1073    7.3822   -0.0001 C.ar    1  LIG1        0.2119
     14 O           1.5468    6.0753   -0.0001 O.2     1  LIG1       -0.4447
     15 H          -1.6998    5.6426   -0.0001 H       1  LIG1        0.0693
     16 O          -1.0302    8.4891   -0.0002 O.3     1  LIG1       -0.5031
     17 H          -1.9573    8.2273   -0.0001 H       1  LIG1        0.2923
     18 C           2.1113    8.4073   -0.0001 C.ar    1  LIG1        0.1770
     19 C           3.4750    8.3571   -0.0001 C.ar    1  LIG1        0.0290
     20 C           3.9056    9.7161   -0.0001 C.ar    1  LIG1        0.1551
     21 C           2.7889   10.4905   -0.0002 C.ar    1  LIG1        0.1340
     22 O           1.6797    9.6890   -0.0002 O.2     1  LIG1       -0.4560
     23 H           2.6143   11.5536   -0.0003 H       1  LIG1        0.1068
     24 H           4.1051    7.4821    0.0000 H       1  LIG1        0.0693
     25 O           5.2145   10.0735   -0.0001 O.3     1  LIG1       -0.5036
     26 H           5.2829   11.0350   -0.0001 H       1  LIG1        0.2923
@<TRIPOS>BOND
     1    23    21    1
     2    22    21   ar
     3    22    18   ar
     4    21    20   ar
     5    16    17    1
     6    16    12    1
     7    18    13    1
     8    18    19   ar
     9    12    13   ar
    10    12    11   ar
    11    13    14   ar
    12    26    25    1
    13    20    25    1
    14    20    19   ar
    15    14    10   ar
    16    11    15    1
    17    11    10   ar
    18    10     4    1
    19     9     8    1
    20     4     5   ar
    21     4     3   ar
    22    19    24    1
    23     8     3    1
    24     5     1   ar
    25     3     2   ar
    26     6     1    1
    27     1     2   ar
    28     2     7    1
