@<TRIPOS>MOLECULE
mol_data/opt/cam/geoms/mol2/12af12af-12af12af-.out
 34 37 0 0 0
SMALL
GASTEIGER

@<TRIPOS>ATOM
      1 C           0.3058    1.6464   -0.0001 C.ar    1  LIG1        0.0964
      2 C           1.6588    1.7314   -0.0000 C.ar    1  LIG1        0.0185
      3 C           1.9553    3.1263   -0.0001 C.ar    1  LIG1        0.1657
      4 C           0.7534    3.7830   -0.0001 C.ar    1  LIG1        0.2109
      5 O          -0.2662    2.8719   -0.0000 O.2     1  LIG1       -0.4560
      6 H          -0.3751    0.8102   -0.0001 H       1  LIG1        0.1031
      7 H           2.3704    0.9206    0.0000 H       1  LIG1        0.0686
      8 O           3.1974    3.6457   -0.0001 O.3     1  LIG1       -0.5031
      9 H           3.1249    4.6110   -0.0001 H       1  LIG1        0.2923
     10 C           0.4437    5.1790   -0.0001 C.ar    1  LIG1        0.1780
     11 C          -0.7112    5.9019   -0.0001 C.ar    1  LIG1        0.0298
     12 C          -0.3149    7.2711   -0.0001 C.ar    1  LIG1        0.1665
     13 C           1.0529    7.3058   -0.0001 C.ar    1  LIG1        0.2119
     14 O           1.5218    6.0090   -0.0001 O.2     1  LIG1       -0.4447
     15 H          -1.7146    5.5032   -0.0000 H       1  LIG1        0.0693
     16 O          -1.1100    8.3635   -0.0001 O.3     1  LIG1       -0.5031
     17 H          -2.0309    8.0805   -0.0001 H       1  LIG1        0.2923
     18 C           2.0289    8.3526   -0.0001 C.ar    1  LIG1        0.1780
     19 C           3.3964    8.3367   -0.0001 C.ar    1  LIG1        0.0298
     20 C           3.7957    9.7000   -0.0001 C.ar    1  LIG1        0.1665
     21 C           2.6508   10.4520   -0.0002 C.ar    1  LIG1        0.2119
     22 O           1.5609    9.6240   -0.0002 O.2     1  LIG1       -0.4447
     23 H           4.0446    7.4751   -0.0000 H       1  LIG1        0.0693
     24 O           5.0736   10.1267   -0.0001 O.3     1  LIG1       -0.5031
     25 H           5.0674   11.0953   -0.0001 H       1  LIG1        0.2923
     26 C           2.4560   11.8687   -0.0002 C.ar    1  LIG1        0.1770
     27 C           1.3668   12.6859   -0.0002 C.ar    1  LIG1        0.0290
     28 C           1.8861   14.0195   -0.0003 C.ar    1  LIG1        0.1551
     29 C           3.2390   13.9324   -0.0003 C.ar    1  LIG1        0.1340
     30 O           3.6012   12.6043   -0.0002 O.2     1  LIG1       -0.4560
     31 H           4.0330   14.6577   -0.0003 H       1  LIG1        0.1068
     32 H           0.3336   12.3723   -0.0002 H       1  LIG1        0.0693
     33 O           1.1863   15.1815   -0.0003 O.3     1  LIG1       -0.5036
     34 H           0.2450   14.9790   -0.0003 H       1  LIG1        0.2923
@<TRIPOS>BOND
     1    34    33    1
     2    33    28    1
     3    31    29    1
     4    28    29   ar
     5    28    27   ar
     6    29    30   ar
     7    27    32    1
     8    27    26   ar
     9    30    26   ar
    10    26    21    1
    11    22    21   ar
    12    22    18   ar
    13    21    20   ar
    14     6     1    1
    15    25    24    1
    16     9     8    1
    17    18    13    1
    18    18    19   ar
    19    20    24    1
    20    20    19   ar
    21     1     5   ar
    22     1     2   ar
    23    14    13   ar
    24    14    10   ar
    25    13    12   ar
    26    12    16    1
    27    12    11   ar
    28    16    17    1
    29     8     3    1
    30    10     4    1
    31    10    11   ar
    32    19    23    1
    33     4     3   ar
    34     4     5   ar
    35     3     2   ar
    36    11    15    1
    37     2     7    1
