@<TRIPOS>MOLECULE
mol_data/opt/cam/geoms/mol2/12af12id-13fe4fd-.out
 44 47 0 0 0
SMALL
GASTEIGER

@<TRIPOS>ATOM
      1 C           0.6041    1.8413    1.1335 C.ar    1  LIG1        0.0964
      2 C           1.6303    1.7879    0.2498 C.ar    1  LIG1        0.0185
      3 C           1.7699    3.1171   -0.2470 C.ar    1  LIG1        0.1657
      4 C           0.8304    3.8841    0.3820 C.ar    1  LIG1        0.2110
      5 O           0.1036    3.0905    1.2347 O.2     1  LIG1       -0.4560
      6 H           0.1276    1.0916    1.7454 H       1  LIG1        0.1031
      7 H           2.2129    0.9261   -0.0359 H       1  LIG1        0.0686
      8 O           2.6785    3.4850   -1.1789 O.3     1  LIG1       -0.5031
      9 H           2.4781    4.3835   -1.4725 H       1  LIG1        0.2923
     10 C           0.5270    5.2890    0.2887 C.ar    1  LIG1        0.1784
     11 C           1.3103    6.3993    0.2430 C.ar    1  LIG1        0.0166
     12 C           0.4100    7.5134    0.0710 C.ar    1  LIG1        0.1026
     13 C          -0.8641    6.9953    0.0450 C.ar    1  LIG1        0.1731
     14 O          -0.7976    5.6486    0.1646 O.2     1  LIG1       -0.4484
     15 C           2.7935    6.4949    0.3909 C.3     1  LIG1       -0.0348
     16 H           3.0536    7.1783    1.2036 H       1  LIG1        0.0279
     17 H           3.2620    6.8923   -0.5150 H       1  LIG1        0.0279
     18 H           3.2320    5.5198    0.6088 H       1  LIG1        0.0279
     19 N           1.2857    9.9313   -0.0527 N.1     1  LIG1       -0.1907
     20 C           0.8404    8.8638   -0.0044 C.1     1  LIG1        0.1033
     21 C          -2.1925    7.5185   -0.0639 C.ar    1  LIG1        0.1271
     22 C          -2.6996    8.7893   -0.2539 C.ar    1  LIG1        0.1611
     23 C          -4.1188    8.7066   -0.2627 C.ar    1  LIG1        0.0921
     24 C          -4.4493    7.3650   -0.0783 C.ar    1  LIG1        0.0698
     25 N          -3.2859    6.6727    0.0239 N.ar    1  LIG1       -0.3477
     26 H          -3.2078    5.6936    0.2505 H       1  LIG1        0.1661
     27 O          -1.9636    9.8985   -0.4223 O.3     1  LIG1       -0.5034
     28 H          -2.5602   10.6509   -0.5441 H       1  LIG1        0.2923
     29 C          -4.9444    9.8318   -0.5116 C.1     1  LIG1       -0.0638
     30 C          -5.5505   10.8474   -0.7457 C.1     1  LIG1       -0.1137
     31 H          -6.1109   11.7292   -0.9551 H       1  LIG1        0.1232
     32 C          -6.8310    7.1574    0.6848 C.ar    1  LIG1        0.1260
     33 C          -8.0444    6.4711    0.6867 C.ar    1  LIG1       -0.0183
     34 C          -5.7395    6.6699   -0.0576 C.ar    1  LIG1        0.0422
     35 C          -8.1882    5.2922   -0.0225 C.ar    1  LIG1       -0.0409
     36 H          -8.8771    6.8612    1.2649 H       1  LIG1        0.0655
     37 C          -5.9009    5.4810   -0.7637 C.ar    1  LIG1       -0.0317
     38 C          -7.1103    4.7840   -0.7499 C.ar    1  LIG1        0.0526
     39 H          -5.0769    5.1014   -1.3578 H       1  LIG1        0.0638
     40 H          -9.1327    4.7609   -0.0142 H       1  LIG1        0.0631
     41 O          -6.6436    8.2835    1.4013 O.3     1  LIG1       -0.5061
     42 H          -7.4663    8.5465    1.8311 H       1  LIG1        0.2922
     43 N          -7.3547    2.5757   -2.0815 N.1     1  LIG1       -0.1909
     44 C          -7.2456    3.5633   -1.4887 C.1     1  LIG1        0.0992
@<TRIPOS>BOND
     1    43    44    3
     2    44    38    1
     3     9     8    1
     4    39    37    1
     5     8     3    1
     6    31    30    1
     7    37    38   ar
     8    37    34   ar
     9    38    35   ar
    10    30    29    3
    11    28    27    1
    12    17    15    1
    13    29    23    1
    14    27    22    1
    15    23    22   ar
    16    23    24   ar
    17    22    21   ar
    18     3     2   ar
    19     3     4   ar
    20    24    34    1
    21    24    25   ar
    22    21    25   ar
    23    21    13    1
    24    34    32   ar
    25    19    20    3
    26     7     2    1
    27    35    40    1
    28    35    33   ar
    29    20    12    1
    30    25    26    1
    31    13    12   ar
    32    13    14   ar
    33    12    11   ar
    34    14    10   ar
    35    11    10   ar
    36    11    15    1
    37     2     1   ar
    38    10     4    1
    39     4     5   ar
    40    15    18    1
    41    15    16    1
    42    32    33   ar
    43    32    41    1
    44    33    36    1
    45     1     5   ar
    46     1     6    1
    47    41    42    1
