@<TRIPOS>MOLECULE
mol_data/opt/cam/geoms/mol2/12af12af12af12af-.out
 34 37 0 0 0
SMALL
GASTEIGER

@<TRIPOS>ATOM
      1 C           0.7133    1.6545    0.0001 C.ar    1  LIG1        0.0964
      2 C           2.0595    1.8109    0.0001 C.ar    1  LIG1        0.0185
      3 C           2.2790    3.2181   -0.0001 C.ar    1  LIG1        0.1657
      4 C           1.0455    3.8165   -0.0000 C.ar    1  LIG1        0.2109
      5 O           0.0814    2.8459    0.0001 O.2     1  LIG1       -0.4560
      6 H           0.0768    0.7840    0.0001 H       1  LIG1        0.1031
      7 H           2.8166    1.0425    0.0002 H       1  LIG1        0.0686
      8 O           3.5123    3.7710   -0.0002 O.3     1  LIG1       -0.5031
      9 H           3.4464    4.7319   -0.0003 H       1  LIG1        0.2923
     10 C           0.6229    5.1900   -0.0001 C.ar    1  LIG1        0.1780
     11 C           1.3107    6.3737   -0.0001 C.ar    1  LIG1        0.0298
     12 C           0.3253    7.3950   -0.0002 C.ar    1  LIG1        0.1665
     13 C          -0.8987    6.7783   -0.0001 C.ar    1  LIG1        0.2119
     14 O          -0.7076    5.4206   -0.0001 O.2     1  LIG1       -0.4447
     15 H           2.3761    6.5462   -0.0001 H       1  LIG1        0.0693
     16 O           0.6340    8.7099   -0.0002 O.3     1  LIG1       -0.5031
     17 H          -0.1704    9.2400   -0.0003 H       1  LIG1        0.2923
     18 C          -2.2457    7.2713   -0.0001 C.ar    1  LIG1        0.1780
     19 C          -2.7740    8.5359   -0.0001 C.ar    1  LIG1        0.0298
     20 C          -4.1851    8.3680   -0.0001 C.ar    1  LIG1        0.1665
     21 C          -4.4252    7.0210   -0.0002 C.ar    1  LIG1        0.2119
     22 O          -3.2343    6.3465   -0.0002 O.2     1  LIG1       -0.4447
     23 H          -2.2638    9.4872    0.0000 H       1  LIG1        0.0693
     24 O          -5.0762    9.3779   -0.0001 O.3     1  LIG1       -0.5031
     25 H          -5.9657    8.9938   -0.0002 H       1  LIG1        0.2923
     26 C          -5.6525    6.2862   -0.0003 C.ar    1  LIG1        0.1770
     27 C          -5.9793    4.9648   -0.0004 C.ar    1  LIG1        0.0290
     28 C          -7.4100    4.9220   -0.0004 C.ar    1  LIG1        0.1551
     29 C          -7.8581    6.2016   -0.0004 C.ar    1  LIG1        0.1340
     30 O          -6.7767    7.0534   -0.0003 O.2     1  LIG1       -0.4560
     31 H          -8.8359    6.6493   -0.0004 H       1  LIG1        0.1068
     32 H          -5.2882    4.1352   -0.0004 H       1  LIG1        0.0693
     33 O          -8.2065    3.8248   -0.0005 O.3     1  LIG1       -0.5036
     34 H          -7.6535    3.0365   -0.0006 H       1  LIG1        0.2923
@<TRIPOS>BOND
     1    34    33    1
     2    33    28    1
     3    28    29   ar
     4    28    27   ar
     5    32    27    1
     6    31    29    1
     7    29    30   ar
     8    27    26   ar
     9    17    16    1
    10     9     8    1
    11    30    26   ar
    12    26    21    1
    13    22    21   ar
    14    22    18   ar
    15    16    12    1
    16    21    20   ar
    17     8     3    1
    18    12    13   ar
    19    12    11   ar
    20    25    24    1
    21    20    24    1
    22    20    19   ar
    23    18    13    1
    24    18    19   ar
    25    13    14   ar
    26    11    15    1
    27    11    10   ar
    28    19    23    1
    29    14    10   ar
    30    10     4    1
    31     3     4   ar
    32     3     2   ar
    33     4     5   ar
    34     1     2   ar
    35     1     6    1
    36     1     5   ar
    37     2     7    1
