@<TRIPOS>MOLECULE
mol_data/opt/cam/geoms/mol2/12af6ea13da4ff.out
 42 45 0 0 0
SMALL
GASTEIGER

@<TRIPOS>ATOM
      1 C           0.5242    1.6813   -0.8074 C.ar    1  LIG1        0.0962
      2 C           1.6349    1.6776   -0.0302 C.ar    1  LIG1        0.0184
      3 C           1.8187    3.0323    0.3689 C.ar    1  LIG1        0.1627
      4 C           0.8081    3.7653   -0.1951 C.ar    1  LIG1        0.1786
      5 O           0.0069    2.9210   -0.9162 O.2     1  LIG1       -0.4591
      6 H          -0.0033    0.9026   -1.3351 H       1  LIG1        0.1031
      7 H           2.2521    0.8354    0.2405 H       1  LIG1        0.0686
      8 O           2.8284    3.4427    1.1748 O.3     1  LIG1       -0.5032
      9 H           2.6184    4.3131    1.5355 H       1  LIG1        0.2923
     10 C          -0.7820    5.7345   -0.1384 C.ar    1  LIG1        0.1246
     11 C           0.5204    5.1897   -0.1583 C.ar    1  LIG1        0.0547
     12 C           1.5806    6.1042   -0.1204 C.ar    1  LIG1       -0.0462
     13 C           1.3457    7.4632   -0.0560 C.ar    1  LIG1       -0.0335
     14 C           0.0195    7.9032   -0.0525 C.ar    1  LIG1        0.0898
     15 N          -1.0091    7.0494   -0.0981 N.ar    1  LIG1       -0.2362
     16 H           2.6008    5.7372   -0.1759 H       1  LIG1        0.0626
     17 C          -1.9552    4.9055   -0.1334 C.1     1  LIG1       -0.0491
     18 C          -2.9571    4.2411   -0.1059 C.1     1  LIG1       -0.1124
     19 H          -3.8377    3.6411   -0.0890 H       1  LIG1        0.1232
     20 H           2.1672    8.1680   -0.0315 H       1  LIG1        0.0640
     21 C          -0.3625    9.3116   -0.0031 C.ar    1  LIG1        0.0830
     22 C           0.3439   10.5108    0.0508 C.ar    1  LIG1        0.0790
     23 C          -0.6027   11.5676    0.0519 C.ar    1  LIG1       -0.0182
     24 C          -1.8598   10.9994    0.0084 C.ar    1  LIG1        0.0518
     25 N          -1.6794    9.6385   -0.0221 N.ar    1  LIG1       -0.3518
     26 H          -2.3801    8.9169   -0.1164 H       1  LIG1        0.1660
     27 N           2.9094   10.7552    0.1385 N.1     1  LIG1       -0.1908
     28 C           1.7559   10.6542    0.0983 C.1     1  LIG1        0.1013
     29 H          -0.3867   12.6214    0.0868 H       1  LIG1        0.0652
     30 C          -3.4257   12.9149   -0.3677 C.ar    1  LIG1        0.1262
     31 C          -4.7182   13.4299   -0.3692 C.ar    1  LIG1       -0.0161
     32 C          -3.2001   11.5873    0.0222 C.ar    1  LIG1        0.0432
     33 C          -5.8009   12.6556    0.0134 C.ar    1  LIG1       -0.0167
     34 H          -4.8780   14.4594   -0.6794 H       1  LIG1        0.0655
     35 C          -4.3041   10.8224    0.4199 C.ar    1  LIG1       -0.0076
     36 C          -5.5913   11.3406    0.4151 C.ar    1  LIG1        0.1177
     37 H          -4.1500    9.8060    0.7721 H       1  LIG1        0.0662
     38 H          -6.8075   13.0563    0.0144 H       1  LIG1        0.0655
     39 O          -2.3533   13.6716   -0.7423 O.3     1  LIG1       -0.5061
     40 H          -2.6610   14.5405   -1.0244 H       1  LIG1        0.2922
     41 O          -6.6808   10.6173    0.8007 O.3     1  LIG1       -0.5067
     42 H          -6.4052    9.7302    1.0579 H       1  LIG1        0.2921
@<TRIPOS>BOND
     1     6     1    1
     2    40    39    1
     3     5     1   ar
     4     5     4   ar
     5     1     2   ar
     6    39    30    1
     7    34    31    1
     8    31    30   ar
     9    31    33   ar
    10    30    32   ar
    11     4    11    1
    12     4     3   ar
    13    16    12    1
    14    11    10   ar
    15    11    12   ar
    16    10    17    1
    17    10    15   ar
    18    17    18    3
    19    12    13   ar
    20    26    25    1
    21    18    19    1
    22    15    14   ar
    23    13    14   ar
    24    13    20    1
    25    14    21    1
    26     2     7    1
    27     2     3   ar
    28    25    21   ar
    29    25    24   ar
    30    21    22   ar
    31    24    32    1
    32    24    23   ar
    33    33    38    1
    34    33    36   ar
    35    32    35   ar
    36    22    23   ar
    37    22    28    1
    38    23    29    1
    39    28    27    3
    40     3     8    1
    41    36    35   ar
    42    36    41    1
    43    35    37    1
    44    41    42    1
    45     8     9    1
