@<TRIPOS>MOLECULE
mol_data/opt/cam/geoms/mol2/12af12af.out
 18 19 0 0 0
SMALL
GASTEIGER

@<TRIPOS>ATOM
      1 C           0.2304    1.7604   -0.0000 C.ar    1  LIG1        0.0964
      2 C           1.5844    1.8069   -0.0000 C.ar    1  LIG1        0.0185
      3 C           1.9180    3.1919   -0.0000 C.ar    1  LIG1        0.1657
      4 C           0.7396    3.8890   -0.0001 C.ar    1  LIG1        0.2108
      5 O          -0.3011    3.0009   -0.0001 O.2     1  LIG1       -0.4560
      6 H          -0.4765    0.9461    0.0000 H       1  LIG1        0.1031
      7 H           2.2761    0.9791   -0.0000 H       1  LIG1        0.0686
      8 O           3.1935    3.6443    0.0000 O.3     1  LIG1       -0.5031
      9 H           3.2016    4.6074   -0.0000 H       1  LIG1        0.2923
     10 C           0.4305    5.2957   -0.0001 C.ar    1  LIG1        0.1769
     11 C           1.2098    6.4183   -0.0000 C.ar    1  LIG1        0.0290
     12 C           0.3036    7.5192   -0.0001 C.ar    1  LIG1        0.1551
     13 C          -0.9511    7.0018   -0.0002 C.ar    1  LIG1        0.1340
     14 O          -0.8777    5.6350   -0.0002 O.2     1  LIG1       -0.4560
     15 H          -1.9393    7.4304   -0.0003 H       1  LIG1        0.1068
     16 H           2.2860    6.5032    0.0001 H       1  LIG1        0.0693
     17 O           0.7196    8.8102   -0.0001 O.3     1  LIG1       -0.5036
     18 H          -0.0473    9.3942   -0.0002 H       1  LIG1        0.2923
@<TRIPOS>BOND
     1    15    13    1
     2    13    14   ar
     3    13    12   ar
     4    14    10   ar
     5    18    17    1
     6    12    17    1
     7    12    11   ar
     8     5     4   ar
     9     5     1   ar
    10    10     4    1
    11    10    11   ar
    12     4     3   ar
    13    11    16    1
    14     2     7    1
    15     2     3   ar
    16     2     1   ar
    17     3     8    1
    18     9     8    1
    19     1     6    1
