@<TRIPOS>MOLECULE
mol_data/opt/cam/geoms/mol2/12af12af-12af12af.out
 34 37 0 0 0
SMALL
GASTEIGER

@<TRIPOS>ATOM
      1 C           0.3268    1.6437   -0.0002 C.ar    1  LIG1        0.0964
      2 C           1.6792    1.7381    0.0000 C.ar    1  LIG1        0.0185
      3 C           1.9659    3.1351   -0.0001 C.ar    1  LIG1        0.1657
      4 C           0.7595    3.7835   -0.0001 C.ar    1  LIG1        0.2109
      5 O          -0.2536    2.8653   -0.0001 O.2     1  LIG1       -0.4560
      6 H          -0.3484    0.8029   -0.0002 H       1  LIG1        0.1031
      7 H           2.3963    0.9322    0.0001 H       1  LIG1        0.0686
      8 O           3.2042    3.6639   -0.0001 O.3     1  LIG1       -0.5031
      9 H           3.1233    4.6286   -0.0001 H       1  LIG1        0.2923
     10 C           0.4410    5.1776   -0.0001 C.ar    1  LIG1        0.1780
     11 C          -0.7181    5.8935   -0.0001 C.ar    1  LIG1        0.0298
     12 C          -0.3302    7.2655   -0.0001 C.ar    1  LIG1        0.1665
     13 C           1.0374    7.3081   -0.0001 C.ar    1  LIG1        0.2119
     14 O           1.5143    6.0137   -0.0001 O.2     1  LIG1       -0.4447
     15 H          -1.7191    5.4891   -0.0001 H       1  LIG1        0.0693
     16 O          -1.1296    8.3526   -0.0001 O.3     1  LIG1       -0.5031
     17 H          -2.0501    8.0681   -0.0001 H       1  LIG1        0.2923
     18 C           2.0097    8.3587   -0.0001 C.ar    1  LIG1        0.1780
     19 C           3.3764    8.3429   -0.0000 C.ar    1  LIG1        0.0298
     20 C           3.7730    9.7052   -0.0001 C.ar    1  LIG1        0.1665
     21 C           2.6311   10.4638   -0.0001 C.ar    1  LIG1        0.2119
     22 O           1.5449    9.6279   -0.0002 O.2     1  LIG1       -0.4447
     23 H           4.0286    7.4844    0.0000 H       1  LIG1        0.0693
     24 O           5.0678   10.0958   -0.0000 O.3     1  LIG1       -0.5031
     25 H           5.1210   11.0575   -0.0000 H       1  LIG1        0.2923
     26 C           2.3960   11.8819   -0.0002 C.ar    1  LIG1        0.1770
     27 C           3.2356   12.9622   -0.0002 C.ar    1  LIG1        0.0290
     28 C           2.3892   14.1094   -0.0003 C.ar    1  LIG1        0.1551
     29 C           1.1081   13.6599   -0.0003 C.ar    1  LIG1        0.1340
     30 O           1.1083   12.2912   -0.0002 O.2     1  LIG1       -0.4560
     31 H           0.1444   14.1412   -0.0003 H       1  LIG1        0.1068
     32 H           4.3149   12.9903   -0.0003 H       1  LIG1        0.0693
     33 O           2.8731   15.3767   -0.0003 O.3     1  LIG1       -0.5036
     34 H           2.1376   15.9996   -0.0004 H       1  LIG1        0.2923
@<TRIPOS>BOND
     1    34    33    1
     2    33    28    1
     3    31    29    1
     4    28    29   ar
     5    28    27   ar
     6    29    30   ar
     7    32    27    1
     8    27    26   ar
     9     6     1    1
    10    26    30   ar
    11    26    21    1
    12     1     5   ar
    13     1     2   ar
    14    22    21   ar
    15    22    18   ar
    16    21    20   ar
    17     9     8    1
    18    16    12    1
    19    16    17    1
    20    13    12   ar
    21    13    14   ar
    22    13    18    1
    23    12    11   ar
    24    14    10   ar
    25    18    19   ar
    26    10     4    1
    27    10    11   ar
    28     4     3   ar
    29     4     5   ar
    30    11    15    1
    31    20    19   ar
    32    20    24    1
    33     3     8    1
    34     3     2   ar
    35    19    23    1
    36    24    25    1
    37     2     7    1
