@<TRIPOS>MOLECULE
mol_data/opt/cam/geoms/mol2/12af12ad-13ld-12ad-.out
 39 42 0 0 0
SMALL
GASTEIGER

@<TRIPOS>ATOM
      1 C           0.4894    1.3353    0.5139 C.ar    1  LIG1        0.0964
      2 C           1.7062    1.3647   -0.0827 C.ar    1  LIG1        0.0185
      3 C           1.9865    2.7446   -0.3048 C.ar    1  LIG1        0.1657
      4 C           0.9222    3.4507    0.1834 C.ar    1  LIG1        0.2108
      5 O          -0.0082    2.5795    0.6845 O.2     1  LIG1       -0.4560
      6 H          -0.1344    0.5274    0.8621 H       1  LIG1        0.1031
      7 H           2.3332    0.5277   -0.3469 H       1  LIG1        0.0686
      8 O           3.1042    3.2062   -0.9047 O.3     1  LIG1       -0.5031
      9 H           2.9816    4.1379   -1.1324 H       1  LIG1        0.2923
     10 C           0.6799    4.8648    0.2399 C.ar    1  LIG1        0.1756
     11 C           1.5124    5.9330    0.3415 C.ar    1  LIG1        0.0055
     12 C           0.6918    7.1084    0.2534 C.ar    1  LIG1        0.0997
     13 C          -0.6037    6.6641    0.1183 C.ar    1  LIG1        0.1728
     14 O          -0.6092    5.3053    0.0980 O.2     1  LIG1       -0.4487
     15 H           2.5768    5.9141    0.5210 H       1  LIG1        0.0670
     16 N           1.6636    9.4865    0.4504 N.1     1  LIG1       -0.1907
     17 C           1.1860    8.4370    0.3533 C.1     1  LIG1        0.1030
     18 C          -1.9024    7.2602    0.0171 C.ar    1  LIG1        0.1274
     19 C          -2.3102    8.5797   -0.1028 C.ar    1  LIG1        0.1663
     20 C          -3.7350    8.5833   -0.1576 C.ar    1  LIG1        0.1222
     21 C          -4.1457    7.2480   -0.0756 C.ar    1  LIG1        0.1039
     22 N          -3.0407    6.4801    0.0220 N.ar    1  LIG1       -0.3453
     23 H          -3.0399    5.4740    0.0987 H       1  LIG1        0.1662
     24 O          -1.4230    9.5734   -0.1757 O.3     1  LIG1       -0.4916
     25 C          -1.8563   10.9212   -0.0354 C.3     1  LIG1        0.0789
     26 H          -0.9435   11.5128    0.0085 H       1  LIG1        0.0660
     27 H          -2.4615   11.2327   -0.8906 H       1  LIG1        0.0660
     28 H          -2.4280   11.0556    0.8873 H       1  LIG1        0.0660
     29 N          -5.4044   10.5283   -0.4034 N.1     1  LIG1       -0.1907
     30 C          -4.6299    9.6739   -0.2924 C.1     1  LIG1        0.1051
     31 C          -5.4669    6.6754   -0.0843 C.ar    1  LIG1        0.1535
     32 C          -6.7242    7.1848   -0.1724 C.ar    1  LIG1        0.0031
     33 C          -7.6037    6.0537   -0.1220 C.ar    1  LIG1        0.0900
     34 C          -6.8146    4.9497   -0.0080 C.ar    1  LIG1        0.1100
     35 O          -5.5176    5.3109    0.0162 O.2     1  LIG1       -0.4601
     36 H          -7.0314    3.8961    0.0626 H       1  LIG1        0.1043
     37 H          -7.0016    8.2234   -0.2622 H       1  LIG1        0.0669
     38 N         -10.1816    6.0613   -0.2241 N.1     1  LIG1       -0.1908
     39 C          -9.0263    6.0590   -0.1785 C.1     1  LIG1        0.1023
@<TRIPOS>BOND
     1     9     8    1
     2     8     3    1
     3    27    25    1
     4    29    30    3
     5     7     2    1
     6     3     2   ar
     7     3     4   ar
     8    30    20    1
     9    37    32    1
    10    38    39    3
    11    39    33    1
    12    24    19    1
    13    24    25    1
    14    32    33   ar
    15    32    31   ar
    16    20    19   ar
    17    20    21   ar
    18    33    34   ar
    19    19    18   ar
    20    31    21    1
    21    31    35   ar
    22     2     1   ar
    23    21    22   ar
    24    25    26    1
    25    25    28    1
    26    34    35   ar
    27    34    36    1
    28    18    22   ar
    29    18    13    1
    30    22    23    1
    31    14    13   ar
    32    14    10   ar
    33    13    12   ar
    34     4    10    1
    35     4     5   ar
    36    10    11   ar
    37    12    11   ar
    38    12    17    1
    39    11    15    1
    40    17    16    3
    41     1     5   ar
    42     1     6    1
