@<TRIPOS>MOLECULE
mol_data/opt/cam/geoms/mol2/12af12af12af-12af-.out
 34 37 0 0 0
SMALL
GASTEIGER

@<TRIPOS>ATOM
      1 C           0.4702    1.6046    0.0001 C.ar    1  LIG1        0.0964
      2 C           1.8203    1.7212   -0.0001 C.ar    1  LIG1        0.0185
      3 C           2.0818    3.1215   -0.0001 C.ar    1  LIG1        0.1657
      4 C           0.8667    3.7564   -0.0001 C.ar    1  LIG1        0.2109
      5 O          -0.1262    2.8146    0.0000 O.2     1  LIG1       -0.4560
      6 H          -0.1919    0.7534    0.0003 H       1  LIG1        0.1031
      7 H           2.5543    0.9308   -0.0002 H       1  LIG1        0.0686
      8 O           3.3309    3.6371   -0.0002 O.3     1  LIG1       -0.5031
      9 H           3.2943    4.5996   -0.0003 H       1  LIG1        0.2923
     10 C           0.4840    5.1414   -0.0001 C.ar    1  LIG1        0.1780
     11 C           1.2052    6.3059   -0.0000 C.ar    1  LIG1        0.0298
     12 C           0.2501    7.3582   -0.0001 C.ar    1  LIG1        0.1665
     13 C          -0.9865    6.7681   -0.0001 C.ar    1  LIG1        0.2119
     14 O          -0.8435    5.4067   -0.0001 O.2     1  LIG1       -0.4447
     15 H           2.2758    6.4432    0.0001 H       1  LIG1        0.0693
     16 O           0.5583    8.6666   -0.0000 O.3     1  LIG1       -0.5031
     17 H          -0.2640    9.1806   -0.0001 H       1  LIG1        0.2923
     18 C          -2.2904    7.3471   -0.0002 C.ar    1  LIG1        0.1780
     19 C          -3.5683    6.8684   -0.0002 C.ar    1  LIG1        0.0298
     20 C          -4.4078    8.0198   -0.0003 C.ar    1  LIG1        0.1665
     21 C          -3.6037    9.1237   -0.0002 C.ar    1  LIG1        0.2119
     22 O          -2.2939    8.7079   -0.0002 O.2     1  LIG1       -0.4447
     23 H          -3.8624    5.8296   -0.0002 H       1  LIG1        0.0693
     24 O          -5.7621    8.0804   -0.0003 O.3     1  LIG1       -0.5031
     25 H          -6.1211    7.1865   -0.0003 H       1  LIG1        0.2923
     26 C          -3.8754   10.5312   -0.0002 C.ar    1  LIG1        0.1770
     27 C          -5.0463   11.2333   -0.0003 C.ar    1  LIG1        0.0290
     28 C          -4.6634   12.6093   -0.0003 C.ar    1  LIG1        0.1551
     29 C          -3.3064   12.6492   -0.0002 C.ar    1  LIG1        0.1340
     30 O          -2.8149   11.3705   -0.0002 O.2     1  LIG1       -0.4560
     31 H          -2.5878   13.4499   -0.0002 H       1  LIG1        0.1068
     32 H          -6.0402   10.8116   -0.0004 H       1  LIG1        0.0693
     33 O          -5.4722   13.6999   -0.0003 O.3     1  LIG1       -0.5036
     34 H          -6.3892   13.4067   -0.0004 H       1  LIG1        0.2923
@<TRIPOS>BOND
     1    34    33    1
     2    32    27    1
     3    33    28    1
     4    25    24    1
     5    24    20    1
     6    27    28   ar
     7    27    26   ar
     8     9     8    1
     9    28    29   ar
    10    20    21   ar
    11    20    19   ar
    12    26    21    1
    13    26    30   ar
    14    21    22   ar
    15    23    19    1
    16     8     3    1
    17    19    18   ar
    18    29    30   ar
    19    29    31    1
    20     7     2    1
    21    22    18   ar
    22    18    13    1
    23    13    14   ar
    24    13    12   ar
    25    14    10   ar
    26     2     3   ar
    27     2     1   ar
    28     3     4   ar
    29    17    16    1
    30    12    16    1
    31    12    11   ar
    32    10     4    1
    33    10    11   ar
    34     4     5   ar
    35    11    15    1
    36     5     1   ar
    37     1     6    1
