@<TRIPOS>MOLECULE
mol_data/opt/cam/geoms/mol2/12af12af12af-12af.out
 34 37 0 0 0
SMALL
GASTEIGER

@<TRIPOS>ATOM
      1 C           0.4870    1.6414   -0.0001 C.ar    1  LIG1        0.0964
      2 C           1.8361    1.7695    0.0001 C.ar    1  LIG1        0.0185
      3 C           2.0856    3.1719   -0.0001 C.ar    1  LIG1        0.1657
      4 C           0.8651    3.7964   -0.0000 C.ar    1  LIG1        0.2109
      5 O          -0.1197    2.8462    0.0000 O.2     1  LIG1       -0.4560
      6 H          -0.1679    0.7846   -0.0001 H       1  LIG1        0.1031
      7 H           2.5768    0.9853    0.0001 H       1  LIG1        0.0686
      8 O           3.3303    3.6981   -0.0002 O.3     1  LIG1       -0.5031
      9 H           3.2857    4.6602   -0.0003 H       1  LIG1        0.2923
     10 C           0.4702    5.1779   -0.0001 C.ar    1  LIG1        0.1780
     11 C           1.1805    6.3491   -0.0000 C.ar    1  LIG1        0.0298
     12 C           0.2146    7.3910   -0.0001 C.ar    1  LIG1        0.1665
     13 C          -1.0165    6.7914   -0.0001 C.ar    1  LIG1        0.2119
     14 O          -0.8595    5.4313   -0.0001 O.2     1  LIG1       -0.4447
     15 H           2.2497    6.4969    0.0000 H       1  LIG1        0.0693
     16 O           0.5081    8.7043   -0.0001 O.3     1  LIG1       -0.5031
     17 H          -0.3235    9.2006   -0.0001 H       1  LIG1        0.2923
     18 C          -2.3319    7.3459   -0.0002 C.ar    1  LIG1        0.1780
     19 C          -3.5914    6.8262   -0.0002 C.ar    1  LIG1        0.0298
     20 C          -4.4752    7.9455   -0.0003 C.ar    1  LIG1        0.1665
     21 C          -3.7096    9.0781   -0.0002 C.ar    1  LIG1        0.2119
     22 O          -2.3812    8.7068   -0.0002 O.2     1  LIG1       -0.4447
     23 H          -3.8499    5.7779   -0.0002 H       1  LIG1        0.0693
     24 O          -5.8266    7.9327   -0.0003 O.3     1  LIG1       -0.5031
     25 H          -6.1312    7.0188   -0.0003 H       1  LIG1        0.2923
     26 C          -3.9928   10.4844   -0.0003 C.ar    1  LIG1        0.1770
     27 C          -3.1845   11.5840   -0.0002 C.ar    1  LIG1        0.0290
     28 C          -4.0661   12.7042   -0.0002 C.ar    1  LIG1        0.1551
     29 C          -5.3344   12.2164   -0.0004 C.ar    1  LIG1        0.1340
     30 O          -5.2953   10.8484   -0.0004 O.2     1  LIG1       -0.4560
     31 H          -6.3116   12.6698   -0.0005 H       1  LIG1        0.1068
     32 H          -2.1066   11.6132   -0.0000 H       1  LIG1        0.0693
     33 O          -3.6257   13.9877   -0.0002 O.3     1  LIG1       -0.5036
     34 H          -4.3825   14.5846   -0.0003 H       1  LIG1        0.2923
@<TRIPOS>BOND
     1    31    29    1
     2    29    30   ar
     3    29    28   ar
     4    30    26   ar
     5    24    25    1
     6    24    20    1
     7     9     8    1
     8    34    33    1
     9    20    21   ar
    10    20    19   ar
    11    26    21    1
    12    26    27   ar
    13    21    22   ar
    14    28    33    1
    15    28    27   ar
    16    19    23    1
    17    19    18   ar
    18    22    18   ar
    19    18    13    1
    20    27    32    1
    21     8     3    1
    22    13    14   ar
    23    13    12   ar
    24    17    16    1
    25    14    10   ar
    26    12    16    1
    27    12    11   ar
    28     3     4   ar
    29     3     2   ar
    30     6     1    1
    31    10     4    1
    32    10    11   ar
    33     1     5   ar
    34     1     2   ar
    35     4     5   ar
    36    11    15    1
    37     2     7    1
