@<TRIPOS>MOLECULE
mol_data/opt/cam/geoms/mol2/12af12af12af.out
 26 28 0 0 0
SMALL
GASTEIGER

@<TRIPOS>ATOM
      1 C           0.4139    1.6592    0.0000 C.ar    1  LIG1        0.0964
      2 C           1.7651    1.7629   -0.0000 C.ar    1  LIG1        0.0185
      3 C           2.0395    3.1601   -0.0000 C.ar    1  LIG1        0.1657
      4 C           0.8311    3.8068   -0.0001 C.ar    1  LIG1        0.2109
      5 O          -0.1702    2.8747   -0.0001 O.2     1  LIG1       -0.4560
      6 H          -0.2574    0.8153    0.0000 H       1  LIG1        0.1031
      7 H           2.4913    0.9653   -0.0000 H       1  LIG1        0.0686
      8 O           3.2940    3.6655   -0.0000 O.3     1  LIG1       -0.5031
      9 H           3.2639    4.6281   -0.0001 H       1  LIG1        0.2923
     10 C           0.4632    5.1962   -0.0001 C.ar    1  LIG1        0.1780
     11 C           1.1960    6.3519   -0.0000 C.ar    1  LIG1        0.0298
     12 C           0.2508    7.4108   -0.0001 C.ar    1  LIG1        0.1665
     13 C          -0.9950    6.8433   -0.0001 C.ar    1  LIG1        0.2119
     14 O          -0.8574    5.4796   -0.0001 O.2     1  LIG1       -0.4447
     15 H           2.2675    6.4826    0.0000 H       1  LIG1        0.0693
     16 O           0.6097    8.7145   -0.0001 O.3     1  LIG1       -0.5031
     17 H          -0.1752    9.2728   -0.0001 H       1  LIG1        0.2923
     18 C          -2.3240    7.3915   -0.0002 C.ar    1  LIG1        0.1770
     19 C          -2.7998    8.6737   -0.0002 C.ar    1  LIG1        0.0290
     20 C          -4.2206    8.5591   -0.0003 C.ar    1  LIG1        0.1551
     21 C          -4.5135    7.2337   -0.0003 C.ar    1  LIG1        0.1340
     22 O          -3.3502    6.5125   -0.0003 O.2     1  LIG1       -0.4560
     23 H          -5.4301    6.6678   -0.0004 H       1  LIG1        0.1068
     24 H          -2.2547    9.6055   -0.0001 H       1  LIG1        0.0693
     25 O          -5.0425    9.6382   -0.0003 O.3     1  LIG1       -0.5036
     26 H          -5.9599    9.3424   -0.0003 H       1  LIG1        0.2923
@<TRIPOS>BOND
     1    23    21    1
     2    21    22   ar
     3    21    20   ar
     4    26    25    1
     5    22    18   ar
     6    25    20    1
     7    20    19   ar
     8    18    19   ar
     9    18    13    1
    10    19    24    1
    11    17    16    1
    12    13    14   ar
    13    13    12   ar
    14    14    10   ar
    15    12    16    1
    16    12    11   ar
    17    10     4    1
    18    10    11   ar
    19     9     8    1
    20     4     5   ar
    21     4     3   ar
    22     5     1   ar
    23     8     3    1
    24     7     2    1
    25     2     3   ar
    26     2     1   ar
    27    11    15    1
    28     1     6    1
