@<TRIPOS>MOLECULE
mol_data/opt/cam/geoms/mol2/12af12af-.out
 18 19 0 0 0
SMALL
GASTEIGER

@<TRIPOS>ATOM
      1 C           0.2245    1.7570    0.0000 C.ar    1  LIG1        0.0964
      2 C           1.5791    1.7995   -0.0001 C.ar    1  LIG1        0.0185
      3 C           1.9195    3.1846   -0.0000 C.ar    1  LIG1        0.1657
      4 C           0.7408    3.8788   -0.0001 C.ar    1  LIG1        0.2108
      5 O          -0.3074    3.0013   -0.0001 O.2     1  LIG1       -0.4560
      6 H          -0.4838    0.9439    0.0001 H       1  LIG1        0.1031
      7 H           2.2642    0.9662   -0.0001 H       1  LIG1        0.0686
      8 O           3.1782    3.6675    0.0000 O.3     1  LIG1       -0.5031
      9 H           3.1302    4.6349    0.0000 H       1  LIG1        0.2923
     10 C           0.4816    5.2885   -0.0001 C.ar    1  LIG1        0.1769
     11 C          -0.6400    6.0587   -0.0001 C.ar    1  LIG1        0.0290
     12 C          -0.1791    7.4137   -0.0001 C.ar    1  LIG1        0.1551
     13 C           1.1757    7.3842   -0.0001 C.ar    1  LIG1        0.1340
     14 O           1.5933    6.0730   -0.0001 O.2     1  LIG1       -0.4560
     15 H           1.9384    8.1425   -0.0001 H       1  LIG1        0.1068
     16 H          -1.6597    5.7036   -0.0001 H       1  LIG1        0.0693
     17 O          -0.9272    8.5451   -0.0002 O.3     1  LIG1       -0.5036
     18 H          -1.8598    8.3050   -0.0002 H       1  LIG1        0.2923
@<TRIPOS>BOND
     1    18    17    1
     2    17    12    1
     3    12    13   ar
     4    12    11   ar
     5    15    13    1
     6    16    11    1
     7    13    14   ar
     8    11    10   ar
     9    14    10   ar
    10    10     4    1
    11     5     4   ar
    12     5     1   ar
    13     4     3   ar
    14     7     2    1
    15     2     3   ar
    16     2     1   ar
    17     3     8    1
    18     8     9    1
    19     1     6    1
