@<TRIPOS>MOLECULE
mol_data/opt/cam/geoms/mol2/12ag12ag12ag-12ag-.out
 34 37 0 0 0
SMALL
GASTEIGER

@<TRIPOS>ATOM
      1 C           0.5509    1.7517    0.0631 C.ar    1  LIG1        0.0938
      2 C           1.8966    1.8688    0.1159 C.ar    1  LIG1       -0.0099
      3 C           2.1747    3.2729    0.1090 C.ar    1  LIG1        0.0537
      4 C           0.9574    3.9018    0.0615 C.ar    1  LIG1        0.1828
      5 O          -0.0323    2.9775    0.0320 O.2     1  LIG1       -0.4587
      6 H          -0.1241    0.9114    0.0444 H       1  LIG1        0.1030
      7 H           2.6233    1.0722    0.1580 H       1  LIG1        0.0660
      8 S           3.7659    4.0327    0.2305 S.3     1  LIG1       -0.1389
      9 H           4.0955    3.9782   -1.0741 H       1  LIG1        0.1072
     10 C           0.5489    5.2854    0.0363 C.ar    1  LIG1        0.1729
     11 C           1.2233    6.4684    0.0752 C.ar    1  LIG1        0.0012
     12 C           0.2359    7.4943    0.0200 C.ar    1  LIG1        0.0544
     13 C          -0.9778    6.8585   -0.0595 C.ar    1  LIG1        0.1838
     14 O          -0.7908    5.5177   -0.0518 O.2     1  LIG1       -0.4475
     15 H           2.2914    6.5991    0.1389 H       1  LIG1        0.0668
     16 S           0.5262    9.2371   -0.0247 S.3     1  LIG1       -0.1389
     17 H           0.8309    9.3981    1.2765 H       1  LIG1        0.1072
     18 C          -2.3403    7.3187   -0.1490 C.ar    1  LIG1        0.1729
     19 C          -2.9144    8.5500   -0.2564 C.ar    1  LIG1        0.0012
     20 C          -4.3222    8.3336   -0.2885 C.ar    1  LIG1        0.0544
     21 C          -4.5068    6.9759   -0.2102 C.ar    1  LIG1        0.1838
     22 O          -3.3062    6.3575   -0.1252 O.2     1  LIG1       -0.4475
     23 H          -2.4033    9.4974   -0.3132 H       1  LIG1        0.0668
     24 S          -5.5710    9.5692   -0.4863 S.3     1  LIG1       -0.1389
     25 H          -5.6067    9.9933    0.7910 H       1  LIG1        0.1072
     26 C          -5.6711    6.1236   -0.2011 C.ar    1  LIG1        0.1719
     27 C          -7.0083    6.3657   -0.3184 C.ar    1  LIG1        0.0005
     28 C          -7.6485    5.0928   -0.2216 C.ar    1  LIG1        0.0433
     29 C          -6.6560    4.1805   -0.0550 C.ar    1  LIG1        0.1058
     30 O          -5.4470    4.7948   -0.0403 O.2     1  LIG1       -0.4587
     31 H          -6.6475    3.1090    0.0620 H       1  LIG1        0.1041
     32 H          -7.4742    7.3275   -0.4609 H       1  LIG1        0.0667
     33 S          -9.3948    4.8550   -0.3147 S.3     1  LIG1       -0.1396
     34 H          -9.3770    3.5214   -0.1581 H       1  LIG1        0.1072
@<TRIPOS>BOND
     1     9     8    1
     2    24    20    1
     3    24    25    1
     4    32    27    1
     5    27    28   ar
     6    27    26   ar
     7    33    28    1
     8    33    34    1
     9    23    19    1
    10    20    19   ar
    11    20    21   ar
    12    19    18   ar
    13    28    29   ar
    14    21    26    1
    15    21    22   ar
    16    26    30   ar
    17    18    22   ar
    18    18    13    1
    19    13    14   ar
    20    13    12   ar
    21    29    30   ar
    22    29    31    1
    23    14    10   ar
    24    16    12    1
    25    16    17    1
    26    12    11   ar
    27     5     4   ar
    28     5     1   ar
    29    10     4    1
    30    10    11   ar
    31     6     1    1
    32     4     3   ar
    33     1     2   ar
    34    11    15    1
    35     3     2   ar
    36     3     8    1
    37     2     7    1
