@<TRIPOS>MOLECULE
mol_data/opt/cam/geoms/mol2/12ag12ag-12ag-12ag-.out
 34 37 0 0 0
SMALL
GASTEIGER

@<TRIPOS>ATOM
      1 C           0.5462    1.7488   -0.0735 C.ar    1  LIG1        0.0938
      2 C           1.8929    1.8622   -0.0440 C.ar    1  LIG1       -0.0099
      3 C           2.1741    3.2654   -0.0180 C.ar    1  LIG1        0.0537
      4 C           0.9580    3.8978   -0.0438 C.ar    1  LIG1        0.1828
      5 O          -0.0343    2.9763   -0.0763 O.2     1  LIG1       -0.4587
      6 H          -0.1310    0.9105   -0.0974 H       1  LIG1        0.1030
      7 H           2.6186    1.0634   -0.0433 H       1  LIG1        0.0660
      8 S           3.7716    4.0213   -0.0412 S.3     1  LIG1       -0.1389
      9 H           4.0259    3.9530    1.2795 H       1  LIG1        0.1072
     10 C           0.5525    5.2826   -0.0425 C.ar    1  LIG1        0.1729
     11 C           1.2307    6.4640   -0.0455 C.ar    1  LIG1        0.0012
     12 C           0.2443    7.4922   -0.0447 C.ar    1  LIG1        0.0544
     13 C          -0.9736    6.8591   -0.0319 C.ar    1  LIG1        0.1838
     14 O          -0.7897    5.5183   -0.0303 O.2     1  LIG1       -0.4475
     15 H           2.3009    6.5930   -0.0509 H       1  LIG1        0.0668
     16 S           0.5401    9.2339    0.0178 S.3     1  LIG1       -0.1389
     17 H           0.7986    9.4191   -1.2905 H       1  LIG1        0.1072
     18 C          -2.3378    7.3228   -0.0205 C.ar    1  LIG1        0.1729
     19 C          -2.9131    8.5579    0.0071 C.ar    1  LIG1        0.0012
     20 C          -4.3214    8.3434    0.0046 C.ar    1  LIG1        0.0544
     21 C          -4.5056    6.9839   -0.0339 C.ar    1  LIG1        0.1838
     22 O          -3.3040    6.3620   -0.0495 O.2     1  LIG1       -0.4475
     23 H          -2.4021    9.5068    0.0291 H       1  LIG1        0.0668
     24 S          -5.5741    9.5903   -0.0308 S.3     1  LIG1       -0.1389
     25 H          -5.5598    9.8948    1.2805 H       1  LIG1        0.1072
     26 C          -5.6704    6.1328   -0.0594 C.ar    1  LIG1        0.1719
     27 C          -7.0106    6.3824   -0.1056 C.ar    1  LIG1        0.0005
     28 C          -7.6491    5.1050   -0.1035 C.ar    1  LIG1        0.0433
     29 C          -6.6528    4.1829   -0.0561 C.ar    1  LIG1        0.1058
     30 O          -5.4430    4.7950   -0.0322 O.2     1  LIG1       -0.4587
     31 H          -6.6420    3.1052   -0.0375 H       1  LIG1        0.1041
     32 H          -7.4799    7.3524   -0.1450 H       1  LIG1        0.0667
     33 S          -9.3984    4.8733   -0.1455 S.3     1  LIG1       -0.1396
     34 H          -9.3737    3.5394   -0.2982 H       1  LIG1        0.1072
@<TRIPOS>BOND
     1    17    16    1
     2    34    33    1
     3    33    28    1
     4    32    27    1
     5    27    28   ar
     6    27    26   ar
     7    28    29   ar
     8     6     1    1
     9     5     1   ar
    10     5     4   ar
    11     1     2   ar
    12    26    21    1
    13    26    30   ar
    14    29    31    1
    15    29    30   ar
    16    15    11    1
    17    22    21   ar
    18    22    18   ar
    19    11    12   ar
    20    11    10   ar
    21    12    13   ar
    22    12    16    1
    23     2     7    1
    24     2     3   ar
    25     4    10    1
    26     4     3   ar
    27    10    14   ar
    28     8     3    1
    29     8     9    1
    30    21    20   ar
    31    13    14   ar
    32    13    18    1
    33    24    20    1
    34    24    25    1
    35    18    19   ar
    36    20    19   ar
    37    19    23    1
