@<TRIPOS>MOLECULE
mol_data/opt/cam/geoms/mol2/12ag12ag12ag12ag.out
 34 37 0 0 0
SMALL
GASTEIGER

@<TRIPOS>ATOM
      1 C           0.5452    1.7479    0.0131 C.ar    1  LIG1        0.0938
      2 C           1.8922    1.8613    0.0046 C.ar    1  LIG1       -0.0099
      3 C           2.1737    3.2648    0.0026 C.ar    1  LIG1        0.0537
      4 C           0.9574    3.8969    0.0198 C.ar    1  LIG1        0.1828
      5 O          -0.0353    2.9753    0.0250 O.2     1  LIG1       -0.4587
      6 H          -0.1322    0.9094    0.0153 H       1  LIG1        0.1030
      7 H           2.6179    1.0625    0.0029 H       1  LIG1        0.0660
      8 S           3.7707    4.0199    0.0595 S.3     1  LIG1       -0.1389
      9 H           4.0445    3.9693   -1.2580 H       1  LIG1        0.1072
     10 C           0.5520    5.2817    0.0324 C.ar    1  LIG1        0.1729
     11 C           1.2300    6.4628    0.0624 C.ar    1  LIG1        0.0012
     12 C           0.2437    7.4911    0.0617 C.ar    1  LIG1        0.0544
     13 C          -0.9738    6.8585    0.0217 C.ar    1  LIG1        0.1838
     14 O          -0.7899    5.5178    0.0036 O.2     1  LIG1       -0.4475
     15 H           2.3000    6.5915    0.0856 H       1  LIG1        0.0668
     16 S           0.5403    9.2335    0.0286 S.3     1  LIG1       -0.1389
     17 H           0.7803    9.3997    1.3429 H       1  LIG1        0.1072
     18 C          -2.3377    7.3226   -0.0034 C.ar    1  LIG1        0.1729
     19 C          -2.9125    8.5581   -0.0216 C.ar    1  LIG1        0.0012
     20 C          -4.3208    8.3439   -0.0433 C.ar    1  LIG1        0.0544
     21 C          -4.5055    6.9840   -0.0273 C.ar    1  LIG1        0.1838
     22 O          -3.3042    6.3617   -0.0028 O.2     1  LIG1       -0.4475
     23 H          -2.4014    9.5072   -0.0222 H       1  LIG1        0.0668
     24 S          -5.5738    9.5904   -0.0085 S.3     1  LIG1       -0.1389
     25 H          -5.5414    9.9125   -1.3153 H       1  LIG1        0.1072
     26 C          -5.6705    6.1328   -0.0315 C.ar    1  LIG1        0.1719
     27 C          -7.0112    6.3821   -0.0027 C.ar    1  LIG1        0.0005
     28 C          -7.6496    5.1050   -0.0321 C.ar    1  LIG1        0.0433
     29 C          -6.6528    4.1833   -0.0765 C.ar    1  LIG1        0.1058
     30 O          -5.4427    4.7955   -0.0734 O.2     1  LIG1       -0.4587
     31 H          -6.6417    3.1060   -0.1095 H       1  LIG1        0.1041
     32 H          -7.4810    7.3515    0.0426 H       1  LIG1        0.0667
     33 S          -9.3994    4.8731   -0.0200 S.3     1  LIG1       -0.1396
     34 H          -9.3769    3.5366    0.1088 H       1  LIG1        0.1072
@<TRIPOS>BOND
     1    25    24    1
     2     9     8    1
     3    31    29    1
     4    29    30   ar
     5    29    28   ar
     6    30    26   ar
     7    20    21   ar
     8    20    19   ar
     9    20    24    1
    10    28    33    1
    11    28    27   ar
    12    26    21    1
    13    26    27   ar
    14    21    22   ar
    15    23    19    1
    16    19    18   ar
    17    33    34    1
    18    18    22   ar
    19    18    13    1
    20    27    32    1
    21     3     2   ar
    22     3     4   ar
    23     3     8    1
    24     7     2    1
    25    14    13   ar
    26    14    10   ar
    27     2     1   ar
    28     1     6    1
    29     1     5   ar
    30     4     5   ar
    31     4    10    1
    32    13    12   ar
    33    16    12    1
    34    16    17    1
    35    10    11   ar
    36    12    11   ar
    37    11    15    1
