@<TRIPOS>MOLECULE
mol_data/opt/cam/geoms/mol2/12ag12ag12ag.out
 26 28 0 0 0
SMALL
GASTEIGER

@<TRIPOS>ATOM
      1 C           0.3380    1.7417    0.0729 C.ar    1  LIG1        0.0938
      2 C           1.6873    1.8205    0.0808 C.ar    1  LIG1       -0.0099
      3 C           2.0051    3.2162    0.0614 C.ar    1  LIG1        0.0537
      4 C           0.8056    3.8796    0.0529 C.ar    1  LIG1        0.1828
      5 O          -0.2108    2.9839    0.0586 O.2     1  LIG1       -0.4587
      6 H          -0.3609    0.9211    0.0784 H       1  LIG1        0.1030
      7 H           2.3920    1.0034    0.1008 H       1  LIG1        0.0660
      8 S           3.6202    3.9311    0.1285 S.3     1  LIG1       -0.1389
      9 H           3.9110    3.8512   -1.1839 H       1  LIG1        0.1072
     10 C           0.4362    5.2746    0.0392 C.ar    1  LIG1        0.1729
     11 C           1.1442    6.4377    0.0609 C.ar    1  LIG1        0.0012
     12 C           0.1845    7.4913    0.0314 C.ar    1  LIG1        0.0544
     13 C          -1.0478    6.8904   -0.0161 C.ar    1  LIG1        0.1838
     14 O          -0.8985    5.5450   -0.0126 O.2     1  LIG1       -0.4475
     15 H           2.2168    6.5389    0.0968 H       1  LIG1        0.0668
     16 S           0.5270    9.2247   -0.0226 S.3     1  LIG1       -0.1389
     17 H           0.8069    9.3914    1.2835 H       1  LIG1        0.1072
     18 C          -2.4020    7.3868   -0.0674 C.ar    1  LIG1        0.1719
     19 C          -2.9369    8.6394   -0.1384 C.ar    1  LIG1        0.0005
     20 C          -4.3540    8.4620   -0.1530 C.ar    1  LIG1        0.0433
     21 C          -4.5696    7.1224   -0.0899 C.ar    1  LIG1        0.1058
     22 O          -3.3894    6.4557   -0.0411 O.2     1  LIG1       -0.4587
     23 H          -5.4605    6.5159   -0.0750 H       1  LIG1        0.1041
     24 H          -2.3895    9.5672   -0.1833 H       1  LIG1        0.0667
     25 S          -5.5163    9.7883   -0.2287 S.3     1  LIG1       -0.1396
     26 H          -6.6084    9.0270   -0.4046 H       1  LIG1        0.1072
@<TRIPOS>BOND
     1     9     8    1
     2    26    25    1
     3    25    20    1
     4    24    19    1
     5    20    19   ar
     6    20    21   ar
     7    19    18   ar
     8    21    23    1
     9    21    22   ar
    10    18    22   ar
    11    18    13    1
    12    16    12    1
    13    16    17    1
    14    13    14   ar
    15    13    12   ar
    16    14    10   ar
    17    12    11   ar
    18    10     4    1
    19    10    11   ar
    20     4     5   ar
    21     4     3   ar
    22     5     1   ar
    23    11    15    1
    24     3     2   ar
    25     3     8    1
    26     1     6    1
    27     1     2   ar
    28     2     7    1
