@<TRIPOS>MOLECULE
mol_data/opt/cam/geoms/mol2/12ag12ag12ag12ag-.out
 34 37 0 0 0
SMALL
GASTEIGER

@<TRIPOS>ATOM
      1 C           0.5494    1.7514    0.0439 C.ar    1  LIG1        0.0938
      2 C           1.8963    1.8662    0.0333 C.ar    1  LIG1       -0.0099
      3 C           2.1763    3.2699    0.0194 C.ar    1  LIG1        0.0537
      4 C           0.9593    3.9008    0.0324 C.ar    1  LIG1        0.1828
      5 O          -0.0324    2.9782    0.0461 O.2     1  LIG1       -0.4587
      6 H          -0.1272    0.9123    0.0537 H       1  LIG1        0.1030
      7 H           2.6227    1.0681    0.0377 H       1  LIG1        0.0660
      8 S           3.7725    4.0272    0.0687 S.3     1  LIG1       -0.1389
      9 H           4.0452    3.9658   -1.2487 H       1  LIG1        0.1072
     10 C           0.5524    5.2852    0.0338 C.ar    1  LIG1        0.1729
     11 C           1.2292    6.4673    0.0536 C.ar    1  LIG1        0.0012
     12 C           0.2418    7.4945    0.0450 C.ar    1  LIG1        0.0544
     13 C          -0.9751    6.8603    0.0111 C.ar    1  LIG1        0.1838
     14 O          -0.7897    5.5197    0.0040 O.2     1  LIG1       -0.4475
     15 H           2.2991    6.5972    0.0750 H       1  LIG1        0.0668
     16 S           0.5365    9.2369   -0.0027 S.3     1  LIG1       -0.1389
     17 H           0.7764    9.4144    1.3102 H       1  LIG1        0.1072
     18 C          -2.3395    7.3227   -0.0169 C.ar    1  LIG1        0.1729
     19 C          -2.9156    8.5574   -0.0443 C.ar    1  LIG1        0.0012
     20 C          -4.3237    8.3415   -0.0636 C.ar    1  LIG1        0.0544
     21 C          -4.5069    6.9816   -0.0372 C.ar    1  LIG1        0.1838
     22 O          -3.3049    6.3608   -0.0084 O.2     1  LIG1       -0.4475
     23 H          -2.4055    9.5070   -0.0524 H       1  LIG1        0.0668
     24 S          -5.5781    9.5868   -0.0378 S.3     1  LIG1       -0.1389
     25 H          -5.5461    9.8995   -1.3468 H       1  LIG1        0.1072
     26 C          -5.6710    6.1291   -0.0343 C.ar    1  LIG1        0.1719
     27 C          -7.0120    6.3771   -0.0065 C.ar    1  LIG1        0.0005
     28 C          -7.6490    5.0991   -0.0261 C.ar    1  LIG1        0.0433
     29 C          -6.6511    4.1782   -0.0642 C.ar    1  LIG1        0.1058
     30 O          -5.4417    4.7917   -0.0664 O.2     1  LIG1       -0.4587
     31 H          -6.6388    3.1007   -0.0893 H       1  LIG1        0.1041
     32 H          -7.4828    7.3463    0.0319 H       1  LIG1        0.0667
     33 S          -9.3984    4.8652   -0.0114 S.3     1  LIG1       -0.1396
     34 H          -9.3743    3.5300    0.1298 H       1  LIG1        0.1072
@<TRIPOS>BOND
     1    25    24    1
     2     9     8    1
     3    31    29    1
     4    30    29   ar
     5    30    26   ar
     6    29    28   ar
     7    20    19   ar
     8    20    24    1
     9    20    21   ar
    10    23    19    1
    11    19    18   ar
    12    21    26    1
    13    21    22   ar
    14    26    27   ar
    15    28    33    1
    16    28    27   ar
    17    18    22   ar
    18    18    13    1
    19    33    34    1
    20    27    32    1
    21    16    12    1
    22    16    17    1
    23    14    13   ar
    24    14    10   ar
    25    13    12   ar
    26     3     4   ar
    27     3     2   ar
    28     3     8    1
    29     4    10    1
    30     4     5   ar
    31     2     7    1
    32     2     1   ar
    33    10    11   ar
    34     1     5   ar
    35     1     6    1
    36    12    11   ar
    37    11    15    1
