@<TRIPOS>MOLECULE
mol_data/opt/cam/geoms/mol2/12ag12ag-12ag-12ag.out
 34 37 0 0 0
SMALL
GASTEIGER

@<TRIPOS>ATOM
      1 C           0.5483    1.7502   -0.0685 C.ar    1  LIG1        0.0938
      2 C           1.8950    1.8643   -0.0411 C.ar    1  LIG1       -0.0099
      3 C           2.1754    3.2678   -0.0186 C.ar    1  LIG1        0.0537
      4 C           0.9589    3.8994   -0.0441 C.ar    1  LIG1        0.1828
      5 O          -0.0330    2.9773   -0.0733 O.2     1  LIG1       -0.4587
      6 H          -0.1285    0.9115   -0.0896 H       1  LIG1        0.1030
      7 H           2.6211    1.0659   -0.0396 H       1  LIG1        0.0660
      8 S           3.7724    4.0245   -0.0457 S.3     1  LIG1       -0.1389
      9 H           4.0288    3.9589    1.2747 H       1  LIG1        0.1072
     10 C           0.5527    5.2840   -0.0455 C.ar    1  LIG1        0.1729
     11 C           1.2302    6.4658   -0.0521 C.ar    1  LIG1        0.0012
     12 C           0.2432    7.4935   -0.0521 C.ar    1  LIG1        0.0544
     13 C          -0.9743    6.8598   -0.0361 C.ar    1  LIG1        0.1838
     14 O          -0.7896    5.5190   -0.0318 O.2     1  LIG1       -0.4475
     15 H           2.3003    6.5954   -0.0594 H       1  LIG1        0.0668
     16 S           0.5382    9.2354    0.0059 S.3     1  LIG1       -0.1389
     17 H           0.7951    9.4177   -1.3031 H       1  LIG1        0.1072
     18 C          -2.3387    7.3227   -0.0237 C.ar    1  LIG1        0.1729
     19 C          -2.9146    8.5576    0.0021 C.ar    1  LIG1        0.0012
     20 C          -4.3228    8.3423    0.0021 C.ar    1  LIG1        0.0544
     21 C          -4.5063    6.9827   -0.0332 C.ar    1  LIG1        0.1838
     22 O          -3.3044    6.3614   -0.0492 O.2     1  LIG1       -0.4475
     23 H          -2.4042    9.5069    0.0213 H       1  LIG1        0.0668
     24 S          -5.5762    9.5885   -0.0342 S.3     1  LIG1       -0.1389
     25 H          -5.5605    9.8954    1.2765 H       1  LIG1        0.1072
     26 C          -5.6707    6.1309   -0.0552 C.ar    1  LIG1        0.1719
     27 C          -7.0111    6.3798   -0.0998 C.ar    1  LIG1        0.0005
     28 C          -7.6490    5.1020   -0.0941 C.ar    1  LIG1        0.0433
     29 C          -6.6522    4.1805   -0.0465 C.ar    1  LIG1        0.1058
     30 O          -5.4426    4.7932   -0.0257 O.2     1  LIG1       -0.4587
     31 H          -6.6408    3.1028   -0.0258 H       1  LIG1        0.1041
     32 H          -7.4809    7.3494   -0.1404 H       1  LIG1        0.0667
     33 S          -9.3982    4.8694   -0.1330 S.3     1  LIG1       -0.1396
     34 H          -9.3731    3.5350   -0.2816 H       1  LIG1        0.1072
@<TRIPOS>BOND
     1    17    16    1
     2    34    33    1
     3    32    27    1
     4    33    28    1
     5    27    28   ar
     6    27    26   ar
     7    28    29   ar
     8     6     1    1
     9     5     1   ar
    10     5     4   ar
    11     1     2   ar
    12    15    11    1
    13    26    21    1
    14    26    30   ar
    15    12    11   ar
    16    12    13   ar
    17    12    16    1
    18    11    10   ar
    19    22    21   ar
    20    22    18   ar
    21    29    31    1
    22    29    30   ar
    23     8     3    1
    24     8     9    1
    25    10     4    1
    26    10    14   ar
    27     4     3   ar
    28     2     7    1
    29     2     3   ar
    30    13    14   ar
    31    13    18    1
    32    24    20    1
    33    24    25    1
    34    21    20   ar
    35    18    19   ar
    36    20    19   ar
    37    19    23    1
