@<TRIPOS>MOLECULE
mol_data/opt/cam/geoms/mol2/12ag12ag-12ag-.out
 26 28 0 0 0
SMALL
GASTEIGER

@<TRIPOS>ATOM
      1 C           0.3392    1.7417   -0.0863 C.ar    1  LIG1        0.0938
      2 C           1.6886    1.8209   -0.0899 C.ar    1  LIG1       -0.0099
      3 C           2.0059    3.2167   -0.0689 C.ar    1  LIG1        0.0537
      4 C           0.8061    3.8797   -0.0637 C.ar    1  LIG1        0.1828
      5 O          -0.2099    2.9838   -0.0729 O.2     1  LIG1       -0.4587
      6 H          -0.3594    0.9208   -0.0945 H       1  LIG1        0.1030
      7 H           2.3936    1.0040   -0.1082 H       1  LIG1        0.0660
      8 S           3.6210    3.9319   -0.1308 S.3     1  LIG1       -0.1389
      9 H           3.9073    3.8527    1.1827 H       1  LIG1        0.1072
     10 C           0.4364    5.2746   -0.0504 C.ar    1  LIG1        0.1729
     11 C           1.1442    6.4379   -0.0667 C.ar    1  LIG1        0.0012
     12 C           0.1842    7.4912   -0.0415 C.ar    1  LIG1        0.0544
     13 C          -1.0483    6.8901   -0.0016 C.ar    1  LIG1        0.1838
     14 O          -0.8987    5.5447   -0.0059 O.2     1  LIG1       -0.4475
     15 H           2.2170    6.5395   -0.0964 H       1  LIG1        0.0668
     16 S           0.5264    9.2246    0.0164 S.3     1  LIG1       -0.1389
     17 H           0.8110    9.3933   -1.2885 H       1  LIG1        0.1072
     18 C          -2.4028    7.3862    0.0429 C.ar    1  LIG1        0.1719
     19 C          -2.9381    8.6388    0.1102 C.ar    1  LIG1        0.0005
     20 C          -4.3553    8.4612    0.1183 C.ar    1  LIG1        0.0433
     21 C          -4.5704    7.1216    0.0555 C.ar    1  LIG1        0.1058
     22 O          -3.3899    6.4550    0.0129 O.2     1  LIG1       -0.4587
     23 H          -5.4612    6.5149    0.0370 H       1  LIG1        0.1041
     24 H          -2.3912    9.5667    0.1568 H       1  LIG1        0.0667
     25 S          -5.5178    9.7876    0.1875 S.3     1  LIG1       -0.1396
     26 H          -6.6112    9.0263    0.3553 H       1  LIG1        0.1072
@<TRIPOS>BOND
     1    17    16    1
     2     8     3    1
     3     8     9    1
     4     7     2    1
     5    15    11    1
     6     6     1    1
     7     2     1   ar
     8     2     3   ar
     9     1     5   ar
    10     5     4   ar
    11     3     4   ar
    12    11    10   ar
    13    11    12   ar
    14     4    10    1
    15    10    14   ar
    16    12    13   ar
    17    12    16    1
    18    14    13   ar
    19    13    18    1
    20    22    18   ar
    21    22    21   ar
    22    23    21    1
    23    18    19   ar
    24    21    20   ar
    25    19    20   ar
    26    19    24    1
    27    20    25    1
    28    25    26    1
