@<TRIPOS>MOLECULE
mol_data/opt/cam/geoms/mol2/12ag12ag-12ag.out
 26 28 0 0 0
SMALL
GASTEIGER

@<TRIPOS>ATOM
      1 C           0.2426    1.7111   -0.0002 C.ar    1  LIG1        0.0938
      2 C           1.5952    1.7097   -0.0001 C.ar    1  LIG1       -0.0099
      3 C           1.9939    3.0841   -0.0000 C.ar    1  LIG1        0.0537
      4 C           0.8365    3.8176   -0.0001 C.ar    1  LIG1        0.1828
      5 O          -0.2355    2.9720   -0.0002 O.2     1  LIG1       -0.4587
      6 H          -0.4955    0.9251   -0.0002 H       1  LIG1        0.1030
      7 H           2.2467    0.8489   -0.0001 H       1  LIG1        0.0660
      8 S           3.6911    3.5508    0.0001 S.3     1  LIG1       -0.1389
      9 H           3.5207    4.8784    0.0009 H       1  LIG1        0.1072
     10 C           0.5183    5.2252   -0.0002 C.ar    1  LIG1        0.1729
     11 C           1.2541    6.3746   -0.0003 C.ar    1  LIG1        0.0012
     12 C           0.3231    7.4546   -0.0003 C.ar    1  LIG1        0.0544
     13 C          -0.9236    6.8883   -0.0002 C.ar    1  LIG1        0.1838
     14 O          -0.8008    5.5293   -0.0001 O.2     1  LIG1       -0.4475
     15 H           2.3270    6.4796   -0.0003 H       1  LIG1        0.0668
     16 S           0.8611    9.1310   -0.0003 S.3     1  LIG1       -0.1389
     17 H          -0.3451    9.7108    0.0005 H       1  LIG1        0.1072
     18 C          -2.2767    7.3907   -0.0002 C.ar    1  LIG1        0.1719
     19 C          -2.8363    8.6367   -0.0004 C.ar    1  LIG1        0.0005
     20 C          -4.2522    8.4401   -0.0003 C.ar    1  LIG1        0.0433
     21 C          -4.4468    7.0979   -0.0000 C.ar    1  LIG1        0.1058
     22 O          -3.2535    6.4498    0.0000 O.2     1  LIG1       -0.4587
     23 H          -5.3267    6.4756    0.0001 H       1  LIG1        0.1041
     24 H          -2.3356    9.5913   -0.0007 H       1  LIG1        0.0667
     25 S          -5.4298    9.7544   -0.0005 S.3     1  LIG1       -0.1396
     26 H          -6.5257    8.9786   -0.0002 H       1  LIG1        0.1072
@<TRIPOS>BOND
     1    24    19    1
     2    25    20    1
     3    25    26    1
     4    19    20   ar
     5    19    18   ar
     6    15    11    1
     7    16    12    1
     8    16    17    1
     9    20    21   ar
    10    11    12   ar
    11    11    10   ar
    12    12    13   ar
    13    18    13    1
    14    18    22   ar
    15     5     1   ar
    16     5     4   ar
    17    13    14   ar
    18     6     1    1
    19    10    14   ar
    20    10     4    1
    21     1     2   ar
    22     2     7    1
    23     2     3   ar
    24     4     3   ar
    25     3     8    1
    26    21    22   ar
    27    21    23    1
    28     8     9    1
