@<TRIPOS>MOLECULE
mol_data/opt/cam/geoms/mol2/12ag12ag-.out
 18 19 0 0 0
SMALL
GASTEIGER

@<TRIPOS>ATOM
      1 C           0.2169    1.7910   -0.0225 C.ar    1  LIG1        0.0938
      2 C           1.5653    1.8413   -0.0966 C.ar    1  LIG1       -0.0099
      3 C           1.9119    3.2306   -0.1094 C.ar    1  LIG1        0.0537
      4 C           0.7289    3.9192   -0.0511 C.ar    1  LIG1        0.1827
      5 O          -0.3049    3.0448    0.0028 O.2     1  LIG1       -0.4587
      6 H          -0.4981    0.9852    0.0156 H       1  LIG1        0.1030
      7 H           2.2514    1.0094   -0.1409 H       1  LIG1        0.0660
      8 S           3.5369    3.9093   -0.2617 S.3     1  LIG1       -0.1389
      9 H           3.8952    3.8181    1.0331 H       1  LIG1        0.1072
     10 C           0.3860    5.3232   -0.0362 C.ar    1  LIG1        0.1718
     11 C           1.1214    6.4669   -0.1309 C.ar    1  LIG1        0.0005
     12 C           0.1869    7.5444   -0.0446 C.ar    1  LIG1        0.0433
     13 C          -1.0376    6.9747    0.0959 C.ar    1  LIG1        0.1058
     14 O          -0.9313    5.6219    0.0987 O.2     1  LIG1       -0.4587
     15 H          -2.0332    7.3748    0.1979 H       1  LIG1        0.1041
     16 H           2.1903    6.5316   -0.2565 H       1  LIG1        0.0667
     17 S           0.6359    9.2505   -0.1055 S.3     1  LIG1       -0.1396
     18 H          -0.6132    9.7365   -0.1894 H       1  LIG1        0.1072
@<TRIPOS>BOND
     1     8     3    1
     2     8     9    1
     3    16    11    1
     4    18    17    1
     5     7     2    1
     6    11    12   ar
     7    11    10   ar
     8     3     2   ar
     9     3     4   ar
    10    17    12    1
    11     2     1   ar
    12     4    10    1
    13     4     5   ar
    14    12    13   ar
    15    10    14   ar
    16     1     5   ar
    17     1     6    1
    18    13    14   ar
    19    13    15    1
