@<TRIPOS>MOLECULE
mol_data/opt/cam/geoms/mol2/12ag12ag-12ag12ag-.out
 34 37 0 0 0
SMALL
GASTEIGER

@<TRIPOS>ATOM
      1 C           0.6114    1.7551   -0.0972 C.ar    1  LIG1        0.0938
      2 C           1.9543    1.8903   -0.0220 C.ar    1  LIG1       -0.0099
      3 C           2.2128    3.2982   -0.0162 C.ar    1  LIG1        0.0537
      4 C           0.9892    3.9103   -0.1000 C.ar    1  LIG1        0.1828
      5 O           0.0128    2.9724   -0.1498 O.2     1  LIG1       -0.4587
      6 H          -0.0515    0.9055   -0.1264 H       1  LIG1        0.1030
      7 H           2.6910    1.1029    0.0219 H       1  LIG1        0.0660
      8 S           3.7963    4.0827    0.0023 S.3     1  LIG1       -0.1389
      9 H           4.0496    3.9476    1.3178 H       1  LIG1        0.1072
     10 C           0.5625    5.2881   -0.1464 C.ar    1  LIG1        0.1729
     11 C           1.2222    6.4791   -0.1926 C.ar    1  LIG1        0.0012
     12 C           0.2196    7.4917   -0.2090 C.ar    1  LIG1        0.0544
     13 C          -0.9880    6.8401   -0.1841 C.ar    1  LIG1        0.1838
     14 O          -0.7831    5.5025   -0.1470 O.2     1  LIG1       -0.4475
     15 H           2.2901    6.6236   -0.2196 H       1  LIG1        0.0668
     16 S           0.4823    9.2352   -0.3311 S.3     1  LIG1       -0.1389
     17 H           0.8609    9.4460    0.9433 H       1  LIG1        0.1072
     18 C          -2.3597    7.2817   -0.1928 C.ar    1  LIG1        0.1729
     19 C          -2.9572    8.5016   -0.3025 C.ar    1  LIG1        0.0012
     20 C          -4.3607    8.2679   -0.2275 C.ar    1  LIG1        0.0544
     21 C          -4.5200    6.9120   -0.0887 C.ar    1  LIG1        0.1838
     22 O          -3.3081    6.3109   -0.0661 O.2     1  LIG1       -0.4475
     23 H          -2.4649    9.4523   -0.4286 H       1  LIG1        0.0668
     24 S          -5.6372    9.4813   -0.3816 S.3     1  LIG1       -0.1389
     25 H          -5.6227    9.9204    0.8911 H       1  LIG1        0.1072
     26 C          -5.6694    6.0480    0.0323 C.ar    1  LIG1        0.1719
     27 C          -7.0148    6.2640    0.0160 C.ar    1  LIG1        0.0005
     28 C          -7.6216    4.9804    0.1845 C.ar    1  LIG1        0.0433
     29 C          -6.6006    4.0906    0.2977 C.ar    1  LIG1        0.1058
     30 O          -5.4112    4.7208    0.2105 O.2     1  LIG1       -0.4587
     31 H          -6.5733    3.0226    0.4426 H       1  LIG1        0.1041
     32 H          -7.5129    7.2126   -0.1029 H       1  LIG1        0.0667
     33 S          -9.3411    4.5938    0.3304 S.3     1  LIG1       -0.1396
     34 H          -9.6703    4.7555   -0.9642 H       1  LIG1        0.1072
@<TRIPOS>BOND
     1    34    33    1
     2    23    19    1
     3    24    20    1
     4    24    25    1
     5    16    12    1
     6    16    17    1
     7    19    20   ar
     8    19    18   ar
     9    20    21   ar
    10    15    11    1
    11    12    11   ar
    12    12    13   ar
    13    18    13    1
    14    18    22   ar
    15    11    10   ar
    16    13    14   ar
    17     5     4   ar
    18     5     1   ar
    19    14    10   ar
    20    10     4    1
    21     6     1    1
    22    32    27    1
    23     4     3   ar
    24     1     2   ar
    25    21    22   ar
    26    21    26    1
    27     2     3   ar
    28     2     7    1
    29     3     8    1
    30     8     9    1
    31    27    26   ar
    32    27    28   ar
    33    26    30   ar
    34    28    29   ar
    35    28    33    1
    36    30    29   ar
    37    29    31    1
