@<TRIPOS>MOLECULE
mol_data/opt/cam/geoms/mol2/12ag12ag12ag-.out
 26 28 0 0 0
SMALL
GASTEIGER

@<TRIPOS>ATOM
      1 C           0.3400    1.7424    0.0787 C.ar    1  LIG1        0.0938
      2 C           1.6894    1.8219    0.0872 C.ar    1  LIG1       -0.0099
      3 C           2.0064    3.2177    0.0664 C.ar    1  LIG1        0.0537
      4 C           0.8066    3.8805    0.0565 C.ar    1  LIG1        0.1828
      5 O          -0.2094    2.9843    0.0627 O.2     1  LIG1       -0.4587
      6 H          -0.3584    0.9214    0.0848 H       1  LIG1        0.1030
      7 H           2.3944    1.0051    0.1086 H       1  LIG1        0.0660
      8 S           3.6211    3.9335    0.1335 S.3     1  LIG1       -0.1389
      9 H           3.9126    3.8522   -1.1787 H       1  LIG1        0.1072
     10 C           0.4364    5.2753    0.0409 C.ar    1  LIG1        0.1729
     11 C           1.1439    6.4388    0.0616 C.ar    1  LIG1        0.0012
     12 C           0.1836    7.4918    0.0304 C.ar    1  LIG1        0.0544
     13 C          -1.0484    6.8903   -0.0169 C.ar    1  LIG1        0.1838
     14 O          -0.8984    5.5449   -0.0118 O.2     1  LIG1       -0.4475
     15 H           2.2164    6.5405    0.0978 H       1  LIG1        0.0668
     16 S           0.5253    9.2253   -0.0255 S.3     1  LIG1       -0.1389
     17 H           0.8045    9.3937    1.2806 H       1  LIG1        0.1072
     18 C          -2.4027    7.3859   -0.0694 C.ar    1  LIG1        0.1719
     19 C          -2.9382    8.6381   -0.1422 C.ar    1  LIG1        0.0005
     20 C          -4.3553    8.4600   -0.1571 C.ar    1  LIG1        0.0433
     21 C          -4.5702    7.1204   -0.0926 C.ar    1  LIG1        0.1058
     22 O          -3.3897    6.4544   -0.0424 O.2     1  LIG1       -0.4587
     23 H          -5.4608    6.5135   -0.0773 H       1  LIG1        0.1041
     24 H          -2.3913    9.5661   -0.1880 H       1  LIG1        0.0667
     25 S          -5.5181    9.7857   -0.2350 S.3     1  LIG1       -0.1396
     26 H          -6.6098    9.0235   -0.4105 H       1  LIG1        0.1072
@<TRIPOS>BOND
     1     9     8    1
     2    26    25    1
     3    25    20    1
     4    24    19    1
     5    20    19   ar
     6    20    21   ar
     7    19    18   ar
     8    21    23    1
     9    21    22   ar
    10    18    22   ar
    11    18    13    1
    12    16    12    1
    13    16    17    1
    14    13    14   ar
    15    13    12   ar
    16    14    10   ar
    17    12    11   ar
    18    10     4    1
    19    10    11   ar
    20     4     5   ar
    21     4     3   ar
    22    11    15    1
    23     5     1   ar
    24     3     2   ar
    25     3     8    1
    26     1     6    1
    27     1     2   ar
    28     2     7    1
