@<TRIPOS>MOLECULE
mol_data/opt/cam/geoms/mol2/12ag12ag.out
 18 19 0 0 0
SMALL
GASTEIGER

@<TRIPOS>ATOM
      1 C           0.2046    1.7932   -0.0151 C.ar    1  LIG1        0.0938
      2 C           1.5523    1.8372    0.0736 C.ar    1  LIG1       -0.0099
      3 C           1.9042    3.2249    0.1046 C.ar    1  LIG1        0.0537
      4 C           0.7246    3.9189    0.0413 C.ar    1  LIG1        0.1827
      5 O          -0.3120    3.0493   -0.0326 O.2     1  LIG1       -0.4587
      6 H          -0.5132    0.9907   -0.0693 H       1  LIG1        0.1030
      7 H           2.2345    1.0020    0.1163 H       1  LIG1        0.0660
      8 S           3.5302    3.8955    0.2812 S.3     1  LIG1       -0.1389
      9 H           3.9021    3.8154   -1.0106 H       1  LIG1        0.1072
     10 C           0.3874    5.3242    0.0375 C.ar    1  LIG1        0.1718
     11 C           1.1259    6.4639    0.1535 C.ar    1  LIG1        0.0005
     12 C           0.1966    7.5460    0.0676 C.ar    1  LIG1        0.0433
     13 C          -1.0282    6.9827   -0.0938 C.ar    1  LIG1        0.1058
     14 O          -0.9271    5.6296   -0.1100 O.2     1  LIG1       -0.4587
     15 H          -2.0210    7.3878   -0.2035 H       1  LIG1        0.1041
     16 H           2.1934    6.5230    0.2926 H       1  LIG1        0.0667
     17 S           0.6512    9.2496    0.1525 S.3     1  LIG1       -0.1396
     18 H          -0.5970    9.7395    0.2254 H       1  LIG1        0.1072
@<TRIPOS>BOND
     1     9     8    1
     2    15    13    1
     3    14    13   ar
     4    14    10   ar
     5    13    12   ar
     6     6     1    1
     7     5     1   ar
     8     5     4   ar
     9     1     2   ar
    10    10     4    1
    11    10    11   ar
    12     4     3   ar
    13    12    17    1
    14    12    11   ar
    15     2     3   ar
    16     2     7    1
    17     3     8    1
    18    17    18    1
    19    11    16    1
