@<TRIPOS>MOLECULE
mol_data/opt/cam/geoms/mol2/12ag12ag-12ag12ag.out
 34 37 0 0 0
SMALL
GASTEIGER

@<TRIPOS>ATOM
      1 C           0.6126    1.7554    0.0770 C.ar    1  LIG1        0.0938
      2 C           1.9552    1.8913   -0.0015 C.ar    1  LIG1       -0.0099
      3 C           2.2134    3.2993   -0.0030 C.ar    1  LIG1        0.0537
      4 C           0.9899    3.9108    0.0864 C.ar    1  LIG1        0.1828
      5 O           0.0138    2.9724    0.1355 O.2     1  LIG1       -0.4587
      6 H          -0.0501    0.9056    0.1050 H       1  LIG1        0.1030
      7 H           2.6920    1.1042   -0.0502 H       1  LIG1        0.0660
      8 S           3.7966    4.0842   -0.0231 S.3     1  LIG1       -0.1389
      9 H           4.0461    3.9543   -1.3399 H       1  LIG1        0.1072
     10 C           0.5629    5.2883    0.1389 C.ar    1  LIG1        0.1729
     11 C           1.2224    6.4792    0.1879 C.ar    1  LIG1        0.0012
     12 C           0.2196    7.4915    0.2104 C.ar    1  LIG1        0.0544
     13 C          -0.9879    6.8398    0.1859 C.ar    1  LIG1        0.1838
     14 O          -0.7827    5.5023    0.1434 O.2     1  LIG1       -0.4475
     15 H           2.2903    6.6239    0.2130 H       1  LIG1        0.0668
     16 S           0.4821    9.2347    0.3383 S.3     1  LIG1       -0.1389
     17 H           0.8594    9.4500   -0.9357 H       1  LIG1        0.1072
     18 C          -2.3596    7.2810    0.1994 C.ar    1  LIG1        0.1729
     19 C          -2.9572    8.5003    0.3152 C.ar    1  LIG1        0.0012
     20 C          -4.3608    8.2665    0.2423 C.ar    1  LIG1        0.0544
     21 C          -4.5201    6.9111    0.0985 C.ar    1  LIG1        0.1838
     22 O          -3.3081    6.3105    0.0709 O.2     1  LIG1       -0.4475
     23 H          -2.4649    9.4505    0.4440 H       1  LIG1        0.0668
     24 S          -5.6372    9.4790    0.4039 S.3     1  LIG1       -0.1389
     25 H          -5.6262    9.9224   -0.8673 H       1  LIG1        0.1072
     26 C          -5.6695    6.0473   -0.0234 C.ar    1  LIG1        0.1719
     27 C          -7.0150    6.2629   -0.0030 C.ar    1  LIG1        0.0005
     28 C          -7.6218    4.9799   -0.1753 C.ar    1  LIG1        0.0433
     29 C          -6.6009    4.0908   -0.2945 C.ar    1  LIG1        0.1058
     30 O          -5.4114    4.7209   -0.2076 O.2     1  LIG1       -0.4587
     31 H          -6.5736    3.0234   -0.4438 H       1  LIG1        0.1041
     32 H          -7.5130    7.2109    0.1209 H       1  LIG1        0.0667
     33 S          -9.3416    4.5935   -0.3190 S.3     1  LIG1       -0.1396
     34 H          -9.6679    4.7495    0.9771 H       1  LIG1        0.1072
@<TRIPOS>BOND
     1     9     8    1
     2    17    16    1
     3    25    24    1
     4    31    29    1
     5    33    28    1
     6    33    34    1
     7    29    30   ar
     8    29    28   ar
     9    30    26   ar
    10    28    27   ar
    11     7     2    1
    12    26    27   ar
    13    26    21    1
    14     8     3    1
    15     3     2   ar
    16     3     4   ar
    17    27    32    1
    18     2     1   ar
    19    22    21   ar
    20    22    18   ar
    21     1     6    1
    22     1     5   ar
    23     4     5   ar
    24     4    10    1
    25    21    20   ar
    26    10    14   ar
    27    10    11   ar
    28    14    13   ar
    29    13    18    1
    30    13    12   ar
    31    11    12   ar
    32    11    15    1
    33    18    19   ar
    34    12    16    1
    35    20    19   ar
    36    20    24    1
    37    19    23    1
