@<TRIPOS>MOLECULE
mol_data/opt/cam/geoms/mol2/12ag12ag12ag-12ag.out
 34 37 0 0 0
SMALL
GASTEIGER

@<TRIPOS>ATOM
      1 C           0.5501    1.7516    0.0201 C.ar    1  LIG1        0.0938
      2 C           1.8970    1.8668    0.0212 C.ar    1  LIG1       -0.0099
      3 C           2.1767    3.2706    0.0212 C.ar    1  LIG1        0.0537
      4 C           0.9594    3.9012    0.0298 C.ar    1  LIG1        0.1828
      5 O          -0.0321    2.9783    0.0278 O.2     1  LIG1       -0.4587
      6 H          -0.1263    0.9123    0.0174 H       1  LIG1        0.1030
      7 H           2.6236    1.0689    0.0247 H       1  LIG1        0.0660
      8 S           3.7722    4.0279    0.0896 S.3     1  LIG1       -0.1389
      9 H           4.0555    3.9776   -1.2260 H       1  LIG1        0.1072
     10 C           0.5521    5.2854    0.0396 C.ar    1  LIG1        0.1729
     11 C           1.2284    6.4674    0.0745 C.ar    1  LIG1        0.0012
     12 C           0.2408    7.4945    0.0666 C.ar    1  LIG1        0.0544
     13 C          -0.9756    6.8603    0.0177 C.ar    1  LIG1        0.1838
     14 O          -0.7898    5.5198    0.0010 O.2     1  LIG1       -0.4475
     15 H           2.2980    6.5974    0.1056 H       1  LIG1        0.0668
     16 S           0.5353    9.2372    0.0358 S.3     1  LIG1       -0.1389
     17 H           0.7648    9.4038    1.3520 H       1  LIG1        0.1072
     18 C          -2.3399    7.3225   -0.0172 C.ar    1  LIG1        0.1729
     19 C          -2.9162    8.5573   -0.0391 C.ar    1  LIG1        0.0012
     20 C          -4.3240    8.3412   -0.0714 C.ar    1  LIG1        0.0544
     21 C          -4.5070    6.9810   -0.0575 C.ar    1  LIG1        0.1838
     22 O          -3.3051    6.3604   -0.0243 O.2     1  LIG1       -0.4475
     23 H          -2.4063    9.5070   -0.0354 H       1  LIG1        0.0668
     24 S          -5.5790    9.5860   -0.0452 S.3     1  LIG1       -0.1389
     25 H          -5.5369    9.9092   -1.3515 H       1  LIG1        0.1072
     26 C          -5.6708    6.1283   -0.0708 C.ar    1  LIG1        0.1719
     27 C          -7.0120    6.3758   -0.0518 C.ar    1  LIG1        0.0005
     28 C          -7.6485    5.0978   -0.0868 C.ar    1  LIG1        0.0433
     29 C          -6.6500    4.1775   -0.1244 C.ar    1  LIG1        0.1058
     30 O          -5.4409    4.7913   -0.1119 O.2     1  LIG1       -0.4587
     31 H          -6.6372    3.1002   -0.1580 H       1  LIG1        0.1041
     32 H          -7.4835    7.3445   -0.0094 H       1  LIG1        0.0667
     33 S          -9.3979    4.8634   -0.0880 S.3     1  LIG1       -0.1396
     34 H          -9.3745    3.5269    0.0416 H       1  LIG1        0.1072
@<TRIPOS>BOND
     1    25    24    1
     2     9     8    1
     3    31    29    1
     4    29    30   ar
     5    29    28   ar
     6    30    26   ar
     7    33    28    1
     8    33    34    1
     9    28    27   ar
    10    20    21   ar
    11    20    24    1
    12    20    19   ar
    13    26    21    1
    14    26    27   ar
    15    21    22   ar
    16    27    32    1
    17    19    23    1
    18    19    18   ar
    19    22    18   ar
    20    18    13    1
    21    14    13   ar
    22    14    10   ar
    23     6     1    1
    24    13    12   ar
    25     1     2   ar
    26     1     5   ar
    27     2     3   ar
    28     2     7    1
    29     3     4   ar
    30     3     8    1
    31     5     4   ar
    32     4    10    1
    33    16    12    1
    34    16    17    1
    35    10    11   ar
    36    12    11   ar
    37    11    15    1
