@<TRIPOS>MOLECULE
mol_data/opt/cam/geoms/mol2/12ah12hl12if-12fi-.out
 46 49 0 0 0
SMALL
GASTEIGER

@<TRIPOS>ATOM
      1 C           1.2269    1.6916    1.3953 C.ar    1  LIG1        0.0946
      2 C           2.3825    1.7573    0.6929 C.ar    1  LIG1       -0.0024
      3 C           2.4328    3.0759    0.1378 C.ar    1  LIG1        0.0741
      4 C           1.3029    3.7186    0.5680 C.ar    1  LIG1        0.1921
      5 O           0.5571    2.8661    1.3262 O.2     1  LIG1       -0.4579
      6 H           0.7519    0.9102    1.9664 H       1  LIG1        0.1030
      7 H           3.1089    0.9675    0.5658 H       1  LIG1        0.0668
      8 N           3.4199    3.6356   -0.7169 N.pl3   1  LIG1       -0.3550
      9 H           4.2827    3.1062   -0.6728 H       1  LIG1        0.1424
     10 H           3.1091    3.6471   -1.6839 H       1  LIG1        0.1424
     11 C           0.8376    5.0660    0.3902 C.ar    1  LIG1        0.1968
     12 C           1.5163    6.2351    0.1590 C.ar    1  LIG1        0.1172
     13 C           0.5067    7.2382    0.0363 C.ar    1  LIG1        0.1902
     14 C          -0.7053    6.6334    0.2380 C.ar    1  LIG1        0.2143
     15 O          -0.5128    5.3048    0.4361 O.2     1  LIG1       -0.4428
     16 N           2.8748    6.4631    0.1116 N.pl3   1  LIG1       -0.3521
     17 H           3.4173    5.6630   -0.2090 H       1  LIG1        0.1425
     18 H           3.1148    7.3454   -0.3170 H       1  LIG1        0.1425
     19 O           0.8046    8.5455   -0.2234 O.3     1  LIG1       -0.4896
     20 C           0.2541    9.0535   -1.4340 C.3     1  LIG1        0.0791
     21 H           0.6456   10.0646   -1.5520 H       1  LIG1        0.0660
     22 H           0.5583    8.4392   -2.2884 H       1  LIG1        0.0660
     23 H          -0.8384    9.0902   -1.3915 H       1  LIG1        0.0660
     24 C          -2.0620    7.1225    0.2903 C.ar    1  LIG1        0.1810
     25 C          -2.6053    8.3115    0.6973 C.ar    1  LIG1        0.0407
     26 C          -4.0114    8.1654    0.5039 C.ar    1  LIG1        0.1696
     27 C          -4.2270    6.9058    0.0087 C.ar    1  LIG1        0.2157
     28 O          -3.0301    6.2643   -0.1304 O.2     1  LIG1       -0.4443
     29 C          -1.9447    9.5091    1.2963 C.3     1  LIG1       -0.0325
     30 H          -2.2723    9.6496    2.3308 H       1  LIG1        0.0280
     31 H          -2.2210   10.4171    0.7518 H       1  LIG1        0.0280
     32 H          -0.8586    9.4162    1.2844 H       1  LIG1        0.0280
     33 O          -4.8930    9.1372    0.8103 O.3     1  LIG1       -0.5029
     34 H          -5.7923    8.8360    0.5833 H       1  LIG1        0.2923
     35 C          -5.4289    6.2087   -0.3570 C.ar    1  LIG1        0.2147
     36 C          -6.7301    6.6118   -0.4452 C.ar    1  LIG1        0.1688
     37 C          -7.5206    5.4814   -0.8236 C.ar    1  LIG1        0.0295
     38 C          -6.6258    4.4701   -0.9486 C.ar    1  LIG1        0.0993
     39 O          -5.3630    4.8890   -0.6637 O.2     1  LIG1       -0.4556
     40 H          -6.7271    3.4310   -1.2185 H       1  LIG1        0.1033
     41 O          -7.1903    7.8804   -0.1439 O.3     1  LIG1       -0.5030
     42 H          -7.5939    8.2699   -0.9301 H       1  LIG1        0.2923
     43 C          -9.0001    5.4538   -1.0250 C.3     1  LIG1       -0.0332
     44 H          -9.3473    4.4415   -1.2400 H       1  LIG1        0.0280
     45 H          -9.3090    6.0911   -1.8607 H       1  LIG1        0.0280
     46 H          -9.5246    5.8093   -0.1334 H       1  LIG1        0.0280
@<TRIPOS>BOND
     1    22    20    1
     2    45    43    1
     3    10     8    1
     4    21    20    1
     5    20    23    1
     6    20    19    1
     7    44    43    1
     8    40    38    1
     9    43    37    1
    10    43    46    1
    11    38    37   ar
    12    38    39   ar
    13    42    41    1
    14    37    36   ar
    15     8     9    1
    16     8     3    1
    17    39    35   ar
    18    36    35   ar
    19    36    41    1
    20    35    27    1
    21    18    16    1
    22    19    13    1
    23    17    16    1
    24    28    27   ar
    25    28    24   ar
    26    27    26   ar
    27    13    12   ar
    28    13    14   ar
    29    16    12    1
    30     3     4   ar
    31     3     2   ar
    32    12    11   ar
    33    14    24    1
    34    14    15   ar
    35    24    25   ar
    36    11    15   ar
    37    11     4    1
    38    26    25   ar
    39    26    33    1
    40     7     2    1
    41     4     5   ar
    42    34    33    1
    43     2     1   ar
    44    25    29    1
    45    31    29    1
    46    32    29    1
    47    29    30    1
    48     5     1   ar
    49     1     6    1
