@<TRIPOS>MOLECULE
mol_data/opt/cam/geoms/mol2/12ah12he-6ah13aa.out
 41 44 0 0 0
SMALL
GASTEIGER

@<TRIPOS>ATOM
      1 C           0.5118    1.6146   -0.5541 C.ar    1  LIG1        0.0946
      2 C           1.7216    1.7033    0.0496 C.ar    1  LIG1       -0.0024
      3 C           1.9450    3.0970    0.3007 C.ar    1  LIG1        0.0741
      4 C           0.8400    3.7447   -0.1956 C.ar    1  LIG1        0.1920
      5 O          -0.0430    2.8299   -0.7199 O.2     1  LIG1       -0.4579
      6 H          -0.0679    0.7766   -0.9083 H       1  LIG1        0.1030
      7 H           2.3755    0.8849    0.3132 H       1  LIG1        0.0668
      8 N           3.0123    3.6539    0.9814 N.pl3   1  LIG1       -0.3550
      9 H           3.8539    3.0975    0.9598 H       1  LIG1        0.1424
     10 H           3.1770    4.6367    0.7706 H       1  LIG1        0.1424
     11 C           0.4969    5.1369   -0.2433 C.ar    1  LIG1        0.1941
     12 C           1.2641    6.2641   -0.2887 C.ar    1  LIG1        0.0904
     13 C           0.3588    7.3786   -0.2278 C.ar    1  LIG1        0.0918
     14 C          -0.9090    6.8458   -0.1772 C.ar    1  LIG1        0.1545
     15 O          -0.8214    5.4940   -0.1911 O.2     1  LIG1       -0.4484
     16 N           2.6706    6.3250   -0.3761 N.pl3   1  LIG1       -0.3540
     17 H           3.0054    5.9741   -1.2684 H       1  LIG1        0.1425
     18 H           2.9926    7.2808   -0.2651 H       1  LIG1        0.1425
     19 C           0.7777    8.7333   -0.2476 C.1     1  LIG1       -0.0640
     20 C           1.2123    9.8581   -0.2691 C.1     1  LIG1       -0.1137
     21 H           1.5788   10.8588   -0.2817 H       1  LIG1        0.1232
     22 C          -3.3676    6.5729   -0.1165 C.ar    1  LIG1        0.0391
     23 C          -2.2462    7.4100   -0.1281 C.ar    1  LIG1        0.0384
     24 C          -2.4733    8.7863   -0.1111 C.ar    1  LIG1       -0.0267
     25 C          -3.7692    9.2844   -0.0575 C.ar    1  LIG1        0.0530
     26 C          -4.8305    8.3549    0.0054 C.ar    1  LIG1        0.1076
     27 N          -4.6063    7.0354   -0.0528 N.ar    1  LIG1       -0.2510
     28 H          -1.6387    9.4777   -0.1505 H       1  LIG1        0.0644
     29 H          -3.2456    5.4958   -0.1570 H       1  LIG1        0.0837
     30 N          -4.0096   10.6544   -0.0441 N.pl3   1  LIG1       -0.3563
     31 H          -3.2263   11.2112   -0.3559 H       1  LIG1        0.1424
     32 H          -4.8706   10.9251   -0.5005 H       1  LIG1        0.1424
     33 C          -6.2357    8.7429    0.1017 C.ar    1  LIG1        0.0667
     34 C          -6.9112    9.9068    0.4383 C.ar    1  LIG1       -0.0349
     35 C          -8.2978    9.6239    0.3869 C.ar    1  LIG1       -0.0438
     36 C          -8.4331    8.3044    0.0245 C.ar    1  LIG1        0.0022
     37 N          -7.1860    7.7876   -0.1453 N.ar    1  LIG1       -0.3594
     38 H          -6.9219    6.8361   -0.3530 H       1  LIG1        0.1654
     39 H          -9.3159    7.7019   -0.1260 H       1  LIG1        0.0807
     40 H          -6.4623   10.8340    0.7586 H       1  LIG1        0.0639
     41 H          -9.1047   10.3102    0.5978 H       1  LIG1        0.0633
@<TRIPOS>BOND
     1    17    16    1
     2     6     1    1
     3     5     1   ar
     4     5     4   ar
     5     1     2   ar
     6    32    30    1
     7    16    12    1
     8    16    18    1
     9    31    30    1
    10    38    37    1
    11    12    11   ar
    12    12    13   ar
    13    21    20    1
    14    20    19    3
    15    19    13    1
    16    11     4    1
    17    11    15   ar
    18    13    14   ar
    19     4     3   ar
    20    15    14   ar
    21    14    23    1
    22    29    22    1
    23    28    24    1
    24    37    36   ar
    25    37    33   ar
    26    23    22   ar
    27    23    24   ar
    28    39    36    1
    29    22    27   ar
    30    24    25   ar
    31    25    30    1
    32    25    26   ar
    33    27    26   ar
    34    26    33    1
    35    36    35   ar
    36     2     3   ar
    37     2     7    1
    38    33    34   ar
    39     3     8    1
    40    35    34   ar
    41    35    41    1
    42    34    40    1
    43    10     8    1
    44     9     8    1
