@<TRIPOS>MOLECULE
mol_data/opt/cam/geoms/mol2/12ai4af-6dh-6ah-.out
 46 49 0 0 0
SMALL
GASTEIGER

@<TRIPOS>ATOM
      1 C           0.5481    1.6044   -0.6922 C.ar    1  LIG1        0.0928
      2 C           1.6634    1.5886    0.0732 C.ar    1  LIG1       -0.0204
      3 C           1.9341    2.9467    0.4373 C.ar    1  LIG1       -0.0047
      4 C           0.9478    3.6921   -0.1512 C.ar    1  LIG1        0.1378
      5 O           0.0976    2.8701   -0.8384 O.2     1  LIG1       -0.4627
      6 H          -0.0249    0.8364   -1.1871 H       1  LIG1        0.1029
      7 H           2.2356    0.7194    0.3637 H       1  LIG1        0.0652
      8 C           3.0586    3.4005    1.3156 C.3     1  LIG1       -0.0361
      9 H           2.7407    4.1867    2.0045 H       1  LIG1        0.0279
     10 H           3.9024    3.7891    0.7351 H       1  LIG1        0.0279
     11 H           3.4333    2.5659    1.9121 H       1  LIG1        0.0279
     12 C           1.5546    6.0939    0.1572 C.ar    1  LIG1       -0.0503
     13 C           1.1913    7.4315    0.1464 C.ar    1  LIG1       -0.0498
     14 C           0.6130    5.1124   -0.1687 C.ar    1  LIG1        0.0210
     15 C          -0.0985    7.8427   -0.1856 C.ar    1  LIG1        0.0264
     16 H           1.9223    8.1857    0.4205 H       1  LIG1        0.0625
     17 C          -0.6757    5.5136   -0.5311 C.ar    1  LIG1       -0.0089
     18 C          -1.0266    6.8558   -0.5473 C.ar    1  LIG1        0.1253
     19 H          -1.4078    4.7638   -0.8120 H       1  LIG1        0.0661
     20 H           2.5710    5.8191    0.4054 H       1  LIG1        0.0625
     21 O          -2.2585    7.2718   -0.9383 O.3     1  LIG1       -0.5061
     22 H          -2.8727    6.5283   -0.9299 H       1  LIG1        0.2922
     23 C          -1.5140    9.8088    0.5779 C.ar    1  LIG1        0.1486
     24 C          -0.4548    9.2808   -0.1776 C.ar    1  LIG1        0.0232
     25 C           0.2863   10.1911   -0.9182 C.ar    1  LIG1       -0.0284
     26 C          -0.0136   11.5526   -0.9051 C.ar    1  LIG1        0.0516
     27 C          -1.0870   11.9778   -0.0866 C.ar    1  LIG1        0.0945
     28 N          -1.8074   11.1072    0.6108 N.ar    1  LIG1       -0.2338
     29 H           1.0987    9.8289   -1.5416 H       1  LIG1        0.0643
     30 N          -2.9750    8.2861    2.0945 N.1     1  LIG1       -0.1893
     31 C          -2.3324    8.9630    1.4123 C.1     1  LIG1        0.1197
     32 N           0.7332   12.4387   -1.6616 N.pl3   1  LIG1       -0.3563
     33 H           1.2395   12.0243   -2.4303 H       1  LIG1        0.1424
     34 H           0.2671   13.2987   -1.9122 H       1  LIG1        0.1424
     35 C          -2.8635   13.7178    0.0354 C.ar    1  LIG1        0.0369
     36 C          -1.5023   13.4005    0.0210 C.ar    1  LIG1        0.0220
     37 C          -0.5865   14.4432    0.1470 C.ar    1  LIG1       -0.0289
     38 C          -1.0480   15.7539    0.2781 C.ar    1  LIG1        0.0435
     39 C          -2.4337   15.9490    0.2594 C.ar    1  LIG1        0.0482
     40 N          -3.3148   14.9631    0.1443 N.ar    1  LIG1       -0.2608
     41 H           0.4799   14.2400    0.1785 H       1  LIG1        0.0643
     42 H          -2.8365   16.9570    0.3520 H       1  LIG1        0.0848
     43 H          -3.6006   12.9251   -0.0410 H       1  LIG1        0.0836
     44 N          -0.1790   16.8166    0.4762 N.pl3   1  LIG1       -0.3568
     45 H           0.7658   16.6874    0.1485 H       1  LIG1        0.1424
     46 H          -0.5471   17.7316    0.2648 H       1  LIG1        0.1424
@<TRIPOS>BOND
     1    33    32    1
     2    34    32    1
     3    32    26    1
     4    29    25    1
     5     6     1    1
     6    21    22    1
     7    21    18    1
     8    25    26   ar
     9    25    24   ar
    10    26    27   ar
    11     5     1   ar
    12     5     4   ar
    13    19    17    1
    14     1     2   ar
    15    18    17   ar
    16    18    15   ar
    17    17    14   ar
    18    15    24    1
    19    15    13   ar
    20    24    23   ar
    21    14     4    1
    22    14    12   ar
    23     4     3   ar
    24    27    36    1
    25    27    28   ar
    26    43    35    1
    27    36    35   ar
    28    36    37   ar
    29    35    40   ar
    30     2     7    1
    31     2     3   ar
    32    40    39   ar
    33    13    12   ar
    34    13    16    1
    35    37    41    1
    36    37    38   ar
    37    45    44    1
    38    12    20    1
    39    39    38   ar
    40    39    42    1
    41    46    44    1
    42    38    44    1
    43     3     8    1
    44    23    28   ar
    45    23    31    1
    46    10     8    1
    47     8    11    1
    48     8     9    1
    49    31    30    3
