@<TRIPOS>MOLECULE
mol_data/opt/cam/geoms/mol2/12ai12ai-.out
 22 23 0 0 0
SMALL
GASTEIGER

@<TRIPOS>ATOM
      1 C           0.1343    1.8150   -0.0982 C.ar    1  LIG1        0.0930
      2 C           1.4849    1.7575   -0.0625 C.ar    1  LIG1       -0.0203
      3 C           1.9581    3.1110   -0.0163 C.ar    1  LIG1       -0.0017
      4 C           0.8326    3.8853   -0.0284 C.ar    1  LIG1        0.1725
      5 O          -0.2849    3.1029   -0.0783 O.2     1  LIG1       -0.4596
      6 H          -0.6413    1.0669   -0.1379 H       1  LIG1        0.1029
      7 H           2.0918    0.8636   -0.0676 H       1  LIG1        0.0652
      8 C           3.3897    3.5420    0.0336 C.3     1  LIG1       -0.0360
      9 H           3.4773    4.6269    0.0625 H       1  LIG1        0.0279
     10 H           3.9370    3.1779   -0.8416 H       1  LIG1        0.0279
     11 H           3.8885    3.1349    0.9188 H       1  LIG1        0.0279
     12 C           0.5732    5.3055   -0.0008 C.ar    1  LIG1        0.1702
     13 C          -0.5851    6.0194   -0.0152 C.ar    1  LIG1       -0.0099
     14 C          -0.2155    7.4037    0.0288 C.ar    1  LIG1       -0.0120
     15 C           1.1394    7.4147    0.0664 C.ar    1  LIG1        0.0956
     16 O           1.6390    6.1474    0.0492 O.2     1  LIG1       -0.4596
     17 H           1.8692    8.2078    0.1059 H       1  LIG1        0.1032
     18 H          -1.5818    5.6065   -0.0528 H       1  LIG1        0.0659
     19 C          -1.1324    8.5847    0.0325 C.3     1  LIG1       -0.0367
     20 H          -1.8050    8.5624    0.8951 H       1  LIG1        0.0278
     21 H          -1.7565    8.6055   -0.8659 H       1  LIG1        0.0278
     22 H          -0.5708    9.5207    0.0709 H       1  LIG1        0.0278
@<TRIPOS>BOND
     1    21    19    1
     2    10     8    1
     3     6     1    1
     4     1     5   ar
     5     1     2   ar
     6     5     4   ar
     7     7     2    1
     8     2     3   ar
     9    18    13    1
    10     4     3   ar
    11     4    12    1
    12     3     8    1
    13    13    12   ar
    14    13    14   ar
    15    12    16   ar
    16    14    19    1
    17    14    15   ar
    18    19    22    1
    19    19    20    1
    20     8     9    1
    21     8    11    1
    22    16    15   ar
    23    15    17    1
