@<TRIPOS>MOLECULE
mol_data/opt/cam/geoms/mol2/12ai12ai.out
 22 23 0 0 0
SMALL
GASTEIGER

@<TRIPOS>ATOM
      1 C           0.1720    1.7146   -0.1769 C.ar    1  LIG1        0.0930
      2 C           1.5216    1.7510   -0.0759 C.ar    1  LIG1       -0.0203
      3 C           1.8891    3.1313    0.0242 C.ar    1  LIG1       -0.0017
      4 C           0.7122    3.8241   -0.0329 C.ar    1  LIG1        0.1725
      5 O          -0.3398    2.9671   -0.1545 O.2     1  LIG1       -0.4596
      6 H          -0.5449    0.9137   -0.2628 H       1  LIG1        0.1029
      7 H           2.1905    0.9027   -0.0612 H       1  LIG1        0.0652
      8 C           3.2684    3.6882    0.1735 C.3     1  LIG1       -0.0360
      9 H           3.2615    4.6026    0.7727 H       1  LIG1        0.0279
     10 H           3.7174    3.9326   -0.7955 H       1  LIG1        0.0279
     11 H           3.9265    2.9677    0.6648 H       1  LIG1        0.0279
     12 C           0.4120    5.2360    0.0063 C.ar    1  LIG1        0.1702
     13 C           1.1637    6.3500   -0.2230 C.ar    1  LIG1       -0.0099
     14 C           0.3087    7.4782    0.0013 C.ar    1  LIG1       -0.0120
     15 C          -0.8945    6.9527    0.3405 C.ar    1  LIG1        0.0956
     16 O          -0.8518    5.5949    0.3525 O.2     1  LIG1       -0.4596
     17 H          -1.8456    7.3966    0.5896 H       1  LIG1        0.1032
     18 H           2.1951    6.3720   -0.5411 H       1  LIG1        0.0659
     19 C           0.6658    8.9245   -0.1253 C.3     1  LIG1       -0.0367
     20 H          -0.1931    9.5629    0.0937 H       1  LIG1        0.0278
     21 H           1.0095    9.1628   -1.1363 H       1  LIG1        0.0278
     22 H           1.4697    9.1984    0.5647 H       1  LIG1        0.0278
@<TRIPOS>BOND
     1    21    19    1
     2    10     8    1
     3    18    13    1
     4     6     1    1
     5    13    14   ar
     6    13    12   ar
     7     1     5   ar
     8     1     2   ar
     9     5     4   ar
    10    19    14    1
    11    19    20    1
    12    19    22    1
    13     2     7    1
    14     2     3   ar
    15     4    12    1
    16     4     3   ar
    17    14    15   ar
    18    12    16   ar
    19     3     8    1
    20     8    11    1
    21     8     9    1
    22    15    16   ar
    23    15    17    1
