@<TRIPOS>MOLECULE
mol_data/opt/cam/geoms/mol2/12ai12ai12ai-12ai.out
 42 45 0 0 0
SMALL
GASTEIGER

@<TRIPOS>ATOM
      1 C           0.3114    1.6340    0.2117 C.ar    1  LIG1        0.0930
      2 C           1.6357    1.6960   -0.0646 C.ar    1  LIG1       -0.0203
      3 C           1.9729    3.0838   -0.1548 C.ar    1  LIG1       -0.0017
      4 C           0.8056    3.7556    0.0849 C.ar    1  LIG1        0.1726
      5 O          -0.2121    2.8781    0.3078 O.2     1  LIG1       -0.4596
      6 H          -0.3791    0.8190    0.3590 H       1  LIG1        0.1029
      7 H           2.3060    0.8599   -0.2014 H       1  LIG1        0.0652
      8 C           3.3148    3.6684   -0.4585 C.3     1  LIG1       -0.0360
      9 H           3.8502    3.9574    0.4525 H       1  LIG1        0.0279
     10 H           3.2251    4.5611   -1.0837 H       1  LIG1        0.0279
     11 H           3.9400    2.9473   -0.9896 H       1  LIG1        0.0279
     12 C           0.4898    5.1605    0.1419 C.ar    1  LIG1        0.1712
     13 C           1.2577    6.2831    0.2465 C.ar    1  LIG1       -0.0091
     14 C           0.3710    7.4026    0.2357 C.ar    1  LIG1       -0.0009
     15 C          -0.8844    6.8693    0.1285 C.ar    1  LIG1        0.1736
     16 O          -0.8206    5.5077    0.0687 O.2     1  LIG1       -0.4484
     17 H           2.3318    6.3180    0.3494 H       1  LIG1        0.0659
     18 C           0.7666    8.8419    0.3296 C.3     1  LIG1       -0.0360
     19 H          -0.0865    9.4724    0.5775 H       1  LIG1        0.0279
     20 H           1.1832    9.1995   -0.6179 H       1  LIG1        0.0279
     21 H           1.5344    8.9813    1.0956 H       1  LIG1        0.0279
     22 C          -2.2145    7.4151    0.0758 C.ar    1  LIG1        0.1713
     23 C          -3.4421    6.8274    0.0406 C.ar    1  LIG1       -0.0091
     24 C          -4.4087    7.8779   -0.0070 C.ar    1  LIG1       -0.0009
     25 C          -3.6878    9.0401    0.0032 C.ar    1  LIG1        0.1736
     26 O          -2.3482    8.7675    0.0521 O.2     1  LIG1       -0.4484
     27 H          -3.6337    5.7649    0.0490 H       1  LIG1        0.0659
     28 C          -5.8932    7.7028   -0.0574 C.3     1  LIG1       -0.0360
     29 H          -6.2529    7.1809    0.8349 H       1  LIG1        0.0279
     30 H          -6.1825    7.0994   -0.9232 H       1  LIG1        0.0279
     31 H          -6.4059    8.6612   -0.1206 H       1  LIG1        0.0279
     32 C          -4.0165   10.4429   -0.0317 C.ar    1  LIG1        0.1702
     33 C          -3.2412   11.5621   -0.0605 C.ar    1  LIG1       -0.0099
     34 C          -4.1354   12.6818   -0.0877 C.ar    1  LIG1       -0.0120
     35 C          -5.3818   12.1493   -0.0742 C.ar    1  LIG1        0.0956
     36 O          -5.3312   10.7884   -0.0392 O.2     1  LIG1       -0.4596
     37 H          -6.3688   12.5836   -0.0850 H       1  LIG1        0.1032
     38 H          -2.1619   11.5860   -0.0657 H       1  LIG1        0.0659
     39 C          -3.7687   14.1306   -0.1248 C.3     1  LIG1       -0.0367
     40 H          -4.6591   14.7631   -0.1410 H       1  LIG1        0.0278
     41 H          -3.1742   14.3670   -1.0123 H       1  LIG1        0.0278
     42 H          -3.1743   14.4122    0.7495 H       1  LIG1        0.0278
@<TRIPOS>BOND
     1    10     8    1
     2    41    39    1
     3    11     8    1
     4    30    28    1
     5    20    18    1
     6     8     3    1
     7     8     9    1
     8     7     2    1
     9     3     2   ar
    10     3     4   ar
    11    40    39    1
    12    39    34    1
    13    39    42    1
    14    31    28    1
    15    34    35   ar
    16    34    33   ar
    17    37    35    1
    18    35    36   ar
    19    38    33    1
    20     2     1   ar
    21    33    32   ar
    22    28    24    1
    23    28    29    1
    24    36    32   ar
    25    32    25    1
    26    24    25   ar
    27    24    23   ar
    28    25    26   ar
    29    23    27    1
    30    23    22   ar
    31    26    22   ar
    32    16    15   ar
    33    16    12   ar
    34    22    15    1
    35     4    12    1
    36     4     5   ar
    37    15    14   ar
    38    12    13   ar
    39     1     5   ar
    40     1     6    1
    41    14    13   ar
    42    14    18    1
    43    13    17    1
    44    18    19    1
    45    18    21    1
