@<TRIPOS>MOLECULE
mol_data/opt/cam/geoms/mol2/12ai12ai12ai-12ai-.out
 42 45 0 0 0
SMALL
GASTEIGER

@<TRIPOS>ATOM
      1 C           0.2265    1.6069    0.0075 C.ar    1  LIG1        0.0930
      2 C           1.5809    1.6299    0.0119 C.ar    1  LIG1       -0.0203
      3 C           1.9702    3.0060    0.0104 C.ar    1  LIG1       -0.0017
      4 C           0.7982    3.7130    0.0049 C.ar    1  LIG1        0.1726
      5 O          -0.2681    2.8668    0.0032 O.2     1  LIG1       -0.4596
      6 H          -0.5035    0.8135    0.0070 H       1  LIG1        0.1029
      7 H           2.2410    0.7747    0.0160 H       1  LIG1        0.0652
      8 C           3.3624    3.5516    0.0141 C.3     1  LIG1       -0.0360
      9 H           3.5470    4.1810    0.8909 H       1  LIG1        0.0279
     10 H           3.5594    4.1625   -0.8731 H       1  LIG1        0.0279
     11 H           4.0943    2.7417    0.0276 H       1  LIG1        0.0279
     12 C           0.5213    5.1262    0.0007 C.ar    1  LIG1        0.1712
     13 C           1.3225    6.2310   -0.0050 C.ar    1  LIG1       -0.0091
     14 C           0.4646    7.3730   -0.0063 C.ar    1  LIG1       -0.0009
     15 C          -0.8076    6.8697   -0.0015 C.ar    1  LIG1        0.1736
     16 O          -0.7818    5.5050    0.0029 O.2     1  LIG1       -0.4484
     17 H           2.4016    6.2418   -0.0085 H       1  LIG1        0.0659
     18 C           0.9022    8.8036   -0.0122 C.3     1  LIG1       -0.0360
     19 H           0.0510    9.4828   -0.0129 H       1  LIG1        0.0279
     20 H           1.5125    9.0186   -0.8951 H       1  LIG1        0.0279
     21 H           1.5161    9.0248    0.8665 H       1  LIG1        0.0279
     22 C          -2.1240    7.4493   -0.0002 C.ar    1  LIG1        0.1713
     23 C          -3.3707    6.8965    0.0039 C.ar    1  LIG1       -0.0091
     24 C          -4.3025    7.9749    0.0025 C.ar    1  LIG1       -0.0009
     25 C          -3.5461    9.1161   -0.0022 C.ar    1  LIG1        0.1736
     26 O          -2.2193    8.8034   -0.0038 O.2     1  LIG1       -0.4484
     27 H          -3.5950    5.8406    0.0072 H       1  LIG1        0.0659
     28 C          -5.7947    7.8771    0.0053 C.3     1  LIG1       -0.0360
     29 H          -6.1125    6.8330    0.0007 H       1  LIG1        0.0279
     30 H          -6.2317    8.3625   -0.8734 H       1  LIG1        0.0279
     31 H          -6.2280    8.3534    0.8909 H       1  LIG1        0.0279
     32 C          -3.8888   10.5143   -0.0054 C.ar    1  LIG1        0.1702
     33 C          -5.0807   11.1793    0.0001 C.ar    1  LIG1       -0.0099
     34 C          -4.7706   12.5781   -0.0081 C.ar    1  LIG1       -0.0120
     35 C          -3.4163   12.6464   -0.0177 C.ar    1  LIG1        0.0956
     36 O          -2.8628   11.4045   -0.0162 O.2     1  LIG1       -0.4596
     37 H          -2.7220   13.4718   -0.0259 H       1  LIG1        0.1032
     38 H          -6.0641   10.7351    0.0094 H       1  LIG1        0.0659
     39 C          -5.7373   13.7184   -0.0062 C.3     1  LIG1       -0.0367
     40 H          -6.3792   13.6946    0.8796 H       1  LIG1        0.0278
     41 H          -6.3912   13.6874   -0.8829 H       1  LIG1        0.0278
     42 H          -5.2151   14.6778   -0.0136 H       1  LIG1        0.0278
@<TRIPOS>BOND
     1    20    18    1
     2    41    39    1
     3    30    28    1
     4    10     8    1
     5    37    35    1
     6    35    36   ar
     7    35    34   ar
     8    36    32   ar
     9    42    39    1
    10    19    18    1
    11    18    14    1
    12    18    21    1
    13    17    13    1
    14    34    39    1
    15    34    33   ar
    16    14    13   ar
    17    14    15   ar
    18    39    40    1
    19    32    25    1
    20    32    33   ar
    21    13    12   ar
    22    26    25   ar
    23    26    22   ar
    24    25    24   ar
    25    15    22    1
    26    15    16   ar
    27    22    23   ar
    28    33    38    1
    29    12    16   ar
    30    12     4    1
    31    29    28    1
    32    24    23   ar
    33    24    28    1
    34     5     4   ar
    35     5     1   ar
    36    23    27    1
    37     4     3   ar
    38    28    31    1
    39     6     1    1
    40     1     2   ar
    41     3     2   ar
    42     3     8    1
    43     2     7    1
    44     8    11    1
    45     8     9    1
