@<TRIPOS>MOLECULE
mol_data/opt/cam/geoms/mol2/12ai12ai-12ai.out
 32 34 0 0 0
SMALL
GASTEIGER

@<TRIPOS>ATOM
      1 C           0.1221    1.7709   -0.1556 C.ar    1  LIG1        0.0930
      2 C           1.4716    1.7259   -0.0739 C.ar    1  LIG1       -0.0203
      3 C           1.9299    3.0826   -0.0036 C.ar    1  LIG1       -0.0017
      4 C           0.7975    3.8469   -0.0527 C.ar    1  LIG1        0.1726
      5 O          -0.3099    3.0544   -0.1446 O.2     1  LIG1       -0.4596
      6 H          -0.6443    1.0154   -0.2231 H       1  LIG1        0.1029
      7 H           2.0867    0.8379   -0.0593 H       1  LIG1        0.0652
      8 C           3.3537    3.5299    0.0960 C.3     1  LIG1       -0.0360
      9 H           3.4218    4.5747    0.3969 H       1  LIG1        0.0279
     10 H           3.8694    3.4238   -0.8643 H       1  LIG1        0.0279
     11 H           3.8982    2.9238    0.8254 H       1  LIG1        0.0279
     12 C           0.5293    5.2625   -0.0230 C.ar    1  LIG1        0.1712
     13 C          -0.6315    5.9724    0.0007 C.ar    1  LIG1       -0.0091
     14 C          -0.2768    7.3565    0.0232 C.ar    1  LIG1       -0.0009
     15 C           1.0901    7.3841    0.0121 C.ar    1  LIG1        0.1736
     16 O           1.5903    6.1111   -0.0176 O.2     1  LIG1       -0.4484
     17 H          -1.6274    5.5559    0.0031 H       1  LIG1        0.0659
     18 C          -1.2316    8.5074    0.0513 C.3     1  LIG1       -0.0360
     19 H          -1.8583    8.4702    0.9479 H       1  LIG1        0.0279
     20 H          -1.9020    8.4758   -0.8131 H       1  LIG1        0.0279
     21 H          -0.7064    9.4609    0.0427 H       1  LIG1        0.0279
     22 C           2.0884    8.4239    0.0180 C.ar    1  LIG1        0.1702
     23 C           3.4484    8.3841   -0.0386 C.ar    1  LIG1       -0.0099
     24 C           3.9021    9.7430    0.0036 C.ar    1  LIG1       -0.0120
     25 C           2.7783   10.4969    0.0816 C.ar    1  LIG1        0.0956
     26 O           1.6641    9.7131    0.0924 O.2     1  LIG1       -0.4596
     27 H           2.6065   11.5602    0.1350 H       1  LIG1        0.1032
     28 H           4.0545    7.4934   -0.1065 H       1  LIG1        0.0659
     29 C           5.3168   10.2251   -0.0321 C.3     1  LIG1       -0.0367
     30 H           5.3637   11.3154    0.0123 H       1  LIG1        0.0278
     31 H           5.8220    9.9054   -0.9484 H       1  LIG1        0.0278
     32 H           5.8918    9.8308    0.8110 H       1  LIG1        0.0278
@<TRIPOS>BOND
     1    31    29    1
     2    10     8    1
     3    20    18    1
     4     6     1    1
     5     1     5   ar
     6     1     2   ar
     7     5     4   ar
     8    28    23    1
     9     2     7    1
    10     2     3   ar
    11     4    12    1
    12     4     3   ar
    13    23    24   ar
    14    23    22   ar
    15    29    24    1
    16    29    30    1
    17    29    32    1
    18    12    16   ar
    19    12    13   ar
    20    16    15   ar
    21     3     8    1
    22    13    17    1
    23    13    14   ar
    24    24    25   ar
    25    15    22    1
    26    15    14   ar
    27    22    26   ar
    28    14    18    1
    29    21    18    1
    30    18    19    1
    31    25    26   ar
    32    25    27    1
    33     8     9    1
    34     8    11    1
