@<TRIPOS>MOLECULE
mol_data/opt/cam/geoms/mol2/12ai12ai12ai.out
 32 34 0 0 0
SMALL
GASTEIGER

@<TRIPOS>ATOM
      1 C           0.4053    1.6013   -0.4180 C.ar    1  LIG1        0.0930
      2 C           1.7215    1.6918   -0.1120 C.ar    1  LIG1       -0.0203
      3 C           2.0082    3.0830    0.0625 C.ar    1  LIG1       -0.0017
      4 C           0.8230    3.7274   -0.1632 C.ar    1  LIG1        0.1726
      5 O          -0.1588    2.8302   -0.4558 O.2     1  LIG1       -0.4596
      6 H          -0.2541    0.7732   -0.6234 H       1  LIG1        0.1029
      7 H           2.4175    0.8721   -0.0077 H       1  LIG1        0.0652
      8 C           3.3231    3.6937    0.4272 C.3     1  LIG1       -0.0360
      9 H           3.1886    4.5634    1.0761 H       1  LIG1        0.0279
     10 H           3.8791    4.0252   -0.4567 H       1  LIG1        0.0279
     11 H           3.9512    2.9732    0.9560 H       1  LIG1        0.0279
     12 C           0.4600    5.1228   -0.1512 C.ar    1  LIG1        0.1712
     13 C           1.1931    6.2729   -0.2059 C.ar    1  LIG1       -0.0091
     14 C           0.2715    7.3584   -0.1195 C.ar    1  LIG1       -0.0009
     15 C          -0.9656    6.7807   -0.0338 C.ar    1  LIG1        0.1736
     16 O          -0.8592    5.4230   -0.0480 O.2     1  LIG1       -0.4484
     17 H           2.2651    6.3469   -0.3093 H       1  LIG1        0.0659
     18 C           0.5972    8.8172   -0.1234 C.3     1  LIG1       -0.0360
     19 H          -0.0930    9.3765    0.5138 H       1  LIG1        0.0279
     20 H           0.5374    9.2460   -1.1297 H       1  LIG1        0.0279
     21 H           1.6111    8.9888    0.2450 H       1  LIG1        0.0279
     22 C          -2.2926    7.3375    0.0584 C.ar    1  LIG1        0.1702
     23 C          -2.7993    8.5749   -0.2119 C.ar    1  LIG1       -0.0099
     24 C          -4.1954    8.5271    0.1062 C.ar    1  LIG1       -0.0120
     25 C          -4.4209    7.2607    0.5363 C.ar    1  LIG1        0.0956
     26 O          -3.2795    6.5250    0.5177 O.2     1  LIG1       -0.4596
     27 H          -5.3072    6.7468    0.8740 H       1  LIG1        0.1032
     28 H          -2.2557    9.4156   -0.6159 H       1  LIG1        0.0659
     29 C          -5.1919    9.6344   -0.0220 C.3     1  LIG1       -0.0367
     30 H          -6.1880    9.3047    0.2815 H       1  LIG1        0.0278
     31 H          -5.2588    9.9922   -1.0538 H       1  LIG1        0.0278
     32 H          -4.9191   10.4904    0.6025 H       1  LIG1        0.0278
@<TRIPOS>BOND
     1    20    18    1
     2    31    29    1
     3     6     1    1
     4    28    23    1
     5    10     8    1
     6     5     1   ar
     7     5     4   ar
     8     1     2   ar
     9    17    13    1
    10    23    22   ar
    11    23    24   ar
    12    13    12   ar
    13    13    14   ar
    14     4    12    1
    15     4     3   ar
    16    12    16   ar
    17    18    14    1
    18    18    21    1
    19    18    19    1
    20    14    15   ar
    21     2     7    1
    22     2     3   ar
    23    16    15   ar
    24    15    22    1
    25    29    24    1
    26    29    30    1
    27    29    32    1
    28    22    26   ar
    29     3     8    1
    30    24    25   ar
    31     8    11    1
    32     8     9    1
    33    26    25   ar
    34    25    27    1
