@<TRIPOS>MOLECULE
mol_data/opt/cam/geoms/mol2/12ai12ai12ai12ai-.out
 42 45 0 0 0
SMALL
GASTEIGER

@<TRIPOS>ATOM
      1 C           0.5730    1.5797   -0.0443 C.ar    1  LIG1        0.0930
      2 C           1.9043    1.7235    0.1577 C.ar    1  LIG1       -0.0203
      3 C           2.1685    3.1299    0.1731 C.ar    1  LIG1       -0.0017
      4 C           0.9550    3.7277   -0.0311 C.ar    1  LIG1        0.1726
      5 O          -0.0224    2.7888   -0.1629 O.2     1  LIG1       -0.4596
      6 H          -0.0783    0.7238   -0.1207 H       1  LIG1        0.1029
      7 H           2.6257    0.9307    0.2928 H       1  LIG1        0.0652
      8 C           3.4899    3.7971    0.3816 C.3     1  LIG1       -0.0360
      9 H           3.3809    4.7184    0.9604 H       1  LIG1        0.0279
     10 H           3.9696    4.0598   -0.5678 H       1  LIG1        0.0279
     11 H           4.1747    3.1396    0.9218 H       1  LIG1        0.0279
     12 C           0.5601    5.1105   -0.1273 C.ar    1  LIG1        0.1712
     13 C           1.2612    6.2641   -0.3340 C.ar    1  LIG1       -0.0091
     14 C           0.3190    7.3336   -0.3147 C.ar    1  LIG1       -0.0009
     15 C          -0.8975    6.7442   -0.0964 C.ar    1  LIG1        0.1736
     16 O          -0.7584    5.3946    0.0201 O.2     1  LIG1       -0.4484
     17 H           2.3221    6.3470   -0.5149 H       1  LIG1        0.0659
     18 C           0.6034    8.7874   -0.5146 C.3     1  LIG1       -0.0360
     19 H           0.6389    9.3304    0.4362 H       1  LIG1        0.0279
     20 H          -0.1648    9.2596   -1.1335 H       1  LIG1        0.0279
     21 H           1.5670    8.9286   -1.0085 H       1  LIG1        0.0279
     22 C          -2.2265    7.2826    0.0240 C.ar    1  LIG1        0.1713
     23 C          -2.7060    8.5490    0.1934 C.ar    1  LIG1       -0.0091
     24 C          -4.1312    8.4580    0.2267 C.ar    1  LIG1       -0.0009
     25 C          -4.4132    7.1277    0.0794 C.ar    1  LIG1        0.1736
     26 O          -3.2617    6.4074   -0.0467 O.2     1  LIG1       -0.4484
     27 H          -2.1190    9.4478    0.3064 H       1  LIG1        0.0659
     28 C          -5.0817    9.6002    0.3981 C.3     1  LIG1       -0.0360
     29 H          -6.1135    9.2551    0.4395 H       1  LIG1        0.0279
     30 H          -4.9925   10.3098   -0.4306 H       1  LIG1        0.0279
     31 H          -4.8663   10.1500    1.3195 H       1  LIG1        0.0279
     32 C          -5.6209    6.3423    0.0328 C.ar    1  LIG1        0.1702
     33 C          -5.8292    5.0039   -0.1025 C.ar    1  LIG1       -0.0099
     34 C          -7.2483    4.8054   -0.0804 C.ar    1  LIG1       -0.0120
     35 C          -7.7845    6.0419    0.0665 C.ar    1  LIG1        0.0956
     36 O          -6.8108    6.9918    0.1371 O.2     1  LIG1       -0.4596
     37 H          -8.7990    6.4016    0.1350 H       1  LIG1        0.1032
     38 H          -5.0603    4.2530   -0.2046 H       1  LIG1        0.0659
     39 C          -7.9815    3.5076   -0.1955 C.3     1  LIG1       -0.0367
     40 H          -7.7012    2.8210    0.6089 H       1  LIG1        0.0278
     41 H          -7.7572    3.0078   -1.1425 H       1  LIG1        0.0278
     42 H          -9.0621    3.6586   -0.1449 H       1  LIG1        0.0278
@<TRIPOS>BOND
     1    41    39    1
     2    20    18    1
     3    21    18    1
     4    10     8    1
     5    17    13    1
     6    18    14    1
     7    18    19    1
     8    30    28    1
     9    13    14   ar
    10    13    12   ar
    11    14    15   ar
    12    38    33    1
    13    39    42    1
    14    39    34    1
    15    39    40    1
    16     5     1   ar
    17     5     4   ar
    18    12     4    1
    19    12    16   ar
    20     6     1    1
    21    33    34   ar
    22    33    32   ar
    23    15    16   ar
    24    15    22    1
    25    34    35   ar
    26    26    22   ar
    27    26    25   ar
    28     1     2   ar
    29     4     3   ar
    30    22    23   ar
    31    32    25    1
    32    32    36   ar
    33    35    37    1
    34    35    36   ar
    35    25    24   ar
    36     2     3   ar
    37     2     7    1
    38     3     8    1
    39    23    24   ar
    40    23    27    1
    41    24    28    1
    42     8    11    1
    43     8     9    1
    44    28    29    1
    45    28    31    1
