@<TRIPOS>MOLECULE
mol_data/opt/cam/geoms/mol2/12ai12ai-12ai12ai.out
 42 45 0 0 0
SMALL
GASTEIGER

@<TRIPOS>ATOM
      1 C          -6.6143   -0.4923   -0.0218 C.ar    1  LIG1        0.0930
      2 C          -6.4269    0.8462   -0.0721 C.ar    1  LIG1       -0.0203
      3 C          -5.0104    1.0683   -0.0794 C.ar    1  LIG1       -0.0017
      4 C          -4.4512   -0.1783   -0.0298 C.ar    1  LIG1        0.1726
      5 O          -5.4232   -1.1361    0.0048 O.2     1  LIG1       -0.4596
      6 H          -7.4907   -1.1202   -0.0009 H       1  LIG1        0.1029
      7 H          -7.1968    1.6035   -0.1042 H       1  LIG1        0.0652
      8 C          -4.3274    2.3980   -0.1276 C.3     1  LIG1       -0.0360
      9 H          -3.2571    2.2890   -0.2966 H       1  LIG1        0.0279
     10 H          -4.4669    2.9460    0.8101 H       1  LIG1        0.0279
     11 H          -4.7416    3.0168   -0.9289 H       1  LIG1        0.0279
     12 C          -3.1026   -0.6861   -0.0112 C.ar    1  LIG1        0.1712
     13 C          -2.6051   -1.9532   -0.0118 C.ar    1  LIG1       -0.0091
     14 C          -1.1809   -1.8463    0.0136 C.ar    1  LIG1       -0.0009
     15 C          -0.9164   -0.5042    0.0271 C.ar    1  LIG1        0.1736
     16 O          -2.0827    0.2111    0.0135 O.2     1  LIG1       -0.4484
     17 H          -3.1888   -2.8612   -0.0285 H       1  LIG1        0.0659
     18 C          -0.2135   -2.9874    0.0246 C.3     1  LIG1       -0.0360
     19 H          -0.3123   -3.5874   -0.8855 H       1  LIG1        0.0279
     20 H          -0.4109   -3.6513    0.8717 H       1  LIG1        0.0279
     21 H           0.8165   -2.6408    0.0929 H       1  LIG1        0.0279
     22 C           0.2828    0.2896    0.0571 C.ar    1  LIG1        0.1713
     23 C           0.4974    1.6347    0.1256 C.ar    1  LIG1       -0.0091
     24 C           1.9104    1.8298    0.1361 C.ar    1  LIG1       -0.0009
     25 C           2.4560    0.5773    0.0660 C.ar    1  LIG1        0.1736
     26 O           1.4708   -0.3652    0.0172 O.2     1  LIG1       -0.4484
     27 H          -0.2638    2.3985    0.1783 H       1  LIG1        0.0659
     28 C           2.6376    3.1332    0.2188 C.3     1  LIG1       -0.0360
     29 H           2.9387    3.4947   -0.7705 H       1  LIG1        0.0279
     30 H           3.5426    3.0430    0.8256 H       1  LIG1        0.0279
     31 H           2.0048    3.9010    0.6690 H       1  LIG1        0.0279
     32 C           3.8152    0.1005    0.0341 C.ar    1  LIG1        0.1702
     33 C           5.0115    0.7143   -0.1967 C.ar    1  LIG1       -0.0099
     34 C           6.0227   -0.2929   -0.0680 C.ar    1  LIG1       -0.0120
     35 C           5.3549   -1.4366    0.2232 C.ar    1  LIG1        0.0956
     36 O           4.0150   -1.2188    0.2920 O.2     1  LIG1       -0.4596
     37 H           5.6773   -2.4506    0.4002 H       1  LIG1        0.1032
     38 H           5.1607    1.7521   -0.4531 H       1  LIG1        0.0659
     39 C           7.4985   -0.1191   -0.2318 C.3     1  LIG1       -0.0367
     40 H           8.0248   -1.0655   -0.0895 H       1  LIG1        0.0278
     41 H           7.8980    0.5973    0.4924 H       1  LIG1        0.0278
     42 H           7.7467    0.2542   -1.2299 H       1  LIG1        0.0278
@<TRIPOS>BOND
     1    42    39    1
     2    11     8    1
     3    19    18    1
     4    29    28    1
     5    38    33    1
     6     9     8    1
     7    39    40    1
     8    39    34    1
     9    39    41    1
    10    33    34   ar
    11    33    32   ar
    12     8     3    1
    13     8    10    1
    14     7     2    1
    15     3     2   ar
    16     3     4   ar
    17     2     1   ar
    18    34    35   ar
    19     4    12    1
    20     4     5   ar
    21    17    13    1
    22     1     6    1
    23     1     5   ar
    24    13    12   ar
    25    13    14   ar
    26    12    16   ar
    27    16    15   ar
    28    14    18    1
    29    14    15   ar
    30    26    22   ar
    31    26    25   ar
    32    18    21    1
    33    18    20    1
    34    15    22    1
    35    32    25    1
    36    32    36   ar
    37    22    23   ar
    38    25    24   ar
    39    23    24   ar
    40    23    27    1
    41    24    28    1
    42    28    31    1
    43    28    30    1
    44    35    36   ar
    45    35    37    1
