@<TRIPOS>MOLECULE
mol_data/opt/cam/geoms/mol2/12ai12ai12ai12ai.out
 42 45 0 0 0
SMALL
GASTEIGER

@<TRIPOS>ATOM
      1 C           0.8207    1.6448   -0.8314 C.ar    1  LIG1        0.0930
      2 C           2.0858    1.7556   -0.3606 C.ar    1  LIG1       -0.0203
      3 C           2.2760    3.1305   -0.0126 C.ar    1  LIG1       -0.0017
      4 C           1.0921    3.7465   -0.3135 C.ar    1  LIG1        0.1726
      5 O           0.2004    2.8466   -0.8122 O.2     1  LIG1       -0.4596
      6 H           0.2345    0.8175   -1.1982 H       1  LIG1        0.1029
      7 H           2.8076    0.9586   -0.2566 H       1  LIG1        0.0652
      8 C           3.5051    3.7519    0.5688 C.3     1  LIG1       -0.0360
      9 H           3.2500    4.5279    1.2958 H       1  LIG1        0.0279
     10 H           4.1324    4.2153   -0.2008 H       1  LIG1        0.0279
     11 H           4.1144    3.0017    1.0777 H       1  LIG1        0.0279
     12 C           0.6565    5.1161   -0.2031 C.ar    1  LIG1        0.1712
     13 C           1.3287    6.2931   -0.0363 C.ar    1  LIG1       -0.0091
     14 C           0.3484    7.3256    0.0366 C.ar    1  LIG1       -0.0009
     15 C          -0.8580    6.6941   -0.1070 C.ar    1  LIG1        0.1736
     16 O          -0.6785    5.3520   -0.2492 O.2     1  LIG1       -0.4484
     17 H           2.3995    6.4194    0.0161 H       1  LIG1        0.0659
     18 C           0.5942    8.7875    0.2283 C.3     1  LIG1       -0.0360
     19 H          -0.1602    9.2327    0.8830 H       1  LIG1        0.0279
     20 H           0.5692    9.3336   -0.7211 H       1  LIG1        0.0279
     21 H           1.5741    8.9593    0.6787 H       1  LIG1        0.0279
     22 C          -2.2099    7.1873   -0.1381 C.ar    1  LIG1        0.1713
     23 C          -2.7376    8.4377   -0.2940 C.ar    1  LIG1       -0.0091
     24 C          -4.1542    8.3055   -0.2011 C.ar    1  LIG1       -0.0009
     25 C          -4.3847    6.9704   -0.0082 C.ar    1  LIG1        0.1736
     26 O          -3.2088    6.2856    0.0351 O.2     1  LIG1       -0.4484
     27 H          -2.1879    9.3502   -0.4678 H       1  LIG1        0.0659
     28 C          -5.1679    9.4000   -0.2960 C.3     1  LIG1       -0.0360
     29 H          -6.0161    9.2103    0.3673 H       1  LIG1        0.0279
     30 H          -5.5621    9.5038   -1.3128 H       1  LIG1        0.0279
     31 H          -4.7288   10.3603   -0.0162 H       1  LIG1        0.0279
     32 C          -5.5986    6.2080    0.1454 C.ar    1  LIG1        0.1702
     33 C          -6.9050    6.4776   -0.1413 C.ar    1  LIG1       -0.0099
     34 C          -7.6613    5.3314    0.2669 C.ar    1  LIG1       -0.0120
     35 C          -6.7485    4.4582    0.7610 C.ar    1  LIG1        0.0956
     36 O          -5.4932    4.9723    0.6990 O.2     1  LIG1       -0.4596
     37 H          -6.8310    3.4655    1.1748 H       1  LIG1        0.1032
     38 H          -7.2865    7.3710   -0.6120 H       1  LIG1        0.0659
     39 C          -9.1397    5.1363    0.1589 C.3     1  LIG1       -0.0367
     40 H          -9.4361    4.1561    0.5392 H       1  LIG1        0.0278
     41 H          -9.4758    5.2066   -0.8800 H       1  LIG1        0.0278
     42 H          -9.6846    5.8943    0.7295 H       1  LIG1        0.0278
@<TRIPOS>BOND
     1    30    28    1
     2     6     1    1
     3    41    39    1
     4     1     5   ar
     5     1     2   ar
     6     5     4   ar
     7    20    18    1
     8    38    33    1
     9    27    23    1
    10     2     7    1
    11     2     3   ar
    12     4    12    1
    13     4     3   ar
    14    28    24    1
    15    28    31    1
    16    28    29    1
    17    23    24   ar
    18    23    22   ar
    19    16    12   ar
    20    16    15   ar
    21    12    13   ar
    22    24    25   ar
    23    10     8    1
    24    33    32   ar
    25    33    34   ar
    26    22    15    1
    27    22    26   ar
    28    15    14   ar
    29    13    17    1
    30    13    14   ar
    31     3     8    1
    32    25    26   ar
    33    25    32    1
    34    14    18    1
    35    32    36   ar
    36    39    34    1
    37    39    40    1
    38    39    42    1
    39    18    21    1
    40    18    19    1
    41    34    35   ar
    42     8    11    1
    43     8     9    1
    44    36    35   ar
    45    35    37    1
