@<TRIPOS>MOLECULE
mol_data/opt/cam/geoms/mol2/12ai12ai-12ai-12ai-.out
 42 45 0 0 0
SMALL
GASTEIGER

@<TRIPOS>ATOM
      1 C          -0.2487    1.7065   -0.0312 C.ar    1  LIG1        0.0930
      2 C           1.0914    1.5645    0.0848 C.ar    1  LIG1       -0.0203
      3 C           1.6513    2.8848    0.1043 C.ar    1  LIG1       -0.0017
      4 C           0.5804    3.7278   -0.0031 C.ar    1  LIG1        0.1726
      5 O          -0.5829    3.0179   -0.0864 O.2     1  LIG1       -0.4596
      6 H          -1.0684    1.0080   -0.0861 H       1  LIG1        0.1029
      7 H           1.6368    0.6341    0.1495 H       1  LIG1        0.0652
      8 C           3.1037    3.2253    0.2186 C.3     1  LIG1       -0.0360
      9 H           3.2710    4.3005    0.1759 H       1  LIG1        0.0279
     10 H           3.6752    2.7578   -0.5894 H       1  LIG1        0.0279
     11 H           3.5163    2.8537    1.1620 H       1  LIG1        0.0279
     12 C           0.4232    5.1591   -0.0472 C.ar    1  LIG1        0.1712
     13 C          -0.6709    5.9614   -0.1817 C.ar    1  LIG1       -0.0091
     14 C          -0.2025    7.3081   -0.1665 C.ar    1  LIG1       -0.0009
     15 C           1.1558    7.2236   -0.0164 C.ar    1  LIG1        0.1736
     16 O           1.5424    5.9180    0.0562 O.2     1  LIG1       -0.4484
     17 H          -1.6921    5.6284   -0.2893 H       1  LIG1        0.0659
     18 C          -1.0252    8.5495   -0.2960 C.3     1  LIG1       -0.0360
     19 H          -2.0022    8.3221   -0.7272 H       1  LIG1        0.0279
     20 H          -0.5354    9.2846   -0.9411 H       1  LIG1        0.0279
     21 H          -1.1972    9.0267    0.6749 H       1  LIG1        0.0279
     22 C           2.1937    8.2149    0.0728 C.ar    1  LIG1        0.1713
     23 C           2.1782    9.5703    0.2440 C.ar    1  LIG1       -0.0091
     24 C           3.5364   10.0042    0.2464 C.ar    1  LIG1       -0.0009
     25 C           4.2838    8.8709    0.0741 C.ar    1  LIG1        0.1736
     26 O           3.4749    7.7800   -0.0334 O.2     1  LIG1       -0.4484
     27 H           1.3062   10.1906    0.3852 H       1  LIG1        0.0659
     28 C           4.0324   11.4032    0.4232 C.3     1  LIG1       -0.0360
     29 H           3.2895   12.0146    0.9401 H       1  LIG1        0.0279
     30 H           4.2431   11.8856   -0.5375 H       1  LIG1        0.0279
     31 H           4.9545   11.4238    1.0105 H       1  LIG1        0.0279
     32 C           5.7051    8.6474   -0.0092 C.ar    1  LIG1        0.1702
     33 C           6.7637    9.4808   -0.2251 C.ar    1  LIG1       -0.0099
     34 C           7.9436    8.6696   -0.1741 C.ar    1  LIG1       -0.0120
     35 C           7.5016    7.4093    0.0618 C.ar    1  LIG1        0.0956
     36 O           6.1476    7.3753    0.1674 O.2     1  LIG1       -0.4596
     37 H           8.0068    6.4628    0.1734 H       1  LIG1        0.1032
     38 H           6.7154   10.5408   -0.4236 H       1  LIG1        0.0659
     39 C           9.3585    9.1175   -0.3550 C.3     1  LIG1       -0.0367
     40 H           9.6428    9.8554    0.4012 H       1  LIG1        0.0278
     41 H           9.5067    9.5816   -1.3347 H       1  LIG1        0.0278
     42 H          10.0509    8.2763   -0.2766 H       1  LIG1        0.0278
@<TRIPOS>BOND
     1    41    39    1
     2    20    18    1
     3    19    18    1
     4    10     8    1
     5    30    28    1
     6    38    33    1
     7    39    42    1
     8    39    34    1
     9    39    40    1
    10    18    14    1
    11    18    21    1
    12    17    13    1
    13    33    34   ar
    14    33    32   ar
    15    13    14   ar
    16    13    12   ar
    17    34    35   ar
    18    14    15   ar
    19     5     1   ar
    20     5     4   ar
    21     6     1    1
    22    12     4    1
    23    12    16   ar
    24    26    22   ar
    25    26    25   ar
    26     1     2   ar
    27    15    16   ar
    28    15    22    1
    29    32    25    1
    30    32    36   ar
    31     4     3   ar
    32    35    36   ar
    33    35    37    1
    34    22    23   ar
    35    25    24   ar
    36     2     3   ar
    37     2     7    1
    38     3     8    1
    39     9     8    1
    40     8    11    1
    41    23    24   ar
    42    23    27    1
    43    24    28    1
    44    28    29    1
    45    28    31    1
