@<TRIPOS>MOLECULE
mol_data/opt/cam/geoms/mol2/12ai12ai-12ai12ai-.out
 42 45 0 0 0
SMALL
GASTEIGER

@<TRIPOS>ATOM
      1 C           0.0989    1.7262   -0.0512 C.ar    1  LIG1        0.0930
      2 C           1.4462    1.6727   -0.1578 C.ar    1  LIG1       -0.0203
      3 C           1.9180    3.0266   -0.1583 C.ar    1  LIG1       -0.0017
      4 C           0.7947    3.7981   -0.0474 C.ar    1  LIG1        0.1726
      5 O          -0.3196    3.0122    0.0176 O.2     1  LIG1       -0.4596
      6 H          -0.6743    0.9755   -0.0135 H       1  LIG1        0.1029
      7 H           2.0515    0.7809   -0.2324 H       1  LIG1        0.0652
      8 C           3.3453    3.4629   -0.2559 C.3     1  LIG1       -0.0360
      9 H           3.4222    4.5338   -0.4388 H       1  LIG1        0.0279
     10 H           3.8553    2.9367   -1.0679 H       1  LIG1        0.0279
     11 H           3.8894    3.2392    0.6677 H       1  LIG1        0.0279
     12 C           0.5388    5.2150    0.0092 C.ar    1  LIG1        0.1712
     13 C          -0.6170    5.9323    0.0650 C.ar    1  LIG1       -0.0091
     14 C          -0.2531    7.3125    0.1089 C.ar    1  LIG1       -0.0009
     15 C           1.1144    7.3317    0.0727 C.ar    1  LIG1        0.1736
     16 O           1.6052    6.0562    0.0140 O.2     1  LIG1       -0.4484
     17 H          -1.6156    5.5223    0.0770 H       1  LIG1        0.0659
     18 C          -1.1973    8.4704    0.1757 C.3     1  LIG1       -0.0360
     19 H          -1.9882    8.2793    0.9062 H       1  LIG1        0.0279
     20 H          -1.6819    8.6390   -0.7917 H       1  LIG1        0.0279
     21 H          -0.6821    9.3883    0.4557 H       1  LIG1        0.0279
     22 C           2.1139    8.3659    0.0921 C.ar    1  LIG1        0.1713
     23 C           3.4742    8.3269    0.1502 C.ar    1  LIG1       -0.0091
     24 C           3.9344    9.6792    0.1382 C.ar    1  LIG1       -0.0009
     25 C           2.8064   10.4494    0.0745 C.ar    1  LIG1        0.1736
     26 O           1.6919    9.6568    0.0440 O.2     1  LIG1       -0.4484
     27 H           4.0818    7.4360    0.2008 H       1  LIG1        0.0659
     28 C           5.3626   10.1206    0.1871 C.3     1  LIG1       -0.0360
     29 H           5.4471   11.2044    0.1274 H       1  LIG1        0.0279
     30 H           5.9311    9.6848   -0.6402 H       1  LIG1        0.0279
     31 H           5.8395    9.7916    1.1157 H       1  LIG1        0.0279
     32 C           2.5408   11.8651    0.0271 C.ar    1  LIG1        0.1702
     33 C           1.3832   12.5741   -0.0805 C.ar    1  LIG1       -0.0099
     34 C           1.7474   13.9601   -0.0760 C.ar    1  LIG1       -0.0120
     35 C           3.0984   13.9784    0.0334 C.ar    1  LIG1        0.0956
     36 O           3.6004   12.7137    0.0984 O.2     1  LIG1       -0.4596
     37 H           3.8234   14.7755    0.0774 H       1  LIG1        0.1032
     38 H           0.3898   12.1586   -0.1582 H       1  LIG1        0.0659
     39 C           0.8300   15.1365   -0.1734 C.3     1  LIG1       -0.0367
     40 H           0.1129   15.1505    0.6528 H       1  LIG1        0.0278
     41 H           0.2543   15.1149   -1.1035 H       1  LIG1        0.0278
     42 H           1.3877   16.0753   -0.1474 H       1  LIG1        0.0278
@<TRIPOS>BOND
     1    41    39    1
     2    10     8    1
     3    20    18    1
     4    30    28    1
     5     9     8    1
     6     8     3    1
     7     8    11    1
     8     7     2    1
     9    39    42    1
    10    39    34    1
    11    39    40    1
    12     3     2   ar
    13     3     4   ar
    14    38    33    1
    15     2     1   ar
    16    33    34   ar
    17    33    32   ar
    18    34    35   ar
    19     1     6    1
    20     1     5   ar
    21     4    12    1
    22     4     5   ar
    23    12    16   ar
    24    12    13   ar
    25    16    15   ar
    26    32    25    1
    27    32    36   ar
    28    35    37    1
    29    35    36   ar
    30    26    25   ar
    31    26    22   ar
    32    13    17    1
    33    13    14   ar
    34    15    22    1
    35    15    14   ar
    36    25    24   ar
    37    22    23   ar
    38    14    18    1
    39    29    28    1
    40    24    23   ar
    41    24    28    1
    42    23    27    1
    43    18    21    1
    44    18    19    1
    45    28    31    1
