@<TRIPOS>MOLECULE
mol_data/opt/cam/geoms/mol2/12ai12ai-12ai-12ai.out
 42 45 0 0 0
SMALL
GASTEIGER

@<TRIPOS>ATOM
      1 C          -0.0898    1.7214    0.0021 C.ar    1  LIG1        0.0930
      2 C           1.2503    1.6148    0.1514 C.ar    1  LIG1       -0.0203
      3 C           1.7757    2.9491    0.1666 C.ar    1  LIG1       -0.0017
      4 C           0.6872    3.7636    0.0226 C.ar    1  LIG1        0.1726
      5 O          -0.4551    3.0232   -0.0785 O.2     1  LIG1       -0.4596
      6 H          -0.8903    1.0018   -0.0625 H       1  LIG1        0.1029
      7 H           1.8170    0.6994    0.2416 H       1  LIG1        0.0652
      8 C           3.2155    3.3288    0.3108 C.3     1  LIG1       -0.0360
      9 H           3.3489    4.4094    0.2817 H       1  LIG1        0.0279
     10 H           3.8152    2.8876   -0.4917 H       1  LIG1        0.0279
     11 H           3.6218    2.9596    1.2578 H       1  LIG1        0.0279
     12 C           0.4939    5.1898   -0.0431 C.ar    1  LIG1        0.1712
     13 C          -0.6198    5.9597   -0.2021 C.ar    1  LIG1       -0.0091
     14 C          -0.1890    7.3189   -0.1997 C.ar    1  LIG1       -0.0009
     15 C           1.1689    7.2747   -0.0316 C.ar    1  LIG1        0.1736
     16 O           1.5911    5.9808    0.0636 O.2     1  LIG1       -0.4484
     17 H          -1.6299    5.5969   -0.3177 H       1  LIG1        0.0659
     18 C          -1.0443    8.5348   -0.3570 C.3     1  LIG1       -0.0360
     19 H          -2.0054    8.2755   -0.8054 H       1  LIG1        0.0279
     20 H          -0.5625    9.2781   -0.9986 H       1  LIG1        0.0279
     21 H          -1.2493    9.0151    0.6060 H       1  LIG1        0.0279
     22 C           2.1759    8.2972    0.0595 C.ar    1  LIG1        0.1713
     23 C           2.1199    9.6509    0.2209 C.ar    1  LIG1       -0.0091
     24 C           3.4655   10.1307    0.2199 C.ar    1  LIG1       -0.0009
     25 C           4.2476    9.0200    0.0624 C.ar    1  LIG1        0.1736
     26 O           3.4717    7.9013   -0.0382 O.2     1  LIG1       -0.4484
     27 H           1.2282   10.2455    0.3492 H       1  LIG1        0.0659
     28 C           3.8894   11.5572    0.3709 C.3     1  LIG1       -0.0360
     29 H           3.5008   11.9812    1.3019 H       1  LIG1        0.0279
     30 H           3.5009   12.1682   -0.4499 H       1  LIG1        0.0279
     31 H           4.9741   11.6506    0.3798 H       1  LIG1        0.0279
     32 C           5.6662    8.7773   -0.0168 C.ar    1  LIG1        0.1702
     33 C           6.3863    7.6326   -0.1733 C.ar    1  LIG1       -0.0099
     34 C           7.7676    8.0138   -0.1809 C.ar    1  LIG1       -0.0120
     35 C           7.7719    9.3609   -0.0285 C.ar    1  LIG1        0.0956
     36 O           6.5027    9.8452    0.0730 O.2     1  LIG1       -0.4596
     37 H           8.5611   10.0939    0.0249 H       1  LIG1        0.1032
     38 H           5.9782    6.6380   -0.2717 H       1  LIG1        0.0659
     39 C           8.9529    7.1145   -0.3268 C.3     1  LIG1       -0.0367
     40 H           9.8856    7.6823   -0.2976 H       1  LIG1        0.0278
     41 H           8.9229    6.5690   -1.2747 H       1  LIG1        0.0278
     42 H           8.9883    6.3713    0.4752 H       1  LIG1        0.0278
@<TRIPOS>BOND
     1    41    39    1
     2    20    18    1
     3    19    18    1
     4    10     8    1
     5    30    28    1
     6    18    14    1
     7    18    21    1
     8    39    40    1
     9    39    34    1
    10    39    42    1
    11    17    13    1
    12    38    33    1
    13    13    14   ar
    14    13    12   ar
    15    14    15   ar
    16    34    33   ar
    17    34    35   ar
    18    33    32   ar
    19     5     1   ar
    20     5     4   ar
    21     6     1    1
    22    12     4    1
    23    12    16   ar
    24    26    22   ar
    25    26    25   ar
    26    15    22    1
    27    15    16   ar
    28    35    37    1
    29    35    36   ar
    30    32    25    1
    31    32    36   ar
    32     1     2   ar
    33     4     3   ar
    34    22    23   ar
    35    25    24   ar
    36     2     3   ar
    37     2     7    1
    38     3     8    1
    39    24    23   ar
    40    24    28    1
    41    23    27    1
    42     9     8    1
    43     8    11    1
    44    28    31    1
    45    28    29    1
