@<TRIPOS>MOLECULE
mol_data/opt/cam/geoms/mol2/12al13fa-13da-4de.out
 44 47 0 0 0
SMALL
GASTEIGER

@<TRIPOS>ATOM
      1 C           0.2062    1.7578    0.0263 C.ar    1  LIG1        0.0963
      2 C           1.5580    1.6842    0.0052 C.ar    1  LIG1        0.0187
      3 C           2.0250    3.0369   -0.0602 C.ar    1  LIG1        0.1672
      4 C           0.9161    3.8414   -0.0842 C.ar    1  LIG1        0.1958
      5 O          -0.2031    3.0460   -0.0271 O.2     1  LIG1       -0.4575
      6 H          -0.5711    1.0122    0.0730 H       1  LIG1        0.1031
      7 H           2.1509    0.7837    0.0365 H       1  LIG1        0.0686
      8 O           3.2950    3.4894   -0.0790 O.3     1  LIG1       -0.4913
      9 C           4.3080    2.5065   -0.0856 C.3     1  LIG1        0.0790
     10 H           5.2551    3.0440   -0.1166 H       1  LIG1        0.0660
     11 H           4.2754    1.8881    0.8197 H       1  LIG1        0.0660
     12 H           4.2337    1.8576   -0.9665 H       1  LIG1        0.0660
     13 C           0.6563    5.2563   -0.1245 C.ar    1  LIG1        0.1282
     14 C           1.4522    6.3769   -0.3064 C.ar    1  LIG1        0.1458
     15 C           0.6325    7.5214   -0.2114 C.ar    1  LIG1        0.0074
     16 C          -0.6580    7.0859    0.0251 C.ar    1  LIG1        0.0682
     17 N          -0.6331    5.7140    0.0518 N.ar    1  LIG1       -0.3475
     18 H          -1.3685    5.1144    0.3887 H       1  LIG1        0.1661
     19 O           2.7832    6.3338   -0.5645 O.3     1  LIG1       -0.5045
     20 H           3.1242    7.2350   -0.5672 H       1  LIG1        0.2922
     21 H           0.9386    8.5509   -0.3289 H       1  LIG1        0.0676
     22 C          -1.8791    7.8319    0.1801 C.ar    1  LIG1        0.0810
     23 C          -2.0980    9.1533    0.5581 C.ar    1  LIG1        0.0790
     24 C          -3.4981    9.3931    0.5230 C.ar    1  LIG1       -0.0183
     25 C          -4.1106    8.2256    0.1378 C.ar    1  LIG1        0.0495
     26 N          -3.1086    7.2833   -0.0478 N.ar    1  LIG1       -0.3520
     27 H          -3.2425    6.4180   -0.5471 H       1  LIG1        0.1660
     28 N          -0.2483   10.8215    1.2212 N.1     1  LIG1       -0.1908
     29 C          -1.0857   10.0761    0.9303 C.1     1  LIG1        0.1013
     30 H          -3.9840   10.3196    0.7838 H       1  LIG1        0.0652
     31 C          -6.5110    8.7840   -0.3974 C.ar    1  LIG1        0.0609
     32 C          -7.8400    8.3766   -0.5461 C.ar    1  LIG1       -0.0426
     33 C          -5.5143    7.8572   -0.0266 C.ar    1  LIG1        0.0168
     34 C          -8.2052    7.0589   -0.3489 C.ar    1  LIG1       -0.0451
     35 H          -8.5829    9.1126   -0.8309 H       1  LIG1        0.0631
     36 C          -5.9091    6.5328    0.1788 C.ar    1  LIG1       -0.0360
     37 C          -7.2324    6.1215    0.0167 C.ar    1  LIG1        0.0254
     38 H          -5.1799    5.8016    0.5074 H       1  LIG1        0.0637
     39 H          -9.2352    6.7470   -0.4711 H       1  LIG1        0.0630
     40 N          -6.0092   11.2829   -0.8590 N.1     1  LIG1       -0.1908
     41 C          -6.2084   10.1623   -0.6514 C.1     1  LIG1        0.0998
     42 C          -7.5888    4.7532    0.2382 C.1     1  LIG1       -0.0696
     43 C          -7.8896    3.6027    0.4224 C.1     1  LIG1       -0.1139
     44 H          -8.1594    2.5846    0.5873 H       1  LIG1        0.1232
@<TRIPOS>BOND
     1    12     9    1
     2    40    41    3
     3    35    32    1
     4    41    31    1
     5    20    19    1
     6    19    14    1
     7    27    26    1
     8    32    31   ar
     9    32    34   ar
    10    39    34    1
    11    31    33   ar
    12    34    37   ar
    13    21    15    1
    14    14    15   ar
    15    14    13   ar
    16    15    16   ar
    17    13     4    1
    18    13    17   ar
    19    10     9    1
    20     9     8    1
    21     9    11    1
    22     4     3   ar
    23     4     5   ar
    24     8     3    1
    25     3     2   ar
    26    26    25   ar
    27    26    22   ar
    28     5     1   ar
    29    33    25    1
    30    33    36   ar
    31     2     1   ar
    32     2     7    1
    33    37    36   ar
    34    37    42    1
    35    16    17   ar
    36    16    22    1
    37     1     6    1
    38    17    18    1
    39    25    24   ar
    40    36    38    1
    41    22    23   ar
    42    42    43    3
    43    43    44    1
    44    24    23   ar
    45    24    30    1
    46    23    29    1
    47    29    28    3
