@<TRIPOS>MOLECULE
mol_data/opt/cam/geoms/mol2/12al12al.out
 24 25 0 0 0
SMALL
GASTEIGER

@<TRIPOS>ATOM
      1 C           0.0864    1.6756   -0.0001 C.ar    1  LIG1        0.0964
      2 C           1.4441    1.6887    0.0000 C.ar    1  LIG1        0.0187
      3 C           1.8081    3.0704   -0.0000 C.ar    1  LIG1        0.1687
      4 C           0.6440    3.7902   -0.0001 C.ar    1  LIG1        0.2110
      5 O          -0.4123    2.9287   -0.0000 O.2     1  LIG1       -0.4560
      6 H          -0.6383    0.8773   -0.0001 H       1  LIG1        0.1031
      7 H           2.0950    0.8286    0.0001 H       1  LIG1        0.0686
      8 O           3.0350    3.6433   -0.0000 O.3     1  LIG1       -0.4912
      9 C           4.1334    2.7534   -0.0000 C.3     1  LIG1        0.0790
     10 H           5.0314    3.3706   -0.0001 H       1  LIG1        0.0660
     11 H           4.1329    2.1183    0.8933 H       1  LIG1        0.0660
     12 H           4.1329    2.1183   -0.8934 H       1  LIG1        0.0660
     13 C           0.3962    5.2066   -0.0001 C.ar    1  LIG1        0.1770
     14 C           1.2521    6.2712   -0.0001 C.ar    1  LIG1        0.0292
     15 C           0.4138    7.4294   -0.0001 C.ar    1  LIG1        0.1583
     16 C          -0.8732    6.9896   -0.0002 C.ar    1  LIG1        0.1342
     17 O          -0.8883    5.6244   -0.0001 O.2     1  LIG1       -0.4560
     18 H          -1.8252    7.4910   -0.0002 H       1  LIG1        0.1068
     19 H           2.3280    6.2108   -0.0001 H       1  LIG1        0.0693
     20 O           0.7664    8.7373   -0.0002 O.3     1  LIG1       -0.4919
     21 C           2.1535    9.0005   -0.0002 C.3     1  LIG1        0.0789
     22 H           2.2620   10.0851   -0.0002 H       1  LIG1        0.0660
     23 H           2.6412    8.5905    0.8922 H       1  LIG1        0.0660
     24 H           2.6411    8.5905   -0.8926 H       1  LIG1        0.0660
@<TRIPOS>BOND
     1    12     9    1
     2    24    21    1
     3    22    21    1
     4    21    20    1
     5    21    23    1
     6    18    16    1
     7    16    15   ar
     8    16    17   ar
     9    20    15    1
    10    15    14   ar
    11     6     1    1
    12    17    13   ar
    13    14    13   ar
    14    14    19    1
    15    13     4    1
    16     1     5   ar
    17     1     2   ar
    18     4     5   ar
    19     4     3   ar
    20    10     9    1
    21     3     8    1
    22     3     2   ar
    23     9     8    1
    24     9    11    1
    25     2     7    1
