@<TRIPOS>MOLECULE
mol_data/opt/cam/geoms/mol2/12al12al-12al12al.out
 46 49 0 0 0
SMALL
GASTEIGER

@<TRIPOS>ATOM
      1 C           0.3853    1.6348    0.0001 C.ar    1  LIG1        0.0964
      2 C           1.7389    1.7250    0.0001 C.ar    1  LIG1        0.0187
      3 C           2.0306    3.1257    0.0000 C.ar    1  LIG1        0.1687
      4 C           0.8261    3.7796   -0.0000 C.ar    1  LIG1        0.2111
      5 O          -0.1820    2.8573    0.0000 O.2     1  LIG1       -0.4560
      6 H          -0.2928    0.7965    0.0001 H       1  LIG1        0.1031
      7 H           2.4363    0.9023    0.0001 H       1  LIG1        0.0686
      8 O           3.2300    3.7450   -0.0000 O.3     1  LIG1       -0.4912
      9 C           4.3620    2.8987   -0.0000 C.3     1  LIG1        0.0790
     10 H           5.2342    3.5518   -0.0001 H       1  LIG1        0.0660
     11 H           4.3883    2.2641    0.8934 H       1  LIG1        0.0660
     12 H           4.3882    2.2640   -0.8935 H       1  LIG1        0.0660
     13 C           0.4424    5.1622   -0.0001 C.ar    1  LIG1        0.1780
     14 C          -0.7703    5.7773   -0.0000 C.ar    1  LIG1        0.0300
     15 C          -0.5103    7.1792   -0.0001 C.ar    1  LIG1        0.1694
     16 C           0.8623    7.3327   -0.0002 C.ar    1  LIG1        0.2121
     17 O           1.4335    6.0771   -0.0001 O.2     1  LIG1       -0.4447
     18 H          -1.7444    5.3153   -0.0000 H       1  LIG1        0.0694
     19 O          -1.5531    8.0273   -0.0002 O.3     1  LIG1       -0.4912
     20 C          -1.3408    9.4305   -0.0005 C.3     1  LIG1        0.0790
     21 H          -2.3354    9.8762   -0.0007 H       1  LIG1        0.0660
     22 H          -0.7919    9.7526    0.8869 H       1  LIG1        0.0660
     23 H          -0.7919    9.7521   -0.8881 H       1  LIG1        0.0660
     24 C           1.8655    8.3653   -0.0002 C.ar    1  LIG1        0.1780
     25 C           3.2294    8.2439   -0.0002 C.ar    1  LIG1        0.0300
     26 C           3.7317    9.5755   -0.0002 C.ar    1  LIG1        0.1694
     27 C           2.6535   10.4188   -0.0002 C.ar    1  LIG1        0.2121
     28 O           1.5087    9.6677   -0.0002 O.2     1  LIG1       -0.4447
     29 H           3.7726    7.3131   -0.0002 H       1  LIG1        0.0694
     30 O           5.0110   10.0148   -0.0002 O.3     1  LIG1       -0.4912
     31 C           6.0081    9.0121   -0.0002 C.3     1  LIG1        0.0790
     32 H           6.9669    9.5300   -0.0003 H       1  LIG1        0.0660
     33 H           5.9379    8.3807    0.8927 H       1  LIG1        0.0660
     34 H           5.9378    8.3807   -0.8932 H       1  LIG1        0.0660
     35 C           2.5381   11.8478   -0.0001 C.ar    1  LIG1        0.1770
     36 C           3.4834   12.8350   -0.0001 C.ar    1  LIG1        0.0292
     37 C           2.7489   14.0617   -0.0001 C.ar    1  LIG1        0.1583
     38 C           1.4283   13.7380   -0.0001 C.ar    1  LIG1        0.1342
     39 O           1.2933   12.3771   -0.0001 O.2     1  LIG1       -0.4560
     40 H           0.5243   14.3213   -0.0000 H       1  LIG1        0.1068
     41 H           4.5500   12.6816   -0.0002 H       1  LIG1        0.0693
     42 O           3.2157   15.3334   -0.0001 O.3     1  LIG1       -0.4919
     43 C           4.6206   15.4730   -0.0001 C.3     1  LIG1        0.0789
     44 H           4.8248   16.5437   -0.0001 H       1  LIG1        0.0660
     45 H           5.0699   15.0211    0.8921 H       1  LIG1        0.0660
     46 H           5.0698   15.0212   -0.8925 H       1  LIG1        0.0660
@<TRIPOS>BOND
     1    12     9    1
     2    34    31    1
     3    46    43    1
     4    23    20    1
     5    21    20    1
     6    20    19    1
     7    20    22    1
     8    32    31    1
     9    31    30    1
    10    31    33    1
    11    29    25    1
    12    25    26   ar
    13    25    24   ar
    14    30    26    1
    15    26    27   ar
    16    24    16    1
    17    24    28   ar
    18    41    36    1
    19    16    15   ar
    20    16    17   ar
    21    27    28   ar
    22    27    35    1
    23    19    15    1
    24    43    44    1
    25    43    42    1
    26    43    45    1
    27    36    35   ar
    28    36    37   ar
    29    15    14   ar
    30    17    13   ar
    31    35    39   ar
    32    37    42    1
    33    37    38   ar
    34    39    38   ar
    35    10     9    1
    36    38    40    1
    37    13    14   ar
    38    13     4    1
    39    14    18    1
    40     9     8    1
    41     9    11    1
    42     8     3    1
    43     4     3   ar
    44     4     5   ar
    45     3     2   ar
    46     5     1   ar
    47     2     1   ar
    48     2     7    1
    49     1     6    1
