@<TRIPOS>MOLECULE
mol_data/opt/cam/geoms/mol2/12al12al12al-12al.out
 46 49 0 0 0
SMALL
GASTEIGER

@<TRIPOS>ATOM
      1 C           0.2915    1.5898   -0.0000 C.ar    1  LIG1        0.0964
      2 C           1.6453    1.6982    0.0000 C.ar    1  LIG1        0.0187
      3 C           1.9116    3.1013   -0.0000 C.ar    1  LIG1        0.1687
      4 C           0.6985    3.7376   -0.0001 C.ar    1  LIG1        0.2111
      5 O          -0.2949    2.8037   -0.0000 O.2     1  LIG1       -0.4560
      6 H          -0.3746    0.7421   -0.0000 H       1  LIG1        0.1031
      7 H           2.3547    0.8857    0.0000 H       1  LIG1        0.0686
      8 O           3.0932    3.7593   -0.0000 O.3     1  LIG1       -0.4912
      9 C           4.2536    2.9502   -0.0001 C.3     1  LIG1        0.0790
     10 H           5.1044    3.6307   -0.0001 H       1  LIG1        0.0660
     11 H           4.2978    2.3173    0.8935 H       1  LIG1        0.0660
     12 H           4.2977    2.3172   -0.8936 H       1  LIG1        0.0660
     13 C           0.3536    5.1299   -0.0001 C.ar    1  LIG1        0.1780
     14 C           1.1329    6.2536   -0.0001 C.ar    1  LIG1        0.0300
     15 C           0.2231    7.3498   -0.0002 C.ar    1  LIG1        0.1694
     16 C          -1.0440    6.8228   -0.0002 C.ar    1  LIG1        0.2121
     17 O          -0.9571    5.4566   -0.0001 O.2     1  LIG1       -0.4447
     18 H           2.2102    6.2678   -0.0001 H       1  LIG1        0.0694
     19 O           0.4901    8.6727   -0.0002 O.3     1  LIG1       -0.4912
     20 C           1.8591    9.0243   -0.0002 C.3     1  LIG1        0.0790
     21 H           1.8966   10.1133   -0.0002 H       1  LIG1        0.0660
     22 H           2.3697    8.6457    0.8928 H       1  LIG1        0.0660
     23 H           2.3697    8.6457   -0.8932 H       1  LIG1        0.0660
     24 C          -2.3599    7.3876   -0.0002 C.ar    1  LIG1        0.1780
     25 C          -3.5997    6.8271   -0.0002 C.ar    1  LIG1        0.0300
     26 C          -4.5278    7.9091   -0.0002 C.ar    1  LIG1        0.1694
     27 C          -3.7909    9.0759   -0.0003 C.ar    1  LIG1        0.2121
     28 O          -2.4545    8.7337   -0.0002 O.2     1  LIG1       -0.4447
     29 H          -3.8488    5.7782   -0.0001 H       1  LIG1        0.0694
     30 O          -5.8451    7.6283   -0.0002 O.3     1  LIG1       -0.4912
     31 C          -6.7924    8.6803   -0.0003 C.3     1  LIG1        0.0790
     32 H          -7.7700    8.1977   -0.0003 H       1  LIG1        0.0660
     33 H          -6.6908    9.3089    0.8877 H       1  LIG1        0.0660
     34 H          -6.6907    9.3088   -0.8884 H       1  LIG1        0.0660
     35 C          -3.9577   10.5105   -0.0003 C.ar    1  LIG1        0.1770
     36 C          -2.9937   11.4793   -0.0002 C.ar    1  LIG1        0.0292
     37 C          -3.6980   12.7233   -0.0003 C.ar    1  LIG1        0.1583
     38 C          -5.0246   12.4312   -0.0004 C.ar    1  LIG1        0.1342
     39 O          -5.1873   11.0707   -0.0004 O.2     1  LIG1       -0.4560
     40 H          -5.9175   13.0312   -0.0005 H       1  LIG1        0.1068
     41 H          -1.9311   11.3003   -0.0001 H       1  LIG1        0.0693
     42 O          -3.2015   13.9833   -0.0003 O.3     1  LIG1       -0.4919
     43 C          -1.7935   14.0899   -0.0002 C.3     1  LIG1        0.0789
     44 H          -1.5650   15.1558   -0.0002 H       1  LIG1        0.0660
     45 H          -1.3550   13.6279    0.8922 H       1  LIG1        0.0660
     46 H          -1.3550   13.6279   -0.8925 H       1  LIG1        0.0660
@<TRIPOS>BOND
     1    12     9    1
     2    23    20    1
     3    46    43    1
     4    34    31    1
     5    40    38    1
     6    39    38   ar
     7    39    35   ar
     8    38    37   ar
     9    32    31    1
    10    31    30    1
    11    31    33    1
    12    37    42    1
    13    37    36   ar
    14    35    27    1
    15    35    36   ar
    16    27    28   ar
    17    27    26   ar
    18    42    43    1
    19    28    24   ar
    20    21    20    1
    21    36    41    1
    22    26    30    1
    23    26    25   ar
    24    20    19    1
    25    20    22    1
    26    24    16    1
    27    24    25   ar
    28    44    43    1
    29    43    45    1
    30    19    15    1
    31    16    15   ar
    32    16    17   ar
    33    25    29    1
    34    15    14   ar
    35    17    13   ar
    36    14    18    1
    37    14    13   ar
    38    13     4    1
    39    10     9    1
    40     4     5   ar
    41     4     3   ar
    42     9     8    1
    43     9    11    1
    44     8     3    1
    45     5     1   ar
    46     3     2   ar
    47     1     6    1
    48     1     2   ar
    49     2     7    1
