@<TRIPOS>MOLECULE
mol_data/opt/cam/geoms/mol2/12al12al-12al.out
 35 37 0 0 0
SMALL
GASTEIGER

@<TRIPOS>ATOM
      1 C           0.1831    1.8302   -0.0001 C.ar    1  LIG1        0.0964
      2 C           1.5395    1.8209    0.0000 C.ar    1  LIG1        0.0187
      3 C           1.9332    3.1966   -0.0001 C.ar    1  LIG1        0.1687
      4 C           0.7801    3.9370   -0.0001 C.ar    1  LIG1        0.2111
      5 O          -0.2930    3.0913   -0.0000 O.2     1  LIG1       -0.4560
      6 H          -0.5549    1.0440   -0.0001 H       1  LIG1        0.1031
      7 H           2.1749    0.9495    0.0001 H       1  LIG1        0.0686
      8 O           3.1750    3.7262   -0.0001 O.3     1  LIG1       -0.4912
      9 C           4.2419    2.7994   -0.0001 C.3     1  LIG1        0.0790
     10 H           5.1596    3.3869   -0.0001 H       1  LIG1        0.0660
     11 H           4.2216    2.1644    0.8933 H       1  LIG1        0.0660
     12 H           4.2216    2.1644   -0.8935 H       1  LIG1        0.0660
     13 C           0.4992    5.3445   -0.0001 C.ar    1  LIG1        0.1780
     14 C          -0.6636    6.0484   -0.0000 C.ar    1  LIG1        0.0300
     15 C          -0.2973    7.4268   -0.0001 C.ar    1  LIG1        0.1694
     16 C           1.0813    7.4788   -0.0001 C.ar    1  LIG1        0.2121
     17 O           1.5552    6.1837   -0.0001 O.2     1  LIG1       -0.4447
     18 H          -1.6699    5.6614    0.0000 H       1  LIG1        0.0694
     19 O          -1.2752    8.3523   -0.0000 O.3     1  LIG1       -0.4912
     20 C          -0.9470    9.7298   -0.0002 C.3     1  LIG1        0.0790
     21 H          -1.8994   10.2602   -0.0003 H       1  LIG1        0.0660
     22 H          -0.3719   10.0029    0.8879 H       1  LIG1        0.0660
     23 H          -0.3720   10.0026   -0.8885 H       1  LIG1        0.0660
     24 C           2.1692    8.4292   -0.0002 C.ar    1  LIG1        0.1770
     25 C           3.5137    8.1850   -0.0001 C.ar    1  LIG1        0.0292
     26 C           4.1386    9.4708   -0.0002 C.ar    1  LIG1        0.1583
     27 C           3.1450   10.3971   -0.0002 C.ar    1  LIG1        0.1342
     28 O           1.9327    9.7592   -0.0002 O.2     1  LIG1       -0.4560
     29 H           3.1325   11.4728   -0.0003 H       1  LIG1        0.1068
     30 H           3.9699    7.2087   -0.0000 H       1  LIG1        0.0693
     31 O           5.4574    9.7768   -0.0002 O.3     1  LIG1       -0.4919
     32 C           6.3450    8.6785   -0.0001 C.3     1  LIG1        0.0789
     33 H           7.3521    9.0956   -0.0001 H       1  LIG1        0.0660
     34 H           6.2136    8.0553    0.8923 H       1  LIG1        0.0660
     35 H           6.2136    8.0553   -0.8925 H       1  LIG1        0.0660
@<TRIPOS>BOND
     1    12     9    1
     2    35    32    1
     3    23    20    1
     4    29    27    1
     5    21    20    1
     6    27    28   ar
     7    27    26   ar
     8    20    19    1
     9    20    22    1
    10    28    24   ar
    11    26    31    1
    12    26    25   ar
    13    31    32    1
    14    24    16    1
    15    24    25   ar
    16    17    16   ar
    17    17    13   ar
    18    16    15   ar
    19    10     9    1
    20    33    32    1
    21    25    30    1
    22    32    34    1
    23     9     8    1
    24     9    11    1
    25     8     3    1
    26     6     1    1
    27    15    19    1
    28    15    14   ar
    29     1     5   ar
    30     1     2   ar
    31     3     4   ar
    32     3     2   ar
    33    13     4    1
    34    13    14   ar
    35     4     5   ar
    36    14    18    1
    37     2     7    1
