@<TRIPOS>MOLECULE
mol_data/opt/cam/geoms/mol2/12al12al12al-12al-.out
 46 49 0 0 0
SMALL
GASTEIGER

@<TRIPOS>ATOM
      1 C           0.2616    1.5555   -0.0001 C.ar    1  LIG1        0.0964
      2 C           1.6175    1.6344    0.0000 C.ar    1  LIG1        0.0187
      3 C           1.9141    3.0314   -0.0000 C.ar    1  LIG1        0.1687
      4 C           0.7152    3.6941   -0.0001 C.ar    1  LIG1        0.2111
      5 O          -0.2981    2.7819   -0.0000 O.2     1  LIG1       -0.4560
      6 H          -0.4229    0.7224   -0.0001 H       1  LIG1        0.1031
      7 H           2.3091    0.8068    0.0001 H       1  LIG1        0.0686
      8 O           3.1101    3.6632   -0.0000 O.3     1  LIG1       -0.4912
      9 C           4.2521    2.8287   -0.0000 C.3     1  LIG1        0.0790
     10 H           5.1178    3.4901   -0.0000 H       1  LIG1        0.0660
     11 H           4.2823    2.1948    0.8935 H       1  LIG1        0.0660
     12 H           4.2823    2.1948   -0.8935 H       1  LIG1        0.0660
     13 C           0.4005    5.0937   -0.0001 C.ar    1  LIG1        0.1780
     14 C           1.2039    6.2002   -0.0001 C.ar    1  LIG1        0.0300
     15 C           0.3183    7.3163   -0.0001 C.ar    1  LIG1        0.1694
     16 C          -0.9601    6.8170   -0.0001 C.ar    1  LIG1        0.2121
     17 O          -0.9026    5.4484   -0.0001 O.2     1  LIG1       -0.4447
     18 H           2.2814    6.1918   -0.0001 H       1  LIG1        0.0694
     19 O           0.6118    8.6307   -0.0001 O.3     1  LIG1       -0.4912
     20 C           1.9856    8.9597   -0.0002 C.3     1  LIG1        0.0790
     21 H           2.0391   10.0479   -0.0002 H       1  LIG1        0.0660
     22 H           2.4903    8.5728    0.8929 H       1  LIG1        0.0660
     23 H           2.4903    8.5728   -0.8932 H       1  LIG1        0.0660
     24 C          -2.2672    7.4030   -0.0001 C.ar    1  LIG1        0.1780
     25 C          -3.5102    6.8481   -0.0001 C.ar    1  LIG1        0.0300
     26 C          -4.4274    7.9346   -0.0002 C.ar    1  LIG1        0.1694
     27 C          -3.6864    9.1009   -0.0002 C.ar    1  LIG1        0.2121
     28 O          -2.3534    8.7467   -0.0002 O.2     1  LIG1       -0.4447
     29 H          -3.7667    5.8010   -0.0001 H       1  LIG1        0.0694
     30 O          -5.7480    7.6502   -0.0002 O.3     1  LIG1       -0.4912
     31 C          -6.6917    8.6977   -0.0005 C.3     1  LIG1        0.0790
     32 H          -7.6728    8.2221   -0.0009 H       1  LIG1        0.0660
     33 H          -6.5970    9.3184    0.8957 H       1  LIG1        0.0660
     34 H          -6.5964    9.3185   -0.8966 H       1  LIG1        0.0660
     35 C          -3.8745   10.5425   -0.0002 C.ar    1  LIG1        0.1770
     36 C          -4.9276   11.4149    0.0002 C.ar    1  LIG1        0.0292
     37 C          -4.3592   12.7226   -0.0001 C.ar    1  LIG1        0.1583
     38 C          -3.0086   12.5729   -0.0006 C.ar    1  LIG1        0.1342
     39 O          -2.7101   11.2411   -0.0007 O.2     1  LIG1       -0.4560
     40 H          -2.1718   13.2490   -0.0010 H       1  LIG1        0.1068
     41 H          -5.9814   11.2054    0.0006 H       1  LIG1        0.0693
     42 O          -5.1140   13.8441    0.0001 O.3     1  LIG1       -0.4919
     43 C          -4.3785   15.0490   -0.0002 C.3     1  LIG1        0.0789
     44 H          -5.1031   15.8629    0.0001 H       1  LIG1        0.0660
     45 H          -3.7444   15.1244    0.8920 H       1  LIG1        0.0660
     46 H          -3.7451   15.1244   -0.8929 H       1  LIG1        0.0660
@<TRIPOS>BOND
     1    34    31    1
     2    12     9    1
     3    23    20    1
     4    46    43    1
     5    40    38    1
     6    32    31    1
     7    39    38   ar
     8    39    35   ar
     9    38    37   ar
    10    31    30    1
    11    31    33    1
    12    30    26    1
    13    27    35    1
    14    27    28   ar
    15    27    26   ar
    16    35    36   ar
    17    28    24   ar
    18    43    44    1
    19    43    42    1
    20    43    45    1
    21    26    25   ar
    22    21    20    1
    23    20    19    1
    24    20    22    1
    25    24    16    1
    26    24    25   ar
    27    19    15    1
    28     6     1    1
    29    16    15   ar
    30    16    17   ar
    31    25    29    1
    32    15    14   ar
    33    37    42    1
    34    37    36   ar
    35    17    13   ar
    36    14    18    1
    37    14    13   ar
    38     1     5   ar
    39     1     2   ar
    40    13     4    1
    41     4     5   ar
    42     4     3   ar
    43     8     3    1
    44     8     9    1
    45     3     2   ar
    46    10     9    1
    47     9    11    1
    48     2     7    1
    49    36    41    1
