@<TRIPOS>MOLECULE
mol_data/opt/cam/geoms/mol2/12al13ha-12li4ff13hl6di4hh13ah-.out
 100 107 0 0 0
SMALL
GASTEIGER

@<TRIPOS>ATOM
      1 C           1.1097    2.7579   -2.5890 C.ar    1  LIG1        0.0963
      2 C           2.3642    3.0298   -3.0219 C.ar    1  LIG1        0.0187
      3 C           2.6646    4.3404   -2.5357 C.ar    1  LIG1        0.1671
      4 C           1.5784    4.7733   -1.8233 C.ar    1  LIG1        0.1940
      5 O           0.6208    3.7937   -1.8653 O.2     1  LIG1       -0.4576
      6 H           0.4565    1.9088   -2.7073 H       1  LIG1        0.1031
      7 H           2.9899    2.3845   -3.6182 H       1  LIG1        0.0686
      8 O           3.7865    5.0883   -2.7434 O.3     1  LIG1       -0.4913
      9 C           4.8709    4.4203   -3.3559 C.3     1  LIG1        0.0790
     10 H           5.6909    5.1366   -3.4028 H       1  LIG1        0.0660
     11 H           5.1845    3.5478   -2.7714 H       1  LIG1        0.0660
     12 H           4.6168    4.1009   -4.3731 H       1  LIG1        0.0660
     13 C           1.2344    5.9670   -1.0983 C.ar    1  LIG1        0.1072
     14 C           1.9926    7.0250   -0.6076 C.ar    1  LIG1        0.0540
     15 C           1.0978    7.9228    0.0239 C.ar    1  LIG1       -0.0118
     16 C          -0.1763    7.3929   -0.0835 C.ar    1  LIG1        0.0881
     17 N          -0.0822    6.2125   -0.7560 N.ar    1  LIG1       -0.3477
     18 H          -0.8573    5.6177   -0.9965 H       1  LIG1        0.1661
     19 N           3.3808    7.1549   -0.6436 N.pl3   1  LIG1       -0.3562
     20 H           3.8153    6.6117   -1.3801 H       1  LIG1        0.1424
     21 H           3.6829    8.1188   -0.6695 H       1  LIG1        0.1424
     22 H           1.3485    8.8621    0.4937 H       1  LIG1        0.0658
     23 C          -1.4400    7.8880    0.3889 C.ar    1  LIG1        0.1934
     24 C          -1.8088    8.9560    1.1558 C.ar    1  LIG1        0.1706
     25 C          -3.2348    8.9560    1.2587 C.ar    1  LIG1        0.0378
     26 C          -3.6515    7.8751    0.5323 C.ar    1  LIG1        0.1459
     27 O          -2.5621    7.2174    0.0112 O.2     1  LIG1       -0.4492
     28 O          -0.9795    9.8704    1.7376 O.3     1  LIG1       -0.4910
     29 C          -0.3786    9.4138    2.9450 C.3     1  LIG1        0.0790
     30 H           0.2306   10.2367    3.3216 H       1  LIG1        0.0660
     31 H          -1.1386    9.1548    3.6908 H       1  LIG1        0.0660
     32 H           0.2587    8.5421    2.7641 H       1  LIG1        0.0660
     33 C          -4.0199    9.9417    2.0605 C.3     1  LIG1       -0.0326
     34 H          -4.8527    9.4643    2.5804 H       1  LIG1        0.0280
     35 H          -4.4412   10.7236    1.4254 H       1  LIG1        0.0280
     36 H          -3.3687   10.4171    2.7972 H       1  LIG1        0.0280
     37 C          -6.1179    7.9517    0.0427 C.ar    1  LIG1        0.1284
     38 C          -7.3094    7.2863   -0.2061 C.ar    1  LIG1       -0.0068
     39 C          -4.9354    7.2349    0.2693 C.ar    1  LIG1        0.0625
     40 C          -7.3879    5.8896   -0.2670 C.ar    1  LIG1        0.0451
     41 H          -8.2208    7.8643   -0.3235 H       1  LIG1        0.0662
     42 C          -5.0091    5.8399    0.1992 C.ar    1  LIG1       -0.0053
     43 C          -6.1946    5.1765   -0.0562 C.ar    1  LIG1        0.1269
     44 H          -4.1018    5.2644    0.3521 H       1  LIG1        0.0662
     45 O          -6.0598    9.3150    0.0588 O.3     1  LIG1       -0.5060
     46 H          -6.9412    9.6680   -0.1085 H       1  LIG1        0.2922
     47 O          -6.2400    3.8042   -0.1247 O.3     1  LIG1       -0.5061
     48 H          -5.5296    3.4137    0.3969 H       1  LIG1        0.2922
     49 C          -8.6713    5.2343   -0.4958 C.ar    1  LIG1        0.0752
     50 C          -9.8866    5.7520   -0.9384 C.ar    1  LIG1        0.0932
     51 C         -10.8198    4.7012   -0.8912 C.ar    1  LIG1        0.1665
     52 C         -10.1805    3.5460   -0.4380 C.ar    1  LIG1        0.0938
     53 N          -8.8821    3.9085   -0.2148 N.ar    1  LIG1       -0.3496
     54 H          -8.1142    3.3047    0.0451 H       1  LIG1        0.1661
     55 N         -10.1968    7.0628   -1.3474 N.pl3   1  LIG1       -0.3535
     56 H          -9.5286    7.4129   -2.0256 H       1  LIG1        0.1425
     57 H         -11.1168    7.0675   -1.7761 H       1  LIG1        0.1425
     58 O         -12.1359    4.8565   -1.2503 O.3     1  LIG1       -0.4911
     59 C         -12.9729    5.2574   -0.1678 C.3     1  LIG1        0.0790
     60 H         -13.9698    5.4172   -0.5816 H       1  LIG1        0.0660
     61 H         -13.0176    4.4798    0.6026 H       1  LIG1        0.0660
     62 H         -12.6097    6.1858    0.2853 H       1  LIG1        0.0660
     63 C         -10.0471    1.1466    0.4010 C.ar    1  LIG1        0.1499
     64 C         -10.7047    2.2003   -0.2608 C.ar    1  LIG1        0.0381
     65 C         -11.9742    1.8747   -0.7665 C.ar    1  LIG1       -0.0448
     66 C         -12.5226    0.6130   -0.6253 C.ar    1  LIG1       -0.0237
     67 C         -11.7453   -0.3702    0.0314 C.ar    1  LIG1        0.0772
     68 N         -10.5494   -0.0852    0.5346 N.ar    1  LIG1       -0.2354
     69 H         -12.5335    2.6467   -1.2816 H       1  LIG1        0.0628
     70 N          -7.6867    1.4353    1.4546 N.1     1  LIG1       -0.1893
     71 C          -8.7416    1.3035    0.9965 C.1     1  LIG1        0.1198
     72 C         -13.9074    0.3216   -1.1279 C.3     1  LIG1       -0.0377
     73 H         -14.5199   -0.1183   -0.3361 H       1  LIG1        0.0278
     74 H         -13.8794   -0.4023   -1.9467 H       1  LIG1        0.0278
     75 H         -14.3927    1.2353   -1.4761 H       1  LIG1        0.0278
     76 C         -12.5114   -2.6419   -0.7976 C.ar    1  LIG1        0.0346
     77 C         -12.9924   -3.9138   -0.4946 C.ar    1  LIG1       -0.0295
     78 C         -12.2372   -1.7584    0.2559 C.ar    1  LIG1        0.0230
     79 C         -13.1845   -4.3565    0.8132 C.ar    1  LIG1        0.0207
     80 H         -13.2526   -4.5819   -1.3097 H       1  LIG1        0.0643
     81 C         -12.3791   -2.2155    1.5652 C.ar    1  LIG1       -0.0295
     82 C         -12.8434   -3.4868    1.8685 C.ar    1  LIG1        0.0345
     83 H         -12.1032   -1.5438    2.3732 H       1  LIG1        0.0643
     84 N         -12.3536   -2.2518   -2.1367 N.pl3   1  LIG1       -0.3574
     85 H         -11.5922   -1.6030   -2.2864 H       1  LIG1        0.1423
     86 H         -12.2868   -3.0319   -2.7755 H       1  LIG1        0.1423
     87 N         -13.0068   -3.8918    3.2209 N.pl3   1  LIG1       -0.3574
     88 H         -12.5273   -4.7668    3.4104 H       1  LIG1        0.1423
     89 H         -12.6593   -3.1867    3.8597 H       1  LIG1        0.1423
     90 C         -13.7262   -5.6997    1.0391 C.ar    1  LIG1        0.0501
     91 C         -13.7167   -6.8156    0.2202 C.ar    1  LIG1       -0.0157
     92 C         -14.4429   -7.8421    0.8748 C.ar    1  LIG1        0.0427
     93 C         -14.8774   -7.3275    2.0766 C.ar    1  LIG1        0.0230
     94 N         -14.4292   -6.0326    2.1648 N.ar    1  LIG1       -0.3590
     95 H         -14.6080   -5.3752    2.9096 H       1  LIG1        0.1654
     96 H         -15.4575   -7.7802    2.8659 H       1  LIG1        0.0826
     97 H         -13.2296   -6.8946   -0.7412 H       1  LIG1        0.0657
     98 N         -14.7073   -9.1204    0.3521 N.pl3   1  LIG1       -0.3568
     99 H         -13.9336   -9.4805   -0.1912 H       1  LIG1        0.1424
    100 H         -14.9500   -9.7918    1.0687 H       1  LIG1        0.1424
@<TRIPOS>BOND
     1    12     9    1
     2     7     2    1
     3    10     9    1
     4     9    11    1
     5     9     8    1
     6     2     1   ar
     7     2     3   ar
     8    86    84    1
     9     8     3    1
    10     6     1    1
    11     1     5   ar
    12     3     4   ar
    13    85    84    1
    14    84    76    1
    15    56    55    1
    16    74    72    1
    17     5     4   ar
    18     4    13    1
    19    57    55    1
    20    75    72    1
    21    20    19    1
    22    55    50    1
    23    80    77    1
    24    69    65    1
    25    58    51    1
    26    58    59    1
    27    72    66    1
    28    72    73    1
    29    13    17   ar
    30    13    14   ar
    31    18    17    1
    32    50    51   ar
    33    50    49   ar
    34    51    52   ar
    35    76    77   ar
    36    76    78   ar
    37    65    66   ar
    38    65    64   ar
    39    17    16   ar
    40    97    91    1
    41    21    19    1
    42    19    14    1
    43    66    67   ar
    44    14    15   ar
    45    60    59    1
    46    49    40    1
    47    49    53   ar
    48    77    79   ar
    49    52    64    1
    50    52    53   ar
    51    41    38    1
    52    40    38   ar
    53    40    43   ar
    54    64    63   ar
    55    53    54    1
    56    38    37   ar
    57    99    98    1
    58    59    62    1
    59    59    61    1
    60    47    43    1
    61    47    48    1
    62    46    45    1
    63    16    15   ar
    64    16    23    1
    65    43    42   ar
    66    27    23   ar
    67    27    26   ar
    68    15    22    1
    69    67    78    1
    70    67    68   ar
    71    37    45    1
    72    37    39   ar
    73    42    39   ar
    74    42    44    1
    75    91    92   ar
    76    91    90   ar
    77    78    81   ar
    78    39    26    1
    79    98    92    1
    80    98   100    1
    81    23    24   ar
    82    63    68   ar
    83    63    71    1
    84    26    25   ar
    85    79    90    1
    86    79    82   ar
    87    92    93   ar
    88    71    70    3
    89    90    94   ar
    90    24    25   ar
    91    24    28    1
    92    25    33    1
    93    35    33    1
    94    81    82   ar
    95    81    83    1
    96    28    29    1
    97    82    87    1
    98    33    34    1
    99    33    36    1
   100    93    94   ar
   101    93    96    1
   102    94    95    1
   103    32    29    1
   104    29    30    1
   105    29    31    1
   106    87    88    1
   107    87    89    1
