@<TRIPOS>MOLECULE
mol_data/opt/cam/geoms/mol2/12al12al-12al-12al-.out
 46 49 0 0 0
SMALL
GASTEIGER

@<TRIPOS>ATOM
      1 C           0.2840    1.8041   -0.0002 C.ar    1  LIG1        0.0964
      2 C           1.6407    1.8087    0.0004 C.ar    1  LIG1        0.0187
      3 C           2.0201    3.1883    0.0005 C.ar    1  LIG1        0.1687
      4 C           0.8593    3.9166   -0.0001 C.ar    1  LIG1        0.2111
      5 O          -0.2061    3.0596   -0.0005 O.2     1  LIG1       -0.4560
      6 H          -0.4454    1.0099   -0.0004 H       1  LIG1        0.1031
      7 H           2.2858    0.9444    0.0008 H       1  LIG1        0.0686
      8 O           3.2495    3.7354    0.0010 O.3     1  LIG1       -0.4912
      9 C           4.3373    2.8360    0.0016 C.3     1  LIG1        0.0790
     10 H           5.2372    3.4501    0.0020 H       1  LIG1        0.0660
     11 H           4.3331    2.2006    0.8953 H       1  LIG1        0.0660
     12 H           4.3340    2.2005   -0.8920 H       1  LIG1        0.0660
     13 C           0.5637    5.3208   -0.0003 C.ar    1  LIG1        0.1780
     14 C          -0.6138    6.0025   -0.0007 C.ar    1  LIG1        0.0300
     15 C          -0.2709    7.3822   -0.0007 C.ar    1  LIG1        0.1694
     16 C           1.1095    7.4635   -0.0002 C.ar    1  LIG1        0.2121
     17 O           1.6020    6.1761   -0.0000 O.2     1  LIG1       -0.4447
     18 H          -1.6133    5.5986   -0.0010 H       1  LIG1        0.0694
     19 O          -1.2739    8.2851   -0.0011 O.3     1  LIG1       -0.4912
     20 C          -0.9800    9.6645   -0.0013 C.3     1  LIG1        0.0790
     21 H          -1.9411   10.1790   -0.0020 H       1  LIG1        0.0660
     22 H          -0.4225    9.9517    0.8954 H       1  LIG1        0.0660
     23 H          -0.4214    9.9512   -0.8975 H       1  LIG1        0.0660
     24 C           2.1636    8.4607    0.0001 C.ar    1  LIG1        0.1780
     25 C           2.2511    9.8227    0.0007 C.ar    1  LIG1        0.0300
     26 C           3.6350   10.1466    0.0007 C.ar    1  LIG1        0.1694
     27 C           4.3340    8.9587    0.0001 C.ar    1  LIG1        0.2121
     28 O           3.4104    7.9400   -0.0003 O.2     1  LIG1       -0.4447
     29 H           1.4690   10.5592    0.0011 H       1  LIG1        0.0694
     30 O           3.9731   11.4548    0.0011 O.3     1  LIG1       -0.4912
     31 C           5.3332   11.8281    0.0009 C.3     1  LIG1        0.0790
     32 H           5.3485   12.9182    0.0010 H       1  LIG1        0.0660
     33 H           5.8449   11.4642    0.8971 H       1  LIG1        0.0660
     34 H           5.8446   11.4643   -0.8954 H       1  LIG1        0.0660
     35 C           5.7041    8.4722   -0.0002 C.ar    1  LIG1        0.1770
     36 C           6.9565    9.0208    0.0004 C.ar    1  LIG1        0.0292
     37 C           7.8692    7.9258   -0.0006 C.ar    1  LIG1        0.1583
     38 C           7.1277    6.7870   -0.0018 C.ar    1  LIG1        0.1342
     39 O           5.8037    7.1184   -0.0016 O.2     1  LIG1       -0.4560
     40 H           7.3573    5.7360   -0.0028 H       1  LIG1        0.1068
     41 H           7.2431   10.0562    0.0015 H       1  LIG1        0.0693
     42 O           9.2099    8.0960   -0.0003 O.3     1  LIG1       -0.4919
     43 C           9.9572    6.8983   -0.0014 C.3     1  LIG1        0.0789
     44 H          11.0096    7.1808   -0.0010 H       1  LIG1        0.0660
     45 H           9.7402    6.2975    0.8906 H       1  LIG1        0.0660
     46 H           9.7403    6.2992   -0.8946 H       1  LIG1        0.0660
@<TRIPOS>BOND
     1    23    20    1
     2    34    31    1
     3    46    43    1
     4    12     9    1
     5    40    38    1
     6    21    20    1
     7    38    39   ar
     8    38    37   ar
     9    39    35   ar
    10    43    44    1
    11    43    42    1
    12    43    45    1
    13    20    19    1
    14    20    22    1
    15    19    15    1
    16    18    14    1
    17    14    15   ar
    18    14    13   ar
    19    15    16   ar
    20    37    42    1
    21    37    36   ar
    22     5     1   ar
    23     5     4   ar
    24     6     1    1
    25    28    27   ar
    26    28    24   ar
    27    13     4    1
    28    13    17   ar
    29    16    17   ar
    30    16    24    1
    31    35    27    1
    32    35    36   ar
    33     1     2   ar
    34     4     3   ar
    35    27    26   ar
    36    24    25   ar
    37     2     3   ar
    38     2     7    1
    39    36    41    1
    40     3     8    1
    41    26    25   ar
    42    26    30    1
    43    25    29    1
    44    31    32    1
    45    31    30    1
    46    31    33    1
    47     8     9    1
    48     9    10    1
    49     9    11    1
