@<TRIPOS>MOLECULE
mol_data/opt/cam/geoms/mol2/12al12al-12al-12al.out
 46 49 0 0 0
SMALL
GASTEIGER

@<TRIPOS>ATOM
      1 C          -0.2842    2.0777    0.3363 C.ar    1  LIG1        0.0964
      2 C           1.0479    1.8239    0.3169 C.ar    1  LIG1        0.0187
      3 C           1.6826    3.1024    0.2162 C.ar    1  LIG1        0.1687
      4 C           0.6818    4.0384    0.1822 C.ar    1  LIG1        0.2111
      5 O          -0.5264    3.4020    0.2565 O.2     1  LIG1       -0.4560
      6 H          -1.1509    1.4395    0.4013 H       1  LIG1        0.1031
      7 H           1.5169    0.8540    0.3673 H       1  LIG1        0.0686
      8 O           2.9963    3.3983    0.1614 O.3     1  LIG1       -0.4912
      9 C           3.8833    2.2996    0.2084 C.3     1  LIG1        0.0790
     10 H           4.8888    2.7155    0.1552 H       1  LIG1        0.0660
     11 H           3.7759    1.7368    1.1431 H       1  LIG1        0.0660
     12 H           3.7286    1.6224   -0.6398 H       1  LIG1        0.0660
     13 C           0.6485    5.4690    0.0890 C.ar    1  LIG1        0.1780
     14 C          -0.3998    6.3481    0.0595 C.ar    1  LIG1        0.0300
     15 C           0.1916    7.6372   -0.0415 C.ar    1  LIG1        0.1694
     16 C           1.5514    7.4602   -0.0669 C.ar    1  LIG1        0.2121
     17 O           1.8275    6.1242    0.0140 O.2     1  LIG1       -0.4447
     18 H          -1.4448    6.0883    0.1046 H       1  LIG1        0.0694
     19 O          -0.3941    8.8532   -0.1049 O.3     1  LIG1       -0.4912
     20 C          -1.8082    8.8624   -0.0834 C.3     1  LIG1        0.0790
     21 H          -2.1109    9.9071   -0.1470 H       1  LIG1        0.0660
     22 H          -2.2227    8.3130   -0.9362 H       1  LIG1        0.0660
     23 H          -2.1950    8.4297    0.8463 H       1  LIG1        0.0660
     24 C           2.6293    8.3978   -0.1604 C.ar    1  LIG1        0.1780
     25 C           2.6474    9.7605   -0.2498 C.ar    1  LIG1        0.0300
     26 C           4.0205   10.1276   -0.3186 C.ar    1  LIG1        0.1694
     27 C           4.7508    8.9679   -0.2629 C.ar    1  LIG1        0.2121
     28 O           3.8956    7.9074   -0.1618 O.2     1  LIG1       -0.4447
     29 H           1.7919   10.4159   -0.2753 H       1  LIG1        0.0694
     30 O           4.4774   11.3984   -0.4618 O.3     1  LIG1       -0.4912
     31 C           5.0794   11.9562    0.6996 C.3     1  LIG1        0.0790
     32 H           5.3280   12.9887    0.4511 H       1  LIG1        0.0660
     33 H           4.3830   11.9450    1.5460 H       1  LIG1        0.0660
     34 H           5.9928   11.4189    0.9684 H       1  LIG1        0.0660
     35 C           6.1491    8.6460   -0.3170 C.ar    1  LIG1        0.1770
     36 C           6.8026    7.4471   -0.3207 C.ar    1  LIG1        0.0292
     37 C           8.1930    7.7717   -0.3939 C.ar    1  LIG1        0.1583
     38 C           8.2855    9.1278   -0.4273 C.ar    1  LIG1        0.1342
     39 O           7.0314    9.6699   -0.3795 O.2     1  LIG1       -0.4560
     40 H           9.1141    9.8115   -0.4852 H       1  LIG1        0.1068
     41 H           6.3356    6.4765   -0.2811 H       1  LIG1        0.0693
     42 O           9.2620    6.9409   -0.4266 O.3     1  LIG1       -0.4919
     43 C           8.9700    5.5601   -0.4014 C.3     1  LIG1        0.0789
     44 H           9.9278    5.0410   -0.4375 H       1  LIG1        0.0660
     45 H           8.4423    5.2771    0.5173 H       1  LIG1        0.0660
     46 H           8.3658    5.2608   -1.2661 H       1  LIG1        0.0660
@<TRIPOS>BOND
     1    46    43    1
     2    22    20    1
     3    12     9    1
     4    40    38    1
     5    30    26    1
     6    30    31    1
     7    44    43    1
     8    38    37   ar
     9    38    39   ar
    10    42    43    1
    11    42    37    1
    12    43    45    1
    13    37    36   ar
    14    39    35   ar
    15    36    35   ar
    16    36    41    1
    17    26    27   ar
    18    26    25   ar
    19    35    27    1
    20    29    25    1
    21    27    28   ar
    22    25    24   ar
    23    28    24   ar
    24    24    16    1
    25    21    20    1
    26    19    20    1
    27    19    15    1
    28    20    23    1
    29    16    15   ar
    30    16    17   ar
    31    15    14   ar
    32    17    13   ar
    33    14    13   ar
    34    14    18    1
    35    13     4    1
    36    10     9    1
    37     8     9    1
    38     8     3    1
    39     4     3   ar
    40     4     5   ar
    41     9    11    1
    42     3     2   ar
    43     5     1   ar
    44     2     1   ar
    45     2     7    1
    46     1     6    1
    47    32    31    1
    48    31    34    1
    49    31    33    1
