@<TRIPOS>MOLECULE
mol_data/opt/cam/geoms/mol2/12al12al12al12al.out
 46 49 0 0 0
SMALL
GASTEIGER

@<TRIPOS>ATOM
      1 C           0.8067    1.3761   -0.0002 C.ar    1  LIG1        0.0964
      2 C           2.1499    1.5790    0.0001 C.ar    1  LIG1        0.0187
      3 C           2.3168    2.9971   -0.0001 C.ar    1  LIG1        0.1687
      4 C           1.0618    3.5465   -0.0001 C.ar    1  LIG1        0.2111
      5 O           0.1372    2.5456   -0.0001 O.2     1  LIG1       -0.4560
      6 H           0.2011    0.4841   -0.0003 H       1  LIG1        0.1031
      7 H           2.9144    0.8183    0.0002 H       1  LIG1        0.0686
      8 O           3.4498    3.7369   -0.0000 O.3     1  LIG1       -0.4912
      9 C           4.6635    3.0109    0.0000 C.3     1  LIG1        0.0790
     10 H           5.4652    3.7487   -0.0000 H       1  LIG1        0.0660
     11 H           4.7518    2.3824    0.8935 H       1  LIG1        0.0660
     12 H           4.7518    2.3823   -0.8934 H       1  LIG1        0.0660
     13 C           0.6209    4.9112   -0.0001 C.ar    1  LIG1        0.1780
     14 C           1.3242    6.0858   -0.0001 C.ar    1  LIG1        0.0300
     15 C           0.3404    7.1121   -0.0001 C.ar    1  LIG1        0.1694
     16 C          -0.8876    6.5007   -0.0002 C.ar    1  LIG1        0.2121
     17 O          -0.7094    5.1468   -0.0001 O.2     1  LIG1       -0.4447
     18 H           2.3983    6.1724   -0.0001 H       1  LIG1        0.0694
     19 O           0.4951    8.4561   -0.0001 O.3     1  LIG1       -0.4912
     20 C           1.8298    8.9235   -0.0001 C.3     1  LIG1        0.0790
     21 H           1.7765   10.0119   -0.0002 H       1  LIG1        0.0660
     22 H           2.3690    8.5877    0.8928 H       1  LIG1        0.0660
     23 H           2.3690    8.5876   -0.8931 H       1  LIG1        0.0660
     24 C          -2.2154    7.0353   -0.0002 C.ar    1  LIG1        0.1780
     25 C          -2.6662    8.3290   -0.0002 C.ar    1  LIG1        0.0300
     26 C          -4.0848    8.2321   -0.0002 C.ar    1  LIG1        0.1694
     27 C          -4.4041    6.8992   -0.0002 C.ar    1  LIG1        0.2121
     28 O          -3.2511    6.1665   -0.0002 O.2     1  LIG1       -0.4447
     29 H          -2.0438    9.2086   -0.0002 H       1  LIG1        0.0694
     30 O          -5.0161    9.2148   -0.0003 O.3     1  LIG1       -0.4912
     31 C          -4.5160   10.5367   -0.0003 C.3     1  LIG1        0.0790
     32 H          -5.3836   11.1962   -0.0003 H       1  LIG1        0.0660
     33 H          -3.9116   10.7344    0.8924 H       1  LIG1        0.0660
     34 H          -3.9116   10.7344   -0.8930 H       1  LIG1        0.0660
     35 C          -5.6683    6.2213   -0.0003 C.ar    1  LIG1        0.1770
     36 C          -6.9485    6.7024   -0.0003 C.ar    1  LIG1        0.0292
     37 C          -7.7866    5.5450   -0.0003 C.ar    1  LIG1        0.1583
     38 C          -6.9680    4.4589   -0.0003 C.ar    1  LIG1        0.1342
     39 O          -5.6658    4.8703   -0.0003 O.2     1  LIG1       -0.4560
     40 H          -7.1475    3.3981   -0.0003 H       1  LIG1        0.1068
     41 H          -7.2263    7.7435   -0.0003 H       1  LIG1        0.0693
     42 O          -9.1403    5.4727   -0.0003 O.3     1  LIG1       -0.4919
     43 C          -9.8208    6.7089   -0.0004 C.3     1  LIG1        0.0789
     44 H         -10.8859    6.4762   -0.0004 H       1  LIG1        0.0660
     45 H          -9.5822    7.3003    0.8917 H       1  LIG1        0.0660
     46 H          -9.5821    7.3002   -0.8925 H       1  LIG1        0.0660
@<TRIPOS>BOND
     1    12     9    1
     2    23    20    1
     3    34    31    1
     4    46    43    1
     5    44    43    1
     6    43    42    1
     7    43    45    1
     8    42    37    1
     9    32    31    1
    10    40    38    1
    11    37    38   ar
    12    37    36   ar
    13    38    39   ar
    14    31    30    1
    15    31    33    1
    16    41    36    1
    17    36    35   ar
    18    35    39   ar
    19    35    27    1
    20     6     1    1
    21    30    26    1
    22    27    26   ar
    23    27    28   ar
    24    26    25   ar
    25    28    24   ar
    26    25    29    1
    27    25    24   ar
    28    24    16    1
    29     1     5   ar
    30     1     2   ar
    31    21    20    1
    32    16    17   ar
    33    16    15   ar
    34    20    19    1
    35    20    22    1
    36    17    13   ar
    37    19    15    1
    38    15    14   ar
    39    13    14   ar
    40    13     4    1
    41    14    18    1
    42     5     4   ar
    43     4     3   ar
    44     3     8    1
    45     3     2   ar
    46     8     9    1
    47    10     9    1
    48     9    11    1
    49     2     7    1
