@<TRIPOS>MOLECULE
mol_data/opt/cam/geoms/mol2/12al12al-12al12al-.out
 46 49 0 0 0
SMALL
GASTEIGER

@<TRIPOS>ATOM
      1 C           0.3432    1.6761   -0.0002 C.ar    1  LIG1        0.0964
      2 C           1.6980    1.7459   -0.0001 C.ar    1  LIG1        0.0187
      3 C           2.0107    3.1421   -0.0001 C.ar    1  LIG1        0.1687
      4 C           0.8160    3.8139   -0.0001 C.ar    1  LIG1        0.2111
      5 O          -0.2060    2.9070   -0.0001 O.2     1  LIG1       -0.4560
      6 H          -0.3475    0.8481   -0.0002 H       1  LIG1        0.1031
      7 H           2.3828    0.9127   -0.0000 H       1  LIG1        0.0686
      8 O           3.2188    3.7436   -0.0001 O.3     1  LIG1       -0.4912
      9 C           4.3391    2.8816   -0.0001 C.3     1  LIG1        0.0790
     10 H           5.2199    3.5229   -0.0001 H       1  LIG1        0.0660
     11 H           4.3565    2.2468    0.8934 H       1  LIG1        0.0660
     12 H           4.3565    2.2468   -0.8937 H       1  LIG1        0.0660
     13 C           0.4542    5.2024   -0.0001 C.ar    1  LIG1        0.1780
     14 C          -0.7481    5.8379   -0.0001 C.ar    1  LIG1        0.0300
     15 C          -0.4630    7.2345   -0.0001 C.ar    1  LIG1        0.1694
     16 C           0.9118    7.3667   -0.0001 C.ar    1  LIG1        0.2121
     17 O           1.4599    6.1005   -0.0001 O.2     1  LIG1       -0.4447
     18 H          -1.7301    5.3931   -0.0000 H       1  LIG1        0.0694
     19 O          -1.4916    8.1013   -0.0000 O.3     1  LIG1       -0.4912
     20 C          -1.2451    9.4964   -0.0002 C.3     1  LIG1        0.0790
     21 H          -2.2271    9.9694   -0.0002 H       1  LIG1        0.0660
     22 H          -0.6881    9.8017    0.8891 H       1  LIG1        0.0660
     23 H          -0.6881    9.8015   -0.8894 H       1  LIG1        0.0660
     24 C           1.9418    8.3749   -0.0001 C.ar    1  LIG1        0.1780
     25 C           3.2990    8.2062   -0.0000 C.ar    1  LIG1        0.0300
     26 C           3.8550    9.5180   -0.0001 C.ar    1  LIG1        0.1694
     27 C           2.8077   10.4012   -0.0002 C.ar    1  LIG1        0.2121
     28 O           1.6326    9.6903   -0.0002 O.2     1  LIG1       -0.4447
     29 H           3.8075    7.2562    0.0000 H       1  LIG1        0.0694
     30 O           5.1515    9.8883   -0.0000 O.3     1  LIG1       -0.4912
     31 C           6.0951    8.8365    0.0000 C.3     1  LIG1        0.0790
     32 H           7.0779    9.3072    0.0000 H       1  LIG1        0.0660
     33 H           5.9952    8.2086    0.8930 H       1  LIG1        0.0660
     34 H           5.9952    8.2085   -0.8929 H       1  LIG1        0.0660
     35 C           2.6948   11.8315   -0.0002 C.ar    1  LIG1        0.1770
     36 C           1.6121   12.6611   -0.0002 C.ar    1  LIG1        0.0292
     37 C           2.1460   13.9842   -0.0003 C.ar    1  LIG1        0.1583
     38 C           3.5028   13.8717   -0.0003 C.ar    1  LIG1        0.1342
     39 O           3.8445   12.5456   -0.0002 O.2     1  LIG1       -0.4560
     40 H           4.3183   14.5732   -0.0003 H       1  LIG1        0.1068
     41 H           0.5705   12.3830   -0.0002 H       1  LIG1        0.0693
     42 O           1.3676   15.0888   -0.0003 O.3     1  LIG1       -0.4919
     43 C           2.0749   16.3105   -0.0004 C.3     1  LIG1        0.0789
     44 H           1.3315   17.1072   -0.0004 H       1  LIG1        0.0660
     45 H           2.7067   16.4005    0.8921 H       1  LIG1        0.0660
     46 H           2.7067   16.4004   -0.8928 H       1  LIG1        0.0660
@<TRIPOS>BOND
     1    12     9    1
     2    34    31    1
     3    46    43    1
     4    23    20    1
     5    44    43    1
     6    43    42    1
     7    43    45    1
     8    42    37    1
     9    40    38    1
    10    37    38   ar
    11    37    36   ar
    12    38    39   ar
    13    36    41    1
    14    36    35   ar
    15    39    35   ar
    16    35    27    1
    17     6     1    1
    18    21    20    1
    19    28    27   ar
    20    28    24   ar
    21    20    19    1
    22    20    22    1
    23    27    26   ar
    24     1     5   ar
    25     1     2   ar
    26    17    16   ar
    27    17    13   ar
    28    10     9    1
    29     9     8    1
    30     9    11    1
    31    16    24    1
    32    16    15   ar
    33    24    25   ar
    34     3     4   ar
    35     3     8    1
    36     3     2   ar
    37     4     5   ar
    38     4    13    1
    39    13    14   ar
    40    26    25   ar
    41    26    30    1
    42     2     7    1
    43    15    14   ar
    44    15    19    1
    45    14    18    1
    46    25    29    1
    47    30    31    1
    48    31    32    1
    49    31    33    1
