@<TRIPOS>MOLECULE
mol_data/opt/cam/geoms/mol2/12al12al12al12al-.out
 46 49 0 0 0
SMALL
GASTEIGER

@<TRIPOS>ATOM
      1 C           0.6244    1.4224    0.0002 C.ar    1  LIG1        0.0964
      2 C           1.9732    1.5827   -0.0001 C.ar    1  LIG1        0.0187
      3 C           2.1851    2.9949   -0.0000 C.ar    1  LIG1        0.1687
      4 C           0.9482    3.5839   -0.0000 C.ar    1  LIG1        0.2111
      5 O          -0.0079    2.6126   -0.0001 O.2     1  LIG1       -0.4560
      6 H          -0.0090    0.5498    0.0003 H       1  LIG1        0.1031
      7 H           2.7132    0.7981   -0.0003 H       1  LIG1        0.0686
      8 O           3.3409    3.6981    0.0000 O.3     1  LIG1       -0.4912
      9 C           4.5310    2.9340   -0.0001 C.3     1  LIG1        0.0790
     10 H           5.3557    3.6461   -0.0001 H       1  LIG1        0.0660
     11 H           4.5994    2.3029    0.8933 H       1  LIG1        0.0660
     12 H           4.5993    2.3030   -0.8936 H       1  LIG1        0.0660
     13 C           0.5504    4.9618   -0.0001 C.ar    1  LIG1        0.1780
     14 C           1.2895    6.1141   -0.0001 C.ar    1  LIG1        0.0300
     15 C           0.3379    7.1707   -0.0001 C.ar    1  LIG1        0.1694
     16 C          -0.9082    6.5977   -0.0001 C.ar    1  LIG1        0.2121
     17 O          -0.7722    5.2385   -0.0001 O.2     1  LIG1       -0.4447
     18 H           2.3657    6.1680   -0.0000 H       1  LIG1        0.0694
     19 O           0.5344    8.5088   -0.0001 O.3     1  LIG1       -0.4912
     20 C           1.8831    8.9347   -0.0001 C.3     1  LIG1        0.0790
     21 H           1.8633   10.0241   -0.0001 H       1  LIG1        0.0660
     22 H           2.4115    8.5823    0.8929 H       1  LIG1        0.0660
     23 H           2.4115    8.5822   -0.8931 H       1  LIG1        0.0660
     24 C          -2.2202    7.1704   -0.0002 C.ar    1  LIG1        0.1780
     25 C          -2.6387    8.4732   -0.0002 C.ar    1  LIG1        0.0300
     26 C          -4.0621    8.4178   -0.0003 C.ar    1  LIG1        0.1694
     27 C          -4.4157    7.0927   -0.0003 C.ar    1  LIG1        0.2121
     28 O          -3.2785    6.3301   -0.0002 O.2     1  LIG1       -0.4447
     29 H          -1.9948    9.3371   -0.0002 H       1  LIG1        0.0694
     30 O          -4.9500    9.4344   -0.0003 O.3     1  LIG1       -0.4912
     31 C          -4.3991   10.7346   -0.0003 C.3     1  LIG1        0.0790
     32 H          -5.2421   11.4253   -0.0003 H       1  LIG1        0.0660
     33 H          -3.7878   10.9116    0.8924 H       1  LIG1        0.0660
     34 H          -3.7877   10.9115   -0.8930 H       1  LIG1        0.0660
     35 C          -5.6634    6.3846   -0.0003 C.ar    1  LIG1        0.1770
     36 C          -5.9491    5.0513   -0.0003 C.ar    1  LIG1        0.0292
     37 C          -7.3732    4.9688   -0.0003 C.ar    1  LIG1        0.1583
     38 C          -7.8521    6.2436   -0.0004 C.ar    1  LIG1        0.1342
     39 O          -6.8003    7.1200   -0.0004 O.2     1  LIG1       -0.4560
     40 H          -8.8353    6.6802   -0.0005 H       1  LIG1        0.1068
     41 H          -5.2468    4.2333   -0.0002 H       1  LIG1        0.0693
     42 O          -8.0415    3.7935   -0.0003 O.3     1  LIG1       -0.4919
     43 C          -9.4473    3.9136   -0.0004 C.3     1  LIG1        0.0789
     44 H          -9.8525    2.9019   -0.0004 H       1  LIG1        0.0660
     45 H          -9.7981    4.4472    0.8919 H       1  LIG1        0.0660
     46 H          -9.7981    4.4472   -0.8928 H       1  LIG1        0.0660
@<TRIPOS>BOND
     1    12     9    1
     2    23    20    1
     3    34    31    1
     4    46    43    1
     5    40    38    1
     6    39    38   ar
     7    39    35   ar
     8    38    37   ar
     9    43    44    1
    10    43    42    1
    11    43    45    1
    12    37    42    1
    13    37    36   ar
    14    32    31    1
    15    35    36   ar
    16    35    27    1
    17    31    30    1
    18    31    33    1
    19    36    41    1
    20    30    26    1
    21    27    26   ar
    22    27    28   ar
    23    26    25   ar
    24     7     2    1
    25    28    24   ar
    26    25    29    1
    27    25    24   ar
    28    24    16    1
    29     2     3   ar
    30     2     1   ar
    31    16    17   ar
    32    16    15   ar
    33    21    20    1
    34    17    13   ar
    35    19    20    1
    36    19    15    1
    37    20    22    1
    38    15    14   ar
    39     9    10    1
    40     9     8    1
    41     9    11    1
    42    13    14   ar
    43    13     4    1
    44    14    18    1
    45     5     4   ar
    46     5     1   ar
    47     4     3   ar
    48     3     8    1
    49     1     6    1
