@<TRIPOS>MOLECULE
mol_data/opt/cam/geoms/mol2/12al6lh-6ef13ea-.out
 50 53 0 0 0
SMALL
GASTEIGER

@<TRIPOS>ATOM
      1 C           0.2136    1.4986    0.3996 C.ar    1  LIG1        0.0962
      2 C           1.5420    1.5304    0.1228 C.ar    1  LIG1        0.0186
      3 C           1.8481    2.9100   -0.0731 C.ar    1  LIG1        0.1657
      4 C           0.6852    3.6217    0.1026 C.ar    1  LIG1        0.1813
      5 O          -0.3133    2.7335    0.3903 O.2     1  LIG1       -0.4590
      6 H          -0.4688    0.6929    0.6191 H       1  LIG1        0.1031
      7 H           2.2097    0.6853    0.0685 H       1  LIG1        0.0686
      8 O           3.0439    3.4719   -0.3791 O.3     1  LIG1       -0.4913
      9 C           4.1543    2.5972   -0.4037 C.3     1  LIG1        0.0790
     10 H           5.0268    3.2121   -0.6228 H       1  LIG1        0.0660
     11 H           4.2942    2.1038    0.5646 H       1  LIG1        0.0660
     12 H           4.0457    1.8352   -1.1841 H       1  LIG1        0.0660
     13 C          -0.7913    5.6484    0.5039 C.ar    1  LIG1        0.2262
     14 C           0.3950    5.0441    0.0152 C.ar    1  LIG1        0.0841
     15 C           1.3150    5.9056   -0.5669 C.ar    1  LIG1       -0.0230
     16 C           1.0824    7.2813   -0.6595 C.ar    1  LIG1        0.0519
     17 C          -0.1223    7.7611   -0.1400 C.ar    1  LIG1        0.0982
     18 N          -1.0183    6.9359    0.4214 N.ar    1  LIG1       -0.2104
     19 H           2.2388    5.4979   -0.9604 H       1  LIG1        0.0645
     20 O          -1.7194    4.8588    1.0836 O.3     1  LIG1       -0.4792
     21 C          -2.8933    5.5046    1.5541 C.3     1  LIG1        0.0804
     22 H          -3.5251    4.7079    1.9469 H       1  LIG1        0.0660
     23 H          -2.6597    6.2253    2.3424 H       1  LIG1        0.0660
     24 H          -3.4027    6.0375    0.7475 H       1  LIG1        0.0660
     25 N           2.0533    8.1149   -1.2253 N.pl3   1  LIG1       -0.3563
     26 H           2.6725    7.6371   -1.8648 H       1  LIG1        0.1424
     27 H           1.6905    8.9656   -1.6325 H       1  LIG1        0.1424
     28 C          -1.7454    9.6553   -0.6022 C.ar    1  LIG1        0.1233
     29 C          -0.4851    9.1995   -0.1610 C.ar    1  LIG1        0.0396
     30 C           0.4013   10.1670    0.2870 C.ar    1  LIG1       -0.0061
     31 C           0.0585   11.5174    0.3219 C.ar    1  LIG1        0.1449
     32 C          -1.2345   11.8777   -0.1011 C.ar    1  LIG1        0.1309
     33 N          -2.0775   10.9421   -0.5580 N.ar    1  LIG1       -0.2326
     34 H           1.3920    9.8919    0.6311 H       1  LIG1        0.0662
     35 C          -2.7303    8.7784   -1.1755 C.1     1  LIG1       -0.0491
     36 C          -3.5696    8.0923   -1.6975 C.1     1  LIG1       -0.1124
     37 H          -4.3069    7.4739   -2.1548 H       1  LIG1        0.1232
     38 O           1.0231   12.3537    0.7400 O.3     1  LIG1       -0.5045
     39 H           0.7147   13.2644    0.8895 H       1  LIG1        0.2922
     40 C          -1.8046   13.2360   -0.1563 C.ar    1  LIG1        0.0841
     41 C          -1.4728   14.5140    0.3025 C.ar    1  LIG1        0.0515
     42 C          -2.5140   15.3972   -0.1114 C.ar    1  LIG1       -0.0283
     43 C          -3.4360   14.6488   -0.7904 C.ar    1  LIG1        0.0034
     44 N          -2.9951   13.3609   -0.8088 N.ar    1  LIG1       -0.3584
     45 H          -3.4455   12.5387   -1.1880 H       1  LIG1        0.1654
     46 H          -4.3653   14.9322   -1.2595 H       1  LIG1        0.0807
     47 C          -0.3547   14.9202    1.0773 C.1     1  LIG1       -0.0675
     48 C           0.5837   15.2950    1.7382 C.1     1  LIG1       -0.1138
     49 H           1.4071   15.6201    2.3318 H       1  LIG1        0.1232
     50 H          -2.5550   16.4570    0.0879 H       1  LIG1        0.0645
@<TRIPOS>BOND
     1    37    36    1
     2    26    25    1
     3    36    35    3
     4    27    25    1
     5    46    43    1
     6    25    16    1
     7    45    44    1
     8    12     9    1
     9    35    28    1
    10    19    15    1
    11    44    43   ar
    12    44    40   ar
    13    43    42   ar
    14    16    15   ar
    15    16    17   ar
    16    10     9    1
    17    28    33   ar
    18    28    29   ar
    19    15    14   ar
    20    33    32   ar
    21     9     8    1
    22     9    11    1
    23     8     3    1
    24    29    17    1
    25    29    30   ar
    26    40    32    1
    27    40    41   ar
    28    17    18   ar
    29    42    50    1
    30    42    41   ar
    31    32    31   ar
    32     3     4   ar
    33     3     2   ar
    34    14     4    1
    35    14    13   ar
    36     7     2    1
    37     4     5   ar
    38     2     1   ar
    39    30    31   ar
    40    30    34    1
    41    41    47    1
    42    31    38    1
    43     5     1   ar
    44     1     6    1
    45    18    13   ar
    46    13    20    1
    47    38    39    1
    48    24    21    1
    49    47    48    3
    50    20    21    1
    51    21    22    1
    52    21    23    1
    53    48    49    1
