@<TRIPOS>MOLECULE
mol_data/opt/cam/geoms/mol2/12al12al-.out
 24 25 0 0 0
SMALL
GASTEIGER

@<TRIPOS>ATOM
      1 C           0.0744    1.8041   -0.0001 C.ar    1  LIG1        0.0964
      2 C           1.4277    1.7138    0.0000 C.ar    1  LIG1        0.0187
      3 C           1.9031    3.0640   -0.0000 C.ar    1  LIG1        0.1687
      4 C           0.7976    3.8723   -0.0001 C.ar    1  LIG1        0.2110
      5 O          -0.3245    3.0922   -0.0001 O.2     1  LIG1       -0.4560
      6 H          -0.7099    1.0642   -0.0001 H       1  LIG1        0.1031
      7 H           2.0102    0.8061    0.0001 H       1  LIG1        0.0686
      8 O           3.1739    3.5186   -0.0000 O.3     1  LIG1       -0.4912
      9 C           4.1853    2.5328   -0.0000 C.3     1  LIG1        0.0790
     10 H           5.1346    3.0677   -0.0001 H       1  LIG1        0.0660
     11 H           4.1296    1.8995    0.8933 H       1  LIG1        0.0660
     12 H           4.1296    1.8995   -0.8934 H       1  LIG1        0.0660
     13 C           0.5947    5.2962   -0.0001 C.ar    1  LIG1        0.1770
     14 C          -0.5392    6.0513   -0.0001 C.ar    1  LIG1        0.0292
     15 C          -0.0927    7.4067   -0.0001 C.ar    1  LIG1        0.1583
     16 C           1.2688    7.3821   -0.0002 C.ar    1  LIG1        0.1342
     17 O           1.6961    6.0820   -0.0002 O.2     1  LIG1       -0.4560
     18 H           2.0368    8.1353   -0.0002 H       1  LIG1        0.1068
     19 H          -1.5590    5.7014   -0.0000 H       1  LIG1        0.0693
     20 O          -0.9408    8.4583   -0.0001 O.3     1  LIG1       -0.4919
     21 C          -0.3147    9.7237   -0.0002 C.3     1  LIG1        0.0789
     22 H          -1.1087   10.4699   -0.0002 H       1  LIG1        0.0660
     23 H           0.3097    9.8550    0.8923 H       1  LIG1        0.0660
     24 H           0.3097    9.8550   -0.8928 H       1  LIG1        0.0660
@<TRIPOS>BOND
     1    12     9    1
     2    24    21    1
     3    18    16    1
     4    21    22    1
     5    21    20    1
     6    21    23    1
     7    16    17   ar
     8    16    15   ar
     9    17    13   ar
    10    15    20    1
    11    15    14   ar
    12    13     4    1
    13    13    14   ar
    14     6     1    1
    15     4     5   ar
    16     4     3   ar
    17    14    19    1
    18     1     5   ar
    19     1     2   ar
    20    10     9    1
    21     3     8    1
    22     3     2   ar
    23     9     8    1
    24     9    11    1
    25     2     7    1
