@<TRIPOS>MOLECULE
mol_data/opt/cam/geoms/mol2/12al12al12al.out
 35 37 0 0 0
SMALL
GASTEIGER

@<TRIPOS>ATOM
      1 C           0.3251    1.4647   -0.0002 C.ar    1  LIG1        0.0964
      2 C           1.6789    1.5750    0.0001 C.ar    1  LIG1        0.0187
      3 C           1.9429    2.9784   -0.0000 C.ar    1  LIG1        0.1687
      4 C           0.7290    3.6131   -0.0001 C.ar    1  LIG1        0.2111
      5 O          -0.2624    2.6780   -0.0001 O.2     1  LIG1       -0.4560
      6 H          -0.3404    0.6165   -0.0003 H       1  LIG1        0.1031
      7 H           2.3894    0.7634    0.0002 H       1  LIG1        0.0686
      8 O           3.1244    3.6388   -0.0000 O.3     1  LIG1       -0.4912
      9 C           4.2850    2.8310   -0.0000 C.3     1  LIG1        0.0790
     10 H           5.1356    3.5119   -0.0000 H       1  LIG1        0.0660
     11 H           4.3302    2.1978    0.8935 H       1  LIG1        0.0660
     12 H           4.3302    2.1978   -0.8935 H       1  LIG1        0.0660
     13 C           0.3833    5.0057   -0.0001 C.ar    1  LIG1        0.1780
     14 C           1.1655    6.1284   -0.0001 C.ar    1  LIG1        0.0300
     15 C           0.2540    7.2210   -0.0001 C.ar    1  LIG1        0.1694
     16 C          -1.0119    6.6961   -0.0001 C.ar    1  LIG1        0.2121
     17 O          -0.9280    5.3331   -0.0001 O.2     1  LIG1       -0.4447
     18 H           2.2430    6.1406   -0.0001 H       1  LIG1        0.0694
     19 O           0.5022    8.5516   -0.0002 O.3     1  LIG1       -0.4912
     20 C           1.8660    8.9240   -0.0002 C.3     1  LIG1        0.0790
     21 H           1.8891   10.0135   -0.0002 H       1  LIG1        0.0660
     22 H           2.3810    8.5516    0.8927 H       1  LIG1        0.0660
     23 H           2.3810    8.5516   -0.8931 H       1  LIG1        0.0660
     24 C          -2.3044    7.3199   -0.0002 C.ar    1  LIG1        0.1770
     25 C          -2.6693    8.6375   -0.0002 C.ar    1  LIG1        0.0292
     26 C          -4.0985    8.6331   -0.0002 C.ar    1  LIG1        0.1583
     27 C          -4.4938    7.3317   -0.0002 C.ar    1  LIG1        0.1342
     28 O          -3.3946    6.5218   -0.0002 O.2     1  LIG1       -0.4560
     29 H          -5.4569    6.8520   -0.0002 H       1  LIG1        0.1068
     30 H          -1.9916    9.4752   -0.0002 H       1  LIG1        0.0693
     31 O          -4.9544    9.6838   -0.0002 O.3     1  LIG1       -0.4919
     32 C          -4.3569   10.9625   -0.0003 C.3     1  LIG1        0.0789
     33 H          -5.1730   11.6851   -0.0003 H       1  LIG1        0.0660
     34 H          -3.7388   11.1184    0.8920 H       1  LIG1        0.0660
     35 H          -3.7388   11.1184   -0.8926 H       1  LIG1        0.0660
@<TRIPOS>BOND
     1    12     9    1
     2    23    20    1
     3    35    32    1
     4    33    32    1
     5    32    31    1
     6    32    34    1
     7     6     1    1
     8    31    26    1
     9    29    27    1
    10    27    26   ar
    11    27    28   ar
    12    26    25   ar
    13    21    20    1
    14    25    30    1
    15    25    24   ar
    16    20    19    1
    17    20    22    1
    18     1     5   ar
    19     1     2   ar
    20    24    28   ar
    21    24    16    1
    22    19    15    1
    23    16    15   ar
    24    16    17   ar
    25    15    14   ar
    26    17    13   ar
    27    14    13   ar
    28    14    18    1
    29    13     4    1
    30     4     5   ar
    31     4     3   ar
    32     3     8    1
    33     3     2   ar
    34     8     9    1
    35    10     9    1
    36     9    11    1
    37     2     7    1
