@<TRIPOS>MOLECULE
mol_data/opt/cam/geoms/mol2/12al4ha-6ae12ei4fa-12fi-12da-4ee.out
 92 99 0 0 0
SMALL
GASTEIGER

@<TRIPOS>ATOM
      1 C           2.3574    2.1368    1.8964 C.ar    1  LIG1        0.0962
      2 C           2.3610    1.7155    0.6087 C.ar    1  LIG1        0.0186
      3 C           1.9899    2.8613   -0.1608 C.ar    1  LIG1        0.1656
      4 C           1.8002    3.9062    0.7037 C.ar    1  LIG1        0.1779
      5 O           2.0255    3.4397    1.9739 O.2     1  LIG1       -0.4591
      6 H           2.5691    1.6419    2.8308 H       1  LIG1        0.1031
      7 H           2.5881    0.7217    0.2567 H       1  LIG1        0.0686
      8 O           1.8092    2.9437   -1.5097 O.3     1  LIG1       -0.4913
      9 C           2.0410    1.7571   -2.2459 C.3     1  LIG1        0.0790
     10 H           1.8504    2.0003   -3.2907 H       1  LIG1        0.0660
     11 H           3.0756    1.4136   -2.1355 H       1  LIG1        0.0660
     12 H           1.3587    0.9604   -1.9311 H       1  LIG1        0.0660
     13 C           1.7507    6.1411   -0.4785 C.ar    1  LIG1        0.0360
     14 C           1.3256    7.4749   -0.4633 C.ar    1  LIG1       -0.0326
     15 C           1.3834    5.3038    0.5986 C.ar    1  LIG1        0.0415
     16 C           0.5801    8.0068    0.5829 C.ar    1  LIG1       -0.0146
     17 H           1.5848    8.1056   -1.3091 H       1  LIG1        0.0642
     18 C           0.6303    5.8504    1.6431 C.ar    1  LIG1       -0.0486
     19 C           0.2313    7.1741    1.6507 C.ar    1  LIG1       -0.0532
     20 H           0.3675    5.2065    2.4748 H       1  LIG1        0.0625
     21 N           2.5671    5.6986   -1.5049 N.pl3   1  LIG1       -0.3574
     22 H           2.4648    4.7281   -1.7740 H       1  LIG1        0.1423
     23 H           2.6152    6.3232   -2.2958 H       1  LIG1        0.1423
     24 H          -0.3280    7.5677    2.4918 H       1  LIG1        0.0624
     25 C          -1.1038    9.8183    1.0153 C.ar    1  LIG1        0.0362
     26 C           0.1612    9.4257    0.5614 C.ar    1  LIG1        0.0015
     27 C           0.9821   10.4349    0.0753 C.ar    1  LIG1       -0.0350
     28 C           0.5502   11.7635    0.0677 C.ar    1  LIG1        0.0543
     29 C          -0.7226   12.0427    0.6021 C.ar    1  LIG1        0.1225
     30 N          -1.5301   11.0715    1.0434 N.ar    1  LIG1       -0.2500
     31 H           1.9711   10.2035   -0.3043 H       1  LIG1        0.0637
     32 H          -1.8079    9.0662    1.3633 H       1  LIG1        0.0836
     33 C           1.3828   12.7626   -0.5248 C.1     1  LIG1       -0.0674
     34 C           2.1071   13.5604   -1.0600 C.1     1  LIG1       -0.1138
     35 H           2.7332   14.2924   -1.5155 H       1  LIG1        0.1232
     36 C          -1.2660   13.4013    0.6967 C.ar    1  LIG1        0.1705
     37 C          -0.7817   14.5992    1.1566 C.ar    1  LIG1        0.0754
     38 C          -1.8622   15.5467    1.0650 C.ar    1  LIG1        0.0115
     39 C          -2.9168   14.8524    0.5482 C.ar    1  LIG1        0.1434
     40 O          -2.5596   13.5499    0.3389 O.2     1  LIG1       -0.4516
     41 C           0.4898   14.8666    1.7298 C.1     1  LIG1       -0.0655
     42 C           1.5466   15.1290    2.2437 C.1     1  LIG1       -0.1138
     43 H           2.4891   15.3409    2.6927 H       1  LIG1        0.1232
     44 C          -1.7962   16.9638    1.5302 C.3     1  LIG1       -0.0349
     45 H          -2.7686   17.3116    1.8816 H       1  LIG1        0.0279
     46 H          -1.4833   17.6335    0.7250 H       1  LIG1        0.0279
     47 H          -1.0747   17.0533    2.3455 H       1  LIG1        0.0279
     48 C          -4.7128   16.3772   -0.3307 C.ar    1  LIG1        0.1282
     49 C          -6.0502   16.6288   -0.6057 C.ar    1  LIG1       -0.0087
     50 C          -4.3121   15.1617    0.2436 C.ar    1  LIG1        0.0590
     51 C          -7.0252   15.6638   -0.3397 C.ar    1  LIG1        0.0244
     52 H          -6.3386   17.5764   -1.0488 H       1  LIG1        0.0661
     53 C          -5.3008   14.2022    0.4871 C.ar    1  LIG1       -0.0469
     54 C          -6.6340   14.4364    0.2066 C.ar    1  LIG1       -0.0501
     55 H          -4.9957   13.2513    0.9091 H       1  LIG1        0.0626
     56 O          -3.7508   17.2920   -0.6325 O.3     1  LIG1       -0.5060
     57 H          -4.1645   18.0551   -1.0525 H       1  LIG1        0.2922
     58 H          -7.3782   13.6774    0.4123 H       1  LIG1        0.0625
     59 C          -8.4216   15.9317   -0.6315 C.ar    1  LIG1        0.1774
     60 C          -9.0959   17.0022   -1.1569 C.ar    1  LIG1        0.1663
     61 C         -10.4805   16.6730   -1.2243 C.ar    1  LIG1        0.0405
     62 C         -10.5601   15.4080   -0.7039 C.ar    1  LIG1        0.1784
     63 O          -9.3295   14.9524   -0.3570 O.2     1  LIG1       -0.4476
     64 O          -8.5146   18.1550   -1.5816 O.3     1  LIG1       -0.5030
     65 H          -9.1953   18.8271   -1.7024 H       1  LIG1        0.2923
     66 C         -11.5507   17.5338   -1.8125 C.3     1  LIG1       -0.0325
     67 H         -12.3416   16.9297   -2.2601 H       1  LIG1        0.0280
     68 H         -11.1377   18.1647   -2.6065 H       1  LIG1        0.0280
     69 H         -12.0265   18.1802   -1.0698 H       1  LIG1        0.0280
     70 C         -11.6570   14.5055   -0.4812 C.ar    1  LIG1        0.1882
     71 C         -12.9928   14.6804   -0.2022 C.ar    1  LIG1        0.1011
     72 C         -13.5648   13.3737   -0.1039 C.ar    1  LIG1        0.0024
     73 C         -12.5507   12.4902   -0.3093 C.ar    1  LIG1        0.1383
     74 O         -11.3922   13.1856   -0.5425 O.2     1  LIG1       -0.4503
     75 N         -14.1944   16.9173    0.2404 N.1     1  LIG1       -0.1907
     76 C         -13.6558   15.9130    0.0362 C.1     1  LIG1        0.1031
     77 H         -14.5914   13.1396    0.1158 H       1  LIG1        0.0668
     78 C         -13.5243   10.1613   -0.2345 C.ar    1  LIG1        0.0354
     79 C         -13.3027    8.7781   -0.2431 C.ar    1  LIG1       -0.0445
     80 C         -12.4185   11.0354   -0.3164 C.ar    1  LIG1        0.0338
     81 C         -12.0295    8.2515   -0.3325 C.ar    1  LIG1       -0.0451
     82 H         -14.1611    8.1195   -0.1798 H       1  LIG1        0.0630
     83 C         -11.1366   10.4885   -0.4080 C.ar    1  LIG1       -0.0345
     84 C         -10.9278    9.1105   -0.4173 C.ar    1  LIG1        0.0254
     85 H         -10.2831   11.1506   -0.4717 H       1  LIG1        0.0637
     86 H         -11.8765    7.1787   -0.3380 H       1  LIG1        0.0630
     87 C         -14.8806   10.6079   -0.1508 C.1     1  LIG1       -0.0690
     88 C         -16.0444   10.9108   -0.0805 C.1     1  LIG1       -0.1139
     89 H         -17.0723   11.1875   -0.0213 H       1  LIG1        0.1232
     90 C          -9.5993    8.5860   -0.5095 C.1     1  LIG1       -0.0696
     91 C          -8.4823    8.1446   -0.5865 C.1     1  LIG1       -0.1139
     92 H          -7.4903    7.7602   -0.6537 H       1  LIG1        0.1232
@<TRIPOS>BOND
     1    10     9    1
     2    68    66    1
     3    23    21    1
     4    67    66    1
     5     9    11    1
     6     9    12    1
     7     9     8    1
     8    66    61    1
     9    66    69    1
    10    22    21    1
    11    65    64    1
    12    64    60    1
    13    35    34    1
    14     8     3    1
    15    21    13    1
    16    17    14    1
    17    61    60   ar
    18    61    62   ar
    19    60    59   ar
    20    34    33    3
    21    57    56    1
    22    52    49    1
    23    62    70    1
    24    62    63   ar
    25    92    91    1
    26    56    48    1
    27    59    63   ar
    28    59    51    1
    29    49    51   ar
    30    49    48   ar
    31    91    90    3
    32    74    70   ar
    33    74    73   ar
    34    33    28    1
    35    90    84    1
    36    70    71   ar
    37    13    14   ar
    38    13    15   ar
    39    85    83    1
    40    14    16   ar
    41    84    83   ar
    42    84    81   ar
    43    83    80   ar
    44    51    54   ar
    45    86    81    1
    46    81    79   ar
    47    48    50   ar
    48    80    73    1
    49    80    78   ar
    50    73    72   ar
    51    31    27    1
    52    79    78   ar
    53    79    82    1
    54    78    87    1
    55    71    72   ar
    56    71    76    1
    57     3     2   ar
    58     3     4   ar
    59    87    88    3
    60    72    77    1
    61    88    89    1
    62    76    75    3
    63    28    27   ar
    64    28    29   ar
    65    27    26   ar
    66    54    58    1
    67    54    53   ar
    68    50    53   ar
    69    50    39    1
    70     7     2    1
    71    40    39   ar
    72    40    36   ar
    73    53    55    1
    74    39    38   ar
    75    26    16    1
    76    26    25   ar
    77    16    19   ar
    78    15     4    1
    79    15    18   ar
    80    29    36    1
    81    29    30   ar
    82     2     1   ar
    83    36    37   ar
    84     4     5   ar
    85    46    44    1
    86    25    30   ar
    87    25    32    1
    88    38    37   ar
    89    38    44    1
    90    37    41    1
    91    44    45    1
    92    44    47    1
    93    18    19   ar
    94    18    20    1
    95    19    24    1
    96    41    42    3
    97     1     5   ar
    98     1     6    1
    99    42    43    1
