@<TRIPOS>MOLECULE
mol_data/opt/cam/geoms/mol2/12da4he-4ah4af.out
 47 50 0 0 0
SMALL
GASTEIGER

@<TRIPOS>ATOM
      1 C           0.8190    1.6473   -0.7312 C.ar    1  LIG1        0.1099
      2 C           1.6381    1.6160    0.3547 C.ar    1  LIG1        0.0900
      3 C           1.7419    2.9702    0.8189 C.ar    1  LIG1        0.0016
      4 C           0.9777    3.7231   -0.0212 C.ar    1  LIG1        0.1379
      5 O           0.4173    2.9078   -0.9688 O.2     1  LIG1       -0.4616
      6 H           0.4596    0.8834   -1.4016 H       1  LIG1        0.1043
      7 N           2.7710   -0.4721    1.3600 N.1     1  LIG1       -0.1908
      8 C           2.2601    0.4615    0.9068 C.1     1  LIG1        0.1023
      9 H           2.2678    3.3106    1.6963 H       1  LIG1        0.0668
     10 C           1.4530    6.1409    0.4413 C.ar    1  LIG1        0.0360
     11 C           1.0214    7.4680    0.3796 C.ar    1  LIG1       -0.0315
     12 C           0.6180    5.1363   -0.0882 C.ar    1  LIG1        0.0391
     13 C          -0.1862    7.8430   -0.1954 C.ar    1  LIG1       -0.0007
     14 H           1.6514    8.2388    0.8128 H       1  LIG1        0.0643
     15 C          -0.5820    5.5112   -0.6874 C.ar    1  LIG1       -0.0333
     16 C          -1.0045    6.8376   -0.7566 C.ar    1  LIG1        0.0332
     17 H          -1.2127    4.7423   -1.1168 H       1  LIG1        0.0638
     18 N           2.6603    5.8337    1.0502 N.pl3   1  LIG1       -0.3574
     19 H           3.1380    5.0231    0.6811 H       1  LIG1        0.1423
     20 H           3.2793    6.6212    1.1777 H       1  LIG1        0.1423
     21 C          -2.2382    7.1184   -1.4286 C.1     1  LIG1       -0.0690
     22 C          -3.2777    7.2961   -2.0103 C.1     1  LIG1       -0.1139
     23 H          -4.1907    7.4651   -2.5326 H       1  LIG1        0.1232
     24 C           0.3810   10.2412   -0.6085 C.ar    1  LIG1       -0.0533
     25 C           0.0389   11.5834   -0.5845 C.ar    1  LIG1       -0.0517
     26 C          -0.5522    9.2820   -0.2081 C.ar    1  LIG1       -0.0149
     27 C          -1.2156   12.0227   -0.1605 C.ar    1  LIG1        0.0029
     28 H           0.7669   12.3273   -0.8921 H       1  LIG1        0.0624
     29 C          -1.8101    9.7040    0.2089 C.ar    1  LIG1       -0.0327
     30 C          -2.1606   11.0557    0.2381 C.ar    1  LIG1        0.0329
     31 H          -2.5438    8.9688    0.5217 H       1  LIG1        0.0642
     32 H           1.3615    9.9340   -0.9548 H       1  LIG1        0.0624
     33 N          -3.4279   11.4186    0.6924 N.pl3   1  LIG1       -0.3575
     34 H          -3.7653   12.3059    0.3465 H       1  LIG1        0.1423
     35 H          -4.1202   10.6880    0.6105 H       1  LIG1        0.1423
     36 C          -1.2324   14.2596   -1.2801 C.ar    1  LIG1       -0.0537
     37 C          -1.4838   15.6272   -1.2636 C.ar    1  LIG1       -0.0577
     38 C          -1.5206   13.4778   -0.1590 C.ar    1  LIG1       -0.0127
     39 C          -2.0235   16.2400   -0.1434 C.ar    1  LIG1       -0.0201
     40 H          -1.2603   16.2247   -2.1417 H       1  LIG1        0.0619
     41 C          -2.0663   14.0972    0.9709 C.ar    1  LIG1       -0.0124
     42 C          -2.3129   15.4663    0.9780 C.ar    1  LIG1        0.1174
     43 H          -2.2841   13.5036    1.8547 H       1  LIG1        0.0660
     44 H          -2.2265   17.3042   -0.1150 H       1  LIG1        0.0654
     45 H          -0.8246   13.7891   -2.1679 H       1  LIG1        0.0624
     46 O          -2.8348   16.1036    2.0615 O.3     1  LIG1       -0.5067
     47 H          -2.9704   15.4652    2.7716 H       1  LIG1        0.2921
@<TRIPOS>BOND
     1    23    22    1
     2    45    36    1
     3    40    37    1
     4    22    21    3
     5    21    16    1
     6     6     1    1
     7    36    37   ar
     8    36    38   ar
     9    37    39   ar
    10    17    15    1
    11     5     1   ar
    12     5     4   ar
    13    32    24    1
    14    28    25    1
    15    16    15   ar
    16    16    13   ar
    17     1     2   ar
    18    15    12   ar
    19    24    25   ar
    20    24    26   ar
    21    25    27   ar
    22    26    13    1
    23    26    29   ar
    24    13    11   ar
    25    27    38    1
    26    27    30   ar
    27    38    41   ar
    28    39    44    1
    29    39    42   ar
    30    12     4    1
    31    12    10   ar
    32     4     3   ar
    33    29    30   ar
    34    29    31    1
    35    30    33    1
    36    34    33    1
    37     2     3   ar
    38     2     8    1
    39    11    10   ar
    40    11    14    1
    41    10    18    1
    42    35    33    1
    43    19    18    1
    44     3     9    1
    45     8     7    3
    46    41    42   ar
    47    41    43    1
    48    42    46    1
    49    18    20    1
    50    46    47    1
