@<TRIPOS>MOLECULE
mol_data/opt/cam/geoms/mol2/12da12lf-6id4if12fa-6fi-4aa6ff.out
 91 98 0 0 0
SMALL
GASTEIGER

@<TRIPOS>ATOM
      1 C           1.5491    1.5375    0.4510 C.ar    1  LIG1        0.1100
      2 C           2.8589    1.7886    0.1712 C.ar    1  LIG1        0.0901
      3 C           2.9528    3.1899   -0.1153 C.ar    1  LIG1        0.0048
      4 C           1.6892    3.6748    0.0180 C.ar    1  LIG1        0.1748
      5 O           0.8308    2.6724    0.3631 O.2     1  LIG1       -0.4584
      6 H           1.0140    0.6397    0.7144 H       1  LIG1        0.1043
      7 N           4.7725    0.0584    0.1642 N.1     1  LIG1       -0.1908
      8 C           3.9124    0.8315    0.1672 C.1     1  LIG1        0.1023
      9 H           3.8304    3.7529   -0.3883 H       1  LIG1        0.0669
     10 C           1.1436    4.9967   -0.1222 C.ar    1  LIG1        0.2157
     11 C           1.7562    6.1971   -0.3539 C.ar    1  LIG1        0.2114
     12 C           0.7074    7.1657   -0.4138 C.ar    1  LIG1        0.2062
     13 C          -0.4685    6.4919   -0.2180 C.ar    1  LIG1        0.1826
     14 O          -0.1995    5.1640   -0.0403 O.2     1  LIG1       -0.4440
     15 O           3.0853    6.3458   -0.5389 O.3     1  LIG1       -0.4883
     16 C           3.6929    7.4622    0.1123 C.3     1  LIG1        0.0791
     17 H           4.7576    7.3941   -0.1078 H       1  LIG1        0.0660
     18 H           3.2939    8.4046   -0.2664 H       1  LIG1        0.0660
     19 H           3.5399    7.4079    1.1953 H       1  LIG1        0.0660
     20 O           0.9123    8.4909   -0.6261 O.3     1  LIG1       -0.5008
     21 H           0.1445    8.9903   -0.3195 H       1  LIG1        0.2924
     22 C          -2.8623    6.3953    0.6048 C.ar    1  LIG1        0.0497
     23 C          -1.8490    6.9554   -0.2090 C.ar    1  LIG1        0.0433
     24 C          -2.2137    8.0054   -1.0448 C.ar    1  LIG1       -0.0298
     25 C          -3.5160    8.5036   -1.0270 C.ar    1  LIG1        0.0784
     26 C          -4.4475    7.9250   -0.1500 C.ar    1  LIG1        0.0890
     27 N          -4.1012    6.8793    0.6083 N.ar    1  LIG1       -0.2499
     28 H          -1.4987    8.4174   -1.7495 H       1  LIG1        0.0639
     29 C          -2.6095    5.2322    1.5199 C.3     1  LIG1       -0.0216
     30 H          -1.7401    5.4132    2.1575 H       1  LIG1        0.0293
     31 H          -2.3966    4.3220    0.9545 H       1  LIG1        0.0293
     32 H          -3.4916    5.0765    2.1391 H       1  LIG1        0.0293
     33 N          -4.1133   10.3603   -2.7295 N.1     1  LIG1       -0.1908
     34 C          -3.8702    9.5324   -1.9591 C.1     1  LIG1        0.1013
     35 C          -6.2562    9.6845    0.2252 C.ar    1  LIG1       -0.0403
     36 C          -7.6203    9.9529    0.2982 C.ar    1  LIG1       -0.0439
     37 C          -5.8623    8.3671   -0.0488 C.ar    1  LIG1        0.0080
     38 C          -8.6118    8.9851    0.1106 C.ar    1  LIG1        0.0626
     39 H          -7.9351   10.9652    0.5210 H       1  LIG1        0.0629
     40 C          -6.8361    7.3780   -0.1984 C.ar    1  LIG1       -0.0100
     41 C          -8.1872    7.6647   -0.1347 C.ar    1  LIG1        0.1283
     42 H          -6.5162    6.3541   -0.3693 H       1  LIG1        0.0661
     43 C          -5.2901   10.8101    0.4999 C.3     1  LIG1       -0.0391
     44 H          -5.7087   11.4884    1.2467 H       1  LIG1        0.0278
     45 H          -5.0862   11.3943   -0.4014 H       1  LIG1        0.0278
     46 H          -4.3338   10.4478    0.8829 H       1  LIG1        0.0278
     47 O          -9.1189    6.6799   -0.3090 O.3     1  LIG1       -0.5060
     48 H          -8.6703    5.8415   -0.4694 H       1  LIG1        0.2922
     49 C         -10.0095    9.3688    0.1840 C.ar    1  LIG1        0.1803
     50 C         -10.6641   10.5688    0.3008 C.ar    1  LIG1        0.1633
     51 C         -12.0625   10.3083    0.3064 C.ar    1  LIG1        0.0266
     52 C         -12.1971    8.9530    0.1958 C.ar    1  LIG1        0.1444
     53 O         -10.9692    8.3920    0.1275 O.2     1  LIG1       -0.4508
     54 O         -10.0517   11.7756    0.3925 O.3     1  LIG1       -0.5032
     55 H         -10.7172   12.4721    0.3939 H       1  LIG1        0.2923
     56 H         -12.8552   11.0388    0.3732 H       1  LIG1        0.0692
     57 C         -13.2083    6.6516   -0.0861 C.ar    1  LIG1        0.2238
     58 C         -13.3316    8.0465    0.1357 C.ar    1  LIG1        0.0789
     59 C         -14.6247    8.5286    0.3116 C.ar    1  LIG1       -0.0410
     60 C         -15.7461    7.7126    0.2424 C.ar    1  LIG1       -0.0236
     61 C         -15.5029    6.3533   -0.0225 C.ar    1  LIG1        0.0777
     62 N         -14.2667    5.8650   -0.1566 N.ar    1  LIG1       -0.2122
     63 H         -14.7626    9.5842    0.5285 H       1  LIG1        0.0630
     64 O         -12.0419    6.0129   -0.2395 O.3     1  LIG1       -0.4919
     65 H         -11.2802    6.6146   -0.1763 H       1  LIG1        0.2938
     66 C         -17.1071    8.3070    0.5012 C.3     1  LIG1       -0.0377
     67 H         -17.7683    7.6039    1.0106 H       1  LIG1        0.0278
     68 H         -17.6085    8.6168   -0.4217 H       1  LIG1        0.0278
     69 H         -17.0147    9.1967    1.1289 H       1  LIG1        0.0278
     70 C         -17.7917    5.5663   -0.7790 C.ar    1  LIG1       -0.0520
     71 C         -18.7481    4.5673   -0.8926 C.ar    1  LIG1       -0.0532
     72 C         -16.5755    5.3270   -0.1355 C.ar    1  LIG1        0.0008
     73 C         -18.5266    3.2963   -0.3584 C.ar    1  LIG1       -0.0127
     74 H         -19.6740    4.7671   -1.4220 H       1  LIG1        0.0624
     75 C         -16.3428    4.0491    0.3791 C.ar    1  LIG1       -0.0520
     76 C         -17.3031    3.0546    0.2806 C.ar    1  LIG1       -0.0532
     77 H         -15.3917    3.8492    0.8582 H       1  LIG1        0.0624
     78 H         -17.9848    6.5308   -1.2326 H       1  LIG1        0.0624
     79 H         -17.1134    2.0830    0.7269 H       1  LIG1        0.0624
     80 C         -19.2705    0.9377   -0.9133 C.ar    1  LIG1        0.2204
     81 C         -19.5663    2.2429   -0.4602 C.ar    1  LIG1        0.0470
     82 C         -20.8864    2.5105   -0.1254 C.ar    1  LIG1       -0.0059
     83 C         -21.8443    1.5069   -0.2204 C.ar    1  LIG1        0.1357
     84 C         -21.4309    0.2561   -0.6531 C.ar    1  LIG1        0.0728
     85 N         -20.1745   -0.0172   -0.9985 N.ar    1  LIG1       -0.2173
     86 H         -21.1770    3.4913    0.2347 H       1  LIG1        0.0662
     87 H         -22.1453   -0.5641   -0.7298 H       1  LIG1        0.0868
     88 O         -18.0249    0.5748   -1.3050 O.3     1  LIG1       -0.4920
     89 H         -17.4610    1.3587   -1.3394 H       1  LIG1        0.2937
     90 O         -23.1302    1.7992    0.1245 O.3     1  LIG1       -0.5052
     91 H         -23.6742    1.0095    0.0200 H       1  LIG1        0.2922
@<TRIPOS>BOND
     1    33    34    3
     2    34    25    1
     3    28    24    1
     4    74    71    1
     5    89    88    1
     6    88    80    1
     7    78    70    1
     8    24    25   ar
     9    24    23   ar
    10    25    26   ar
    11    85    80   ar
    12    85    84   ar
    13    80    81   ar
    14    71    70   ar
    15    71    73   ar
    16    70    72   ar
    17    87    84    1
    18    84    83   ar
    19    20    12    1
    20    20    21    1
    21    15    11    1
    22    15    16    1
    23    48    47    1
    24    81    73    1
    25    81    82   ar
    26    68    66    1
    27    12    11   ar
    28    12    13   ar
    29    45    43    1
    30     9     3    1
    31    42    40    1
    32    73    76   ar
    33    11    10   ar
    34    47    41    1
    35    18    16    1
    36    64    65    1
    37    64    57    1
    38    83    82   ar
    39    83    90    1
    40    13    23    1
    41    13    14   ar
    42    23    22   ar
    43    40    41   ar
    44    40    37   ar
    45    62    57   ar
    46    62    61   ar
    47    26    37    1
    48    26    27   ar
    49    72    61    1
    50    72    75   ar
    51    41    38   ar
    52    82    86    1
    53    10    14   ar
    54    10     4    1
    55     3     4   ar
    56     3     2   ar
    57    17    16    1
    58    57    58   ar
    59    37    35   ar
    60    61    60   ar
    61     4     5   ar
    62    91    90    1
    63    38    49    1
    64    38    36   ar
    65    16    19    1
    66    53    49   ar
    67    53    52   ar
    68    58    52    1
    69    58    59   ar
    70     7     8    3
    71     8     2    1
    72     2     1   ar
    73    49    50   ar
    74    52    51   ar
    75    35    36   ar
    76    35    43    1
    77    60    59   ar
    78    60    66    1
    79    76    75   ar
    80    76    79    1
    81    36    39    1
    82    50    51   ar
    83    50    54    1
    84    51    56    1
    85    59    63    1
    86     5     1   ar
    87    75    77    1
    88    54    55    1
    89     1     6    1
    90    43    46    1
    91    43    44    1
    92    66    67    1
    93    66    69    1
    94    22    27   ar
    95    22    29    1
    96    31    29    1
    97    29    32    1
    98    29    30    1
