@<TRIPOS>MOLECULE
mol_data/opt/cam/geoms/mol2/12da12al4lh-4ed.out
 50 53 0 0 0
SMALL
GASTEIGER

@<TRIPOS>ATOM
      1 C           0.4263    1.5899    0.0678 C.ar    1  LIG1        0.1100
      2 C           1.7883    1.6285    0.0593 C.ar    1  LIG1        0.0901
      3 C           2.1525    3.0121   -0.0212 C.ar    1  LIG1        0.0047
      4 C           0.9806    3.7019   -0.0580 C.ar    1  LIG1        0.1711
      5 O          -0.0719    2.8367   -0.0043 O.2     1  LIG1       -0.4585
      6 H          -0.2845    0.7814    0.1212 H       1  LIG1        0.1043
      7 N           3.3781   -0.3998    0.1728 N.1     1  LIG1       -0.1908
      8 C           2.6618    0.5069    0.1225 C.1     1  LIG1        0.1023
      9 H           3.1520    3.4169   -0.0415 H       1  LIG1        0.0669
     10 C           0.6749    5.1081   -0.1467 C.ar    1  LIG1        0.1742
     11 C           1.4680    6.2061   -0.3048 C.ar    1  LIG1        0.0297
     12 C           0.5843    7.3251   -0.3050 C.ar    1  LIG1        0.1664
     13 C          -0.6925    6.8400   -0.1353 C.ar    1  LIG1        0.1807
     14 O          -0.6180    5.4719   -0.0471 O.2     1  LIG1       -0.4478
     15 H           2.5401    6.2115   -0.4214 H       1  LIG1        0.0693
     16 O           0.8990    8.6228   -0.4755 O.3     1  LIG1       -0.4913
     17 C           2.2630    8.9127   -0.7044 C.3     1  LIG1        0.0790
     18 H           2.3274    9.9931   -0.8282 H       1  LIG1        0.0660
     19 H           2.8868    8.6106    0.1452 H       1  LIG1        0.0660
     20 H           2.6314    8.4228   -1.6134 H       1  LIG1        0.0660
     21 C          -2.3415    8.6833    0.3460 C.ar    1  LIG1        0.1315
     22 C          -3.6479    9.1414    0.3009 C.ar    1  LIG1       -0.0097
     23 C          -2.0415    7.3957   -0.1234 C.ar    1  LIG1        0.0643
     24 C          -4.6971    8.3571   -0.1733 C.ar    1  LIG1        0.0075
     25 H          -3.8420   10.1437    0.6650 H       1  LIG1        0.0661
     26 C          -3.0927    6.6052   -0.5946 C.ar    1  LIG1       -0.0261
     27 C          -4.4113    7.0539   -0.6244 C.ar    1  LIG1        0.0333
     28 H          -2.8685    5.6080   -0.9577 H       1  LIG1        0.0644
     29 O          -1.3747    9.5207    0.8441 O.3     1  LIG1       -0.4944
     30 C          -1.0040    9.2597    2.1867 C.3     1  LIG1        0.0788
     31 H          -0.2362    9.9894    2.4470 H       1  LIG1        0.0660
     32 H          -1.8594    9.3764    2.8634 H       1  LIG1        0.0660
     33 H          -0.5936    8.2505    2.3044 H       1  LIG1        0.0660
     34 N          -5.4213    6.2007   -1.0715 N.pl3   1  LIG1       -0.3575
     35 H          -6.2164    6.6581   -1.4940 H       1  LIG1        0.1423
     36 H          -5.0932    5.4260   -1.6295 H       1  LIG1        0.1423
     37 C          -6.4414   10.1013   -0.7693 C.ar    1  LIG1        0.0325
     38 C          -7.7574   10.5757   -0.6782 C.ar    1  LIG1       -0.0445
     39 C          -6.0875    8.8830   -0.1514 C.ar    1  LIG1        0.0006
     40 C          -8.7272    9.8647    0.0014 C.ar    1  LIG1       -0.0432
     41 H          -8.0069   11.5143   -1.1591 H       1  LIG1        0.0630
     42 C          -7.0792    8.1725    0.5255 C.ar    1  LIG1       -0.0354
     43 C          -8.3863    8.6512    0.6045 C.ar    1  LIG1        0.0524
     44 H          -6.8249    7.2311    0.9982 H       1  LIG1        0.0637
     45 H          -9.7429   10.2365    0.0664 H       1  LIG1        0.0631
     46 C          -5.4943   10.8721   -1.5172 C.1     1  LIG1       -0.0691
     47 C          -4.7363   11.5482   -2.1626 C.1     1  LIG1       -0.1139
     48 H          -4.0473   12.1340   -2.7270 H       1  LIG1        0.1232
     49 N         -10.1882    7.2913    1.8787 N.1     1  LIG1       -0.1909
     50 C          -9.3820    7.8970    1.3121 C.1     1  LIG1        0.0992
@<TRIPOS>BOND
     1    48    47    1
     2    47    46    3
     3    36    34    1
     4    20    17    1
     5    46    37    1
     6    35    34    1
     7    41    38    1
     8    34    27    1
     9    28    26    1
    10    18    17    1
    11    37    38   ar
    12    37    39   ar
    13    17    16    1
    14    17    19    1
    15    38    40   ar
    16    27    26   ar
    17    27    24   ar
    18    26    23   ar
    19    16    12    1
    20    15    11    1
    21    12    11   ar
    22    12    13   ar
    23    11    10   ar
    24    24    39    1
    25    24    22   ar
    26    39    42   ar
    27    10     4    1
    28    10    14   ar
    29    13    23    1
    30    13    14   ar
    31    23    21   ar
    32     4     3   ar
    33     4     5   ar
    34     9     3    1
    35     3     2   ar
    36     5     1   ar
    37    40    45    1
    38    40    43   ar
    39     2     1   ar
    40     2     8    1
    41     1     6    1
    42     8     7    3
    43    22    21   ar
    44    22    25    1
    45    21    29    1
    46    42    43   ar
    47    42    44    1
    48    43    50    1
    49    29    30    1
    50    50    49    3
    51    30    33    1
    52    30    31    1
    53    30    32    1
