@<TRIPOS>MOLECULE
mol_data/opt/cam/geoms/mol2/12dd.out
 11 11 0 0 0
SMALL
GASTEIGER

@<TRIPOS>ATOM
      1 C           0.1436    1.8852    0.0000 C.ar    1  LIG1        0.1103
      2 C           1.5023    1.8635   -0.0000 C.ar    1  LIG1        0.1067
      3 C           1.9157    3.2480    0.0000 C.ar    1  LIG1        0.1067
      4 C           0.7678    3.9750   -0.0002 C.ar    1  LIG1        0.1103
      5 O          -0.3040    3.1570    0.0000 O.2     1  LIG1       -0.4684
      6 H          -0.5995    1.1043    0.0001 H       1  LIG1        0.1043
      7 H           0.5746    5.0355   -0.0003 H       1  LIG1        0.1043
      8 N           3.0012   -0.2338    0.0001 N.1     1  LIG1       -0.1907
      9 C           2.3319    0.7086    0.0000 C.1     1  LIG1        0.1036
     10 N           4.3194    4.1797    0.0001 N.1     1  LIG1       -0.1907
     11 C           3.2429    3.7588    0.0001 C.1     1  LIG1        0.1036
@<TRIPOS>BOND
     1     7     4    1
     2     4     5   ar
     3     4     3   ar
     4     2     1   ar
     5     2     3   ar
     6     2     9    1
     7     1     5   ar
     8     1     6    1
     9     3    11    1
    10     9     8    3
    11    11    10    3
