@<TRIPOS>MOLECULE
mol_data/opt/cam/geoms/mol2/12dd12dd12dd12dd.out
 38 41 0 0 0
SMALL
GASTEIGER

@<TRIPOS>ATOM
      1 C           0.0721    1.8642    0.0009 C.ar    1  LIG1        0.1114
      2 C           1.4256    1.7535    0.0004 C.ar    1  LIG1        0.1075
      3 C           1.9380    3.1005   -0.0001 C.ar    1  LIG1        0.1178
      4 C           0.8353    3.9183    0.0002 C.ar    1  LIG1        0.1896
      5 O          -0.2894    3.1574    0.0007 O.2     1  LIG1       -0.4571
      6 H          -0.7210    1.1339    0.0013 H       1  LIG1        0.1043
      7 N           2.7811   -0.4390    0.0003 N.1     1  LIG1       -0.1907
      8 C           2.1792    0.5473    0.0003 C.1     1  LIG1        0.1036
      9 N           4.4602    3.6149   -0.0013 N.1     1  LIG1       -0.1907
     10 C           3.3201    3.4249   -0.0007 C.1     1  LIG1        0.1044
     11 C           0.5918    5.3413    0.0000 C.ar    1  LIG1        0.1906
     12 C           1.3585    6.4790   -0.0002 C.ar    1  LIG1        0.1186
     13 C           0.4378    7.5844   -0.0003 C.ar    1  LIG1        0.1186
     14 C          -0.8195    7.0354   -0.0001 C.ar    1  LIG1        0.1906
     15 O          -0.7162    5.6859    0.0000 O.2     1  LIG1       -0.4459
     16 N           3.9098    6.8224   -0.0001 N.1     1  LIG1       -0.1907
     17 C           2.7703    6.6299   -0.0001 C.1     1  LIG1        0.1044
     18 N           1.2380   10.0311   -0.0008 N.1     1  LIG1       -0.1907
     19 C           0.8419    8.9454   -0.0005 C.1     1  LIG1        0.1044
     20 C          -2.1738    7.5314   -0.0001 C.ar    1  LIG1        0.1906
     21 C          -2.7792    8.7626    0.0000 C.ar    1  LIG1        0.1186
     22 C          -4.1960    8.5132   -0.0001 C.ar    1  LIG1        0.1186
     23 C          -4.3454    7.1494   -0.0003 C.ar    1  LIG1        0.1906
     24 O          -3.1243    6.5678   -0.0003 O.2     1  LIG1       -0.4459
     25 N          -1.8099   11.1473    0.0005 N.1     1  LIG1       -0.1907
     26 C          -2.2086   10.0626    0.0003 C.1     1  LIG1        0.1044
     27 N          -5.9220   10.4231   -0.0001 N.1     1  LIG1       -0.1907
     28 C          -5.1764    9.5402   -0.0001 C.1     1  LIG1        0.1044
     29 C          -5.4504    6.2203   -0.0005 C.ar    1  LIG1        0.1896
     30 C          -6.8204    6.3081   -0.0003 C.ar    1  LIG1        0.1178
     31 C          -7.2992    4.9488   -0.0007 C.ar    1  LIG1        0.1075
     32 C          -6.1943    4.1592   -0.0012 C.ar    1  LIG1        0.1114
     33 O          -5.0831    4.9130   -0.0011 O.2     1  LIG1       -0.4571
     34 H          -6.0604    3.0894   -0.0016 H       1  LIG1        0.1043
     35 N          -8.4138    8.3298    0.0009 N.1     1  LIG1       -0.1907
     36 C          -7.6661    7.4484    0.0004 C.1     1  LIG1        0.1044
     37 N          -9.7500    4.1503   -0.0007 N.1     1  LIG1       -0.1907
     38 C          -8.6535    4.5146   -0.0007 C.1     1  LIG1        0.1036
@<TRIPOS>BOND
     1    34    32    1
     2     9    10    3
     3    32    33   ar
     4    32    31   ar
     5    33    29   ar
     6    18    19    3
     7    31    38    1
     8    31    30   ar
     9    38    37    3
    10    10     3    1
    11    19    13    1
    12    29    23    1
    13    29    30   ar
    14    24    23   ar
    15    24    20   ar
    16    23    22   ar
    17    30    36    1
    18    13    12   ar
    19    13    14   ar
    20    12    17    1
    21    12    11   ar
    22    17    16    3
    23    27    28    3
    24    20    14    1
    25    20    21   ar
    26    14    15   ar
    27    22    28    1
    28    22    21   ar
    29     3     4   ar
    30     3     2   ar
    31    21    26    1
    32    11    15   ar
    33    11     4    1
    34     4     5   ar
    35    26    25    3
    36     7     8    3
    37     8     2    1
    38    36    35    3
    39     2     1   ar
    40     5     1   ar
    41     1     6    1
