@<TRIPOS>MOLECULE
mol_data/opt/cam/geoms/mol2/12dd12dd12dd-12dd-.out
 38 41 0 0 0
SMALL
GASTEIGER

@<TRIPOS>ATOM
      1 C           0.1972    1.8065    0.0001 C.ar    1  LIG1        0.1114
      2 C           1.5548    1.7353   -0.0000 C.ar    1  LIG1        0.1075
      3 C           2.0274    3.0964   -0.0001 C.ar    1  LIG1        0.1178
      4 C           0.9005    3.8804   -0.0000 C.ar    1  LIG1        0.1896
      5 O          -0.2004    3.0873    0.0001 O.2     1  LIG1       -0.4571
      6 H          -0.5772    1.0559    0.0001 H       1  LIG1        0.1043
      7 N           2.9824   -0.4109   -0.0001 N.1     1  LIG1       -0.1907
      8 C           2.3458    0.5534   -0.0001 C.1     1  LIG1        0.1036
      9 N           4.5274    3.7115   -0.0004 N.1     1  LIG1       -0.1907
     10 C           3.3969    3.4704   -0.0002 C.1     1  LIG1        0.1044
     11 C           0.6092    5.2935   -0.0000 C.ar    1  LIG1        0.1906
     12 C           1.3284    6.4649   -0.0000 C.ar    1  LIG1        0.1186
     13 C           0.3598    7.5280   -0.0001 C.ar    1  LIG1        0.1186
     14 C          -0.8670    6.9201   -0.0001 C.ar    1  LIG1        0.1906
     15 O          -0.7155    5.5821   -0.0001 O.2     1  LIG1       -0.4459
     16 N           3.8622    6.9192    0.0001 N.1     1  LIG1       -0.1907
     17 C           2.7328    6.6740    0.0001 C.1     1  LIG1        0.1044
     18 N           0.8341   10.0601   -0.0000 N.1     1  LIG1       -0.1907
     19 C           0.6255    8.9232   -0.0001 C.1     1  LIG1        0.1044
     20 C          -2.2085    7.4219   -0.0001 C.ar    1  LIG1        0.1906
     21 C          -3.4353    6.8140   -0.0002 C.ar    1  LIG1        0.1186
     22 C          -4.4040    7.8771   -0.0002 C.ar    1  LIG1        0.1186
     23 C          -3.6848    9.0485   -0.0002 C.ar    1  LIG1        0.1906
     24 O          -2.3600    8.7599   -0.0002 O.2     1  LIG1       -0.4459
     25 N          -3.9096    4.2819   -0.0001 N.1     1  LIG1       -0.1907
     26 C          -3.7011    5.4187   -0.0001 C.1     1  LIG1        0.1044
     27 N          -6.9377    7.4227   -0.0003 N.1     1  LIG1       -0.1907
     28 C          -5.8083    7.6679   -0.0002 C.1     1  LIG1        0.1044
     29 C          -3.9761   10.4616   -0.0002 C.ar    1  LIG1        0.1896
     30 C          -5.1029   11.2456   -0.0003 C.ar    1  LIG1        0.1178
     31 C          -4.6304   12.6066   -0.0003 C.ar    1  LIG1        0.1075
     32 C          -3.2727   12.5355   -0.0003 C.ar    1  LIG1        0.1114
     33 O          -2.8752   11.2547   -0.0002 O.2     1  LIG1       -0.4571
     34 H          -2.4984   13.2860   -0.0002 H       1  LIG1        0.1043
     35 N          -7.6029   10.6305   -0.0004 N.1     1  LIG1       -0.1907
     36 C          -6.4725   10.8715   -0.0003 C.1     1  LIG1        0.1044
     37 N          -6.0579   14.7529   -0.0004 N.1     1  LIG1       -0.1907
     38 C          -5.4213   13.7885   -0.0003 C.1     1  LIG1        0.1036
@<TRIPOS>BOND
     1    37    38    3
     2    35    36    3
     3     9    10    3
     4    38    31    1
     5    36    30    1
     6    31    30   ar
     7    31    32   ar
     8    30    29   ar
     9    32    34    1
    10    32    33   ar
    11    27    28    3
    12    29    33   ar
    13    29    23    1
    14    28    22    1
    15    10     3    1
    16    23    22   ar
    17    23    24   ar
    18    22    21   ar
    19    24    20   ar
    20    21    20   ar
    21    21    26    1
    22    20    14    1
    23    26    25    3
    24    14    15   ar
    25    14    13   ar
    26    15    11   ar
    27     3     4   ar
    28     3     2   ar
    29     7     8    3
    30    13    19    1
    31    13    12   ar
    32     8     2    1
    33    19    18    3
    34    11     4    1
    35    11    12   ar
    36     4     5   ar
    37     2     1   ar
    38    12    17    1
    39    17    16    3
    40     1     5   ar
    41     1     6    1
