@<TRIPOS>MOLECULE
mol_data/opt/cam/geoms/mol2/12dd12dd.out
 20 21 0 0 0
SMALL
GASTEIGER

@<TRIPOS>ATOM
      1 C           0.1456    1.8309    0.0000 C.ar    1  LIG1        0.1114
      2 C           1.5021    1.7775    0.0000 C.ar    1  LIG1        0.1075
      3 C           1.9574    3.1461   -0.0000 C.ar    1  LIG1        0.1178
      4 C           0.8220    3.9165   -0.0000 C.ar    1  LIG1        0.1896
      5 O          -0.2690    3.1085    0.0000 O.2     1  LIG1       -0.4571
      6 H          -0.6175    1.0694    0.0001 H       1  LIG1        0.1043
      7 N           2.9498   -0.3553    0.0001 N.1     1  LIG1       -0.1907
      8 C           2.3059    0.6043    0.0001 C.1     1  LIG1        0.1036
      9 N           4.4550    3.7696   -0.0002 N.1     1  LIG1       -0.1907
     10 C           3.3242    3.5299   -0.0001 C.1     1  LIG1        0.1044
     11 C           0.5163    5.3291   -0.0001 C.ar    1  LIG1        0.1896
     12 C           1.2316    6.5000   -0.0000 C.ar    1  LIG1        0.1178
     13 C           0.2513    7.5580   -0.0002 C.ar    1  LIG1        0.1075
     14 C          -0.9617    6.9485   -0.0003 C.ar    1  LIG1        0.1114
     15 O          -0.8111    5.6138   -0.0002 O.2     1  LIG1       -0.4571
     16 H          -1.9715    7.3265   -0.0004 H       1  LIG1        0.1043
     17 N           3.7636    6.9648    0.0003 N.1     1  LIG1       -0.1907
     18 C           2.6349    6.7155    0.0002 C.1     1  LIG1        0.1044
     19 N           0.6879   10.0984   -0.0001 N.1     1  LIG1       -0.1907
     20 C           0.4982    8.9585   -0.0001 C.1     1  LIG1        0.1036
@<TRIPOS>BOND
     1    16    14    1
     2    14    15   ar
     3    14    13   ar
     4    15    11   ar
     5     9    10    3
     6    13    20    1
     7    13    12   ar
     8    20    19    3
     9    10     3    1
    10    11     4    1
    11    11    12   ar
    12     4     3   ar
    13     4     5   ar
    14     3     2   ar
    15    12    18    1
    16     5     1   ar
    17     2     1   ar
    18     2     8    1
    19     1     6    1
    20     8     7    3
    21    18    17    3
