@<TRIPOS>MOLECULE
mol_data/opt/cam/geoms/mol2/12dd12dd12dd-12dd.out
 38 41 0 0 0
SMALL
GASTEIGER

@<TRIPOS>ATOM
      1 C           0.3662    1.7074   -0.1953 C.ar    1  LIG1        0.1114
      2 C           1.6232    1.7678    0.3217 C.ar    1  LIG1        0.1075
      3 C           1.9467    3.1681    0.4143 C.ar    1  LIG1        0.1178
      4 C           0.8526    3.8328   -0.0712 C.ar    1  LIG1        0.1896
      5 O          -0.1031    2.9434   -0.4342 O.2     1  LIG1       -0.4571
      6 H          -0.2873    0.8834   -0.4337 H       1  LIG1        0.1043
      7 N           3.0942   -0.2306    1.0195 N.1     1  LIG1       -0.1907
      8 C           2.4376    0.6675    0.7073 C.1     1  LIG1        0.1036
      9 N           4.0698    4.1875    1.4575 N.1     1  LIG1       -0.1907
     10 C           3.1229    3.7327    0.9752 C.1     1  LIG1        0.1044
     11 C           0.5318    5.2266   -0.2468 C.ar    1  LIG1        0.1906
     12 C           1.2674    6.3400   -0.5589 C.ar    1  LIG1        0.1186
     13 C           0.3399    7.4376   -0.5844 C.ar    1  LIG1        0.1186
     14 C          -0.8854    6.8966   -0.2944 C.ar    1  LIG1        0.1906
     15 O          -0.7693    5.5671   -0.0902 O.2     1  LIG1       -0.4459
     16 N           3.7615    6.4477   -1.1934 N.1     1  LIG1       -0.1907
     17 C           2.6469    6.3979   -0.8920 C.1     1  LIG1        0.1044
     18 N           0.8599    9.8748   -1.2353 N.1     1  LIG1       -0.1907
     19 C           0.6274    8.7855   -0.9268 C.1     1  LIG1        0.1044
     20 C          -2.2057    7.4483   -0.1987 C.ar    1  LIG1        0.1906
     21 C          -3.4518    6.8766   -0.1908 C.ar    1  LIG1        0.1186
     22 C          -4.3845    7.9655   -0.1034 C.ar    1  LIG1        0.1186
     23 C          -3.6272    9.1080   -0.0634 C.ar    1  LIG1        0.1906
     24 O          -2.3145    8.7929   -0.1220 O.2     1  LIG1       -0.4459
     25 N          -4.0204    4.3680   -0.3323 N.1     1  LIG1       -0.1907
     26 C          -3.7627    5.4929   -0.2681 C.1     1  LIG1        0.1044
     27 N          -6.9516    7.7752   -0.0092 N.1     1  LIG1       -0.1907
     28 C          -5.8003    7.8674   -0.0520 C.1     1  LIG1        0.1044
     29 C          -3.9643   10.4987    0.0472 C.ar    1  LIG1        0.1896
     30 C          -3.2389   11.6130    0.3768 C.ar    1  LIG1        0.1178
     31 C          -4.1721   12.7085    0.3254 C.ar    1  LIG1        0.1075
     32 C          -5.3707   12.1665   -0.0216 C.ar    1  LIG1        0.1114
     33 O          -5.2522   10.8369   -0.1911 O.2     1  LIG1       -0.4571
     34 H          -6.3490   12.5919   -0.1784 H       1  LIG1        0.1043
     35 N          -0.7649   11.7174    1.0860 N.1     1  LIG1       -0.1907
     36 C          -1.8707   11.6705    0.7524 C.1     1  LIG1        0.1044
     37 N          -3.6978   15.1959    0.8079 N.1     1  LIG1       -0.1907
     38 C          -3.9065   14.0802    0.5915 C.1     1  LIG1        0.1036
@<TRIPOS>BOND
     1    18    19    3
     2    16    17    3
     3    19    13    1
     4    17    12    1
     5    13    12   ar
     6    13    14   ar
     7    12    11   ar
     8     5     1   ar
     9     5     4   ar
    10     6     1    1
    11    25    26    3
    12    14    20    1
    13    14    15   ar
    14    26    21    1
    15    11    15   ar
    16    11     4    1
    17    20    21   ar
    18    20    24   ar
    19     1     2   ar
    20    33    32   ar
    21    33    29   ar
    22    21    22   ar
    23    34    32    1
    24    24    23   ar
    25    22    23   ar
    26    22    28    1
    27     4     3   ar
    28    23    29    1
    29    28    27    3
    30    32    31   ar
    31    29    30   ar
    32     2     3   ar
    33     2     8    1
    34    31    30   ar
    35    31    38    1
    36    30    36    1
    37     3    10    1
    38    38    37    3
    39     8     7    3
    40    36    35    3
    41    10     9    3
