@<TRIPOS>MOLECULE
mol_data/opt/cam/geoms/mol2/12dd12dd-12dd-12dd-.out
 38 41 0 0 0
SMALL
GASTEIGER

@<TRIPOS>ATOM
      1 C           0.4003    1.8048   -0.0001 C.ar    1  LIG1        0.1114
      2 C           1.7575    1.8912   -0.0000 C.ar    1  LIG1        0.1075
      3 C           2.0684    3.2981   -0.0000 C.ar    1  LIG1        0.1178
      4 C           0.8564    3.9401   -0.0001 C.ar    1  LIG1        0.1896
      5 O          -0.1461    3.0356   -0.0001 O.2     1  LIG1       -0.4571
      6 H          -0.2816    0.9696   -0.0001 H       1  LIG1        0.1043
      7 N           3.4336   -0.0672    0.0001 N.1     1  LIG1       -0.1907
      8 C           2.6811    0.8098    0.0000 C.1     1  LIG1        0.1036
      9 N           4.4332    4.3225    0.0001 N.1     1  LIG1       -0.1907
     10 C           3.3660    3.8777    0.0000 C.1     1  LIG1        0.1044
     11 C           0.4923    5.3278   -0.0001 C.ar    1  LIG1        0.1906
     12 C          -0.7023    5.9978   -0.0002 C.ar    1  LIG1        0.1186
     13 C          -0.3716    7.3986   -0.0002 C.ar    1  LIG1        0.1186
     14 C           1.0003    7.4659   -0.0001 C.ar    1  LIG1        0.1906
     15 O           1.5091    6.2086   -0.0001 O.2     1  LIG1       -0.4459
     16 N          -3.0682    4.9794   -0.0002 N.1     1  LIG1       -0.1907
     17 C          -2.0062    5.4353   -0.0002 C.1     1  LIG1        0.1044
     18 N          -2.1515    9.2588   -0.0003 N.1     1  LIG1       -0.1907
     19 C          -1.3282    8.4477   -0.0002 C.1     1  LIG1        0.1044
     20 C           2.0137    8.4912   -0.0001 C.ar    1  LIG1        0.1906
     21 C           2.0684    9.8618   -0.0000 C.ar    1  LIG1        0.1186
     22 C           3.4669   10.2062   -0.0000 C.ar    1  LIG1        0.1186
     23 C           4.1536    9.0169   -0.0001 C.ar    1  LIG1        0.1906
     24 O           3.2706    7.9966   -0.0001 O.2     1  LIG1       -0.4459
     25 N           0.1792   11.6116    0.0001 N.1     1  LIG1       -0.1907
     26 C           1.0082   10.8063    0.0000 C.1     1  LIG1        0.1044
     27 N           4.3056   12.6404    0.0002 N.1     1  LIG1       -0.1907
     28 C           3.9605   11.5374    0.0001 C.1     1  LIG1        0.1044
     29 C           5.5295    8.5804   -0.0001 C.ar    1  LIG1        0.1896
     30 C           6.7710    9.1654   -0.0002 C.ar    1  LIG1        0.1178
     31 C           7.7133    8.0748   -0.0001 C.ar    1  LIG1        0.1075
     32 C           6.9722    6.9332    0.0001 C.ar    1  LIG1        0.1114
     33 O           5.6673    7.2319    0.0001 O.2     1  LIG1       -0.4571
     34 H           7.2249    5.8847    0.0002 H       1  LIG1        0.1043
     35 N           7.4651   11.6450   -0.0007 N.1     1  LIG1       -0.1907
     36 C           7.1233   10.5408   -0.0005 C.1     1  LIG1        0.1044
     37 N          10.2857    8.2388   -0.0003 N.1     1  LIG1       -0.1907
     38 C           9.1322    8.1692   -0.0002 C.1     1  LIG1        0.1036
@<TRIPOS>BOND
     1    35    36    3
     2    36    30    1
     3    37    38    3
     4    18    19    3
     5    16    17    3
     6    19    13    1
     7    38    31    1
     8    30    31   ar
     9    30    29   ar
    10    17    12    1
    11    13    12   ar
    12    13    14   ar
    13    12    11   ar
    14    31    32   ar
    15    14    20    1
    16    14    15   ar
    17    11    15   ar
    18    11     4    1
    19    24    20   ar
    20    24    23   ar
    21     5     4   ar
    22     5     1   ar
    23    20    21   ar
    24     6     1    1
    25    29    23    1
    26    29    33   ar
    27     4     3   ar
    28    23    22   ar
    29     1     2   ar
    30    21    22   ar
    31    21    26    1
    32    22    28    1
    33     3     2   ar
    34     3    10    1
    35     2     8    1
    36    26    25    3
    37    10     9    3
    38     8     7    3
    39    32    33   ar
    40    32    34    1
    41    28    27    3
