@<TRIPOS>MOLECULE
mol_data/opt/cam/geoms/mol2/12dd12dd-12dd-12dd.out
 38 41 0 0 0
SMALL
GASTEIGER

@<TRIPOS>ATOM
      1 C           0.1329    1.7494    0.0419 C.ar    1  LIG1        0.1114
      2 C           1.3878    1.7586   -0.4842 C.ar    1  LIG1        0.1075
      3 C           1.7831    3.1416   -0.5478 C.ar    1  LIG1        0.1178
      4 C           0.7207    3.8482   -0.0479 C.ar    1  LIG1        0.1896
      5 O          -0.2737    3.0050    0.3064 O.2     1  LIG1       -0.4571
      6 H          -0.5584    0.9551    0.2734 H       1  LIG1        0.1043
      7 N           2.7551   -0.2967   -1.2264 N.1     1  LIG1       -0.1907
      8 C           2.1451    0.6262   -0.8927 C.1     1  LIG1        0.1036
      9 N           3.9905    4.0974   -1.4703 N.1     1  LIG1       -0.1907
     10 C           3.0046    3.6660   -1.0485 C.1     1  LIG1        0.1044
     11 C           0.4988    5.2524    0.1454 C.ar    1  LIG1        0.1906
     12 C          -0.5809    5.9936    0.5526 C.ar    1  LIG1        0.1186
     13 C          -0.1447    7.3640    0.5357 C.ar    1  LIG1        0.1186
     14 C           1.1563    7.3420    0.1076 C.ar    1  LIG1        0.1906
     15 O           1.5396    6.0639   -0.1231 O.2     1  LIG1       -0.4459
     16 N          -2.9098    5.1317    1.2367 N.1     1  LIG1       -0.1907
     17 C          -1.8635    5.5148    0.9293 C.1     1  LIG1        0.1044
     18 N          -1.5016    9.4064    1.3248 N.1     1  LIG1       -0.1907
     19 C          -0.8952    8.4937    0.9573 C.1     1  LIG1        0.1044
     20 C           2.1709    8.3401   -0.1079 C.ar    1  LIG1        0.1906
     21 C           2.1701    9.6413   -0.5360 C.ar    1  LIG1        0.1186
     22 C           3.5474   10.0550   -0.5530 C.ar    1  LIG1        0.1186
     23 C           4.2709    8.9634   -0.1456 C.ar    1  LIG1        0.1906
     24 O           3.4424    7.9359    0.1229 O.2     1  LIG1       -0.4459
     25 N           0.1503   11.0313   -1.3253 N.1     1  LIG1       -0.1907
     26 C           1.0529   10.4101   -0.9577 C.1     1  LIG1        0.1044
     27 N           4.4474   12.3694   -1.2371 N.1     1  LIG1       -0.1907
     28 C           4.0472   11.3296   -0.9297 C.1     1  LIG1        0.1044
     29 C           5.6713    8.7185    0.0478 C.ar    1  LIG1        0.1896
     30 C           6.3604    7.6447    0.5477 C.ar    1  LIG1        0.1178
     31 C           7.7497    8.0174    0.4842 C.ar    1  LIG1        0.1075
     32 C           7.7795    9.2719   -0.0420 C.ar    1  LIG1        0.1114
     33 O           6.5307    9.6989   -0.3066 O.2     1  LIG1       -0.4571
     34 H           8.5849    9.9501   -0.2735 H       1  LIG1        0.1043
     35 N           5.3686    5.4533    1.4703 N.1     1  LIG1       -0.1907
     36 C           5.8161    6.4320    1.0485 C.1     1  LIG1        0.1044
     37 N           9.7823    6.6167    1.2266 N.1     1  LIG1       -0.1907
     38 C           8.8696    7.2417    0.8928 C.1     1  LIG1        0.1036
@<TRIPOS>BOND
     1     9    10    3
     2    25    26    3
     3    27    28    3
     4     7     8    3
     5    10     3    1
     6    26    21    1
     7    28    22    1
     8     8     2    1
     9    22    21   ar
    10    22    23   ar
    11     3     2   ar
    12     3     4   ar
    13    21    20   ar
    14     2     1   ar
    15    33    32   ar
    16    33    29   ar
    17    34    32    1
    18    23    29    1
    19    23    24   ar
    20    15    14   ar
    21    15    11   ar
    22    20    14    1
    23    20    24   ar
    24     4    11    1
    25     4     5   ar
    26    32    31   ar
    27     1     6    1
    28     1     5   ar
    29    29    30   ar
    30    14    13   ar
    31    11    12   ar
    32    31    30   ar
    33    31    38    1
    34    13    12   ar
    35    13    19    1
    36    30    36    1
    37    12    17    1
    38    38    37    3
    39    17    16    3
    40    19    18    3
    41    36    35    3
