@<TRIPOS>MOLECULE
mol_data/opt/cam/geoms/mol2/12dd12dd12dd12dd-.out
 38 41 0 0 0
SMALL
GASTEIGER

@<TRIPOS>ATOM
      1 C          -0.0941    1.9603    0.0002 C.ar    1  LIG1        0.1114
      2 C           1.2548    1.7795    0.0001 C.ar    1  LIG1        0.1075
      3 C           1.8370    3.0980   -0.0000 C.ar    1  LIG1        0.1178
      4 C           0.7767    3.9694    0.0000 C.ar    1  LIG1        0.1896
      5 O          -0.3829    3.2675    0.0002 O.2     1  LIG1       -0.4571
      6 H          -0.9334    1.2830    0.0003 H       1  LIG1        0.1043
      7 N           2.5046   -0.4750    0.0000 N.1     1  LIG1       -0.1907
      8 C           1.9477    0.5376    0.0001 C.1     1  LIG1        0.1036
      9 N           4.3750    3.5325   -0.0004 N.1     1  LIG1       -0.1907
     10 C           3.2308    3.3685   -0.0002 C.1     1  LIG1        0.1044
     11 C           0.5820    5.3997   -0.0000 C.ar    1  LIG1        0.1906
     12 C           1.3628    6.5295   -0.0001 C.ar    1  LIG1        0.1186
     13 C           0.4528    7.6459   -0.0001 C.ar    1  LIG1        0.1186
     14 C          -0.8093    7.1084   -0.0001 C.ar    1  LIG1        0.1906
     15 O          -0.7181    5.7608   -0.0001 O.2     1  LIG1       -0.4459
     16 N           3.9217    6.8139   -0.0000 N.1     1  LIG1       -0.1907
     17 C           2.7771    6.6535   -0.0000 C.1     1  LIG1        0.1044
     18 N           1.2251   10.1023   -0.0003 N.1     1  LIG1       -0.1907
     19 C           0.8523    9.0084   -0.0002 C.1     1  LIG1        0.1044
     20 C          -2.1697    7.5852   -0.0002 C.ar    1  LIG1        0.1906
     21 C          -2.8181    8.7962   -0.0001 C.ar    1  LIG1        0.1186
     22 C          -4.2255    8.4952   -0.0002 C.ar    1  LIG1        0.1186
     23 C          -4.3195    7.1288   -0.0003 C.ar    1  LIG1        0.1906
     24 O          -3.0882    6.5871   -0.0002 O.2     1  LIG1       -0.4459
     25 N          -1.8991   11.2012    0.0001 N.1     1  LIG1       -0.1907
     26 C          -2.2795   10.1098   -0.0000 C.1     1  LIG1        0.1044
     27 N          -6.1589   10.1973   -0.0002 N.1     1  LIG1       -0.1907
     28 C          -5.2922    9.4327   -0.0002 C.1     1  LIG1        0.1044
     29 C          -5.4176    6.2056   -0.0003 C.ar    1  LIG1        0.1896
     30 C          -5.4788    4.8355   -0.0003 C.ar    1  LIG1        0.1178
     31 C          -6.8834    4.5139   -0.0004 C.ar    1  LIG1        0.1075
     32 C          -7.5426    5.7034   -0.0005 C.ar    1  LIG1        0.1114
     33 O          -6.6643    6.7242   -0.0004 O.2     1  LIG1       -0.4571
     34 H          -8.5893    5.9621   -0.0005 H       1  LIG1        0.1043
     35 N          -3.5405    3.1370   -0.0002 N.1     1  LIG1       -0.1907
     36 C          -4.3995    3.9109   -0.0002 C.1     1  LIG1        0.1044
     37 N          -7.9355    2.1607   -0.0005 N.1     1  LIG1       -0.1907
     38 C          -7.4652    3.2162   -0.0004 C.1     1  LIG1        0.1036
@<TRIPOS>BOND
     1    34    32    1
     2    37    38    3
     3    32    31   ar
     4    32    33   ar
     5    38    31    1
     6    31    30   ar
     7    33    29   ar
     8     9    10    3
     9    29    30   ar
    10    29    23    1
    11    18    19    3
    12    30    36    1
    13    23    24   ar
    14    23    22   ar
    15    24    20   ar
    16    19    13    1
    17    36    35    3
    18    10     3    1
    19    22    28    1
    20    22    21   ar
    21    28    27    3
    22    20    21   ar
    23    20    14    1
    24    13    14   ar
    25    13    12   ar
    26    21    26    1
    27    14    15   ar
    28    12    17    1
    29    12    11   ar
    30    15    11   ar
    31     3     4   ar
    32     3     2   ar
    33    17    16    3
    34    11     4    1
    35    26    25    3
    36     4     5   ar
    37     7     8    3
    38     8     2    1
    39     2     1   ar
    40     5     1   ar
    41     1     6    1
