@<TRIPOS>MOLECULE
mol_data/opt/cam/geoms/mol2/12dd12dd12dd.out
 29 31 0 0 0
SMALL
GASTEIGER

@<TRIPOS>ATOM
      1 C           0.1366    1.8396    0.0001 C.ar    1  LIG1        0.1114
      2 C           1.4919    1.7529    0.0000 C.ar    1  LIG1        0.1075
      3 C           1.9804    3.1090   -0.0000 C.ar    1  LIG1        0.1178
      4 C           0.8636    3.9074   -0.0000 C.ar    1  LIG1        0.1896
      5 O          -0.2474    3.1261    0.0001 O.2     1  LIG1       -0.4571
      6 H          -0.6443    1.0962    0.0002 H       1  LIG1        0.1043
      7 N           2.8868   -0.4147   -0.0000 N.1     1  LIG1       -0.1907
      8 C           2.2668    0.5603   -0.0000 C.1     1  LIG1        0.1036
      9 N           4.4926    3.6707   -0.0003 N.1     1  LIG1       -0.1907
     10 C           3.3565    3.4585   -0.0002 C.1     1  LIG1        0.1044
     11 C           0.5928    5.3256   -0.0000 C.ar    1  LIG1        0.1906
     12 C           1.3344    6.4794   -0.0000 C.ar    1  LIG1        0.1186
     13 C           0.3891    7.5650   -0.0001 C.ar    1  LIG1        0.1186
     14 C          -0.8557    6.9892   -0.0001 C.ar    1  LIG1        0.1906
     15 O          -0.7224    5.6428   -0.0001 O.2     1  LIG1       -0.4459
     16 N           3.8783    6.8742    0.0001 N.1     1  LIG1       -0.1907
     17 C           2.7428    6.6596    0.0000 C.1     1  LIG1        0.1044
     18 N           1.1300   10.0305   -0.0002 N.1     1  LIG1       -0.1907
     19 C           0.7613    8.9352   -0.0001 C.1     1  LIG1        0.1044
     20 C          -2.2231    7.4524   -0.0002 C.ar    1  LIG1        0.1896
     21 C          -2.8604    8.6683   -0.0002 C.ar    1  LIG1        0.1178
     22 C          -4.2708    8.3710   -0.0003 C.ar    1  LIG1        0.1075
     23 C          -4.3713    7.0167   -0.0004 C.ar    1  LIG1        0.1114
     24 O          -3.1498    6.4594   -0.0004 O.2     1  LIG1       -0.4571
     25 H          -5.2151    6.3454   -0.0005 H       1  LIG1        0.1043
     26 N          -1.9586   11.0795    0.0002 N.1     1  LIG1       -0.1907
     27 C          -2.3250    9.9833    0.0000 C.1     1  LIG1        0.1044
     28 N          -6.2260   10.0508   -0.0003 N.1     1  LIG1       -0.1907
     29 C          -5.3456    9.3026   -0.0003 C.1     1  LIG1        0.1036
@<TRIPOS>BOND
     1    25    23    1
     2    23    24   ar
     3    23    22   ar
     4    24    20   ar
     5    28    29    3
     6    29    22    1
     7    22    21   ar
     8     9    10    3
     9    20    21   ar
    10    20    14    1
    11    18    19    3
    12    21    27    1
    13    10     3    1
    14    14    15   ar
    15    14    13   ar
    16    19    13    1
    17    15    11   ar
    18    13    12   ar
    19    11    12   ar
    20    11     4    1
    21    12    17    1
    22     3     4   ar
    23     3     2   ar
    24     7     8    3
    25     4     5   ar
    26     8     2    1
    27    27    26    3
    28     2     1   ar
    29    17    16    3
    30     5     1   ar
    31     1     6    1
