@<TRIPOS>MOLECULE
mol_data/opt/cam/geoms/mol2/12dd12dd-4dd12dd.out
 41 44 0 0 0
SMALL
GASTEIGER

@<TRIPOS>ATOM
      1 C           0.0905    1.6803   -0.0775 C.ar    1  LIG1        0.1114
      2 C           1.3506    1.6886   -0.5897 C.ar    1  LIG1        0.1075
      3 C           1.7666    3.0674   -0.6033 C.ar    1  LIG1        0.1178
      4 C           0.7102    3.7730   -0.0908 C.ar    1  LIG1        0.1896
      5 O          -0.3003    2.9326    0.2245 O.2     1  LIG1       -0.4571
      6 H          -0.6147    0.8893    0.1208 H       1  LIG1        0.1043
      7 N           2.6962   -0.3607   -1.3862 N.1     1  LIG1       -0.1907
      8 C           2.0959    0.5594   -1.0282 C.1     1  LIG1        0.1036
      9 N           3.9898    4.0122   -1.4979 N.1     1  LIG1       -0.1907
     10 C           2.9968    3.5876   -1.0858 C.1     1  LIG1        0.1044
     11 C           0.4963    5.1724    0.1463 C.ar    1  LIG1        0.1905
     12 C          -0.6041    5.9090    0.4986 C.ar    1  LIG1        0.1185
     13 C          -0.1543    7.2733    0.5576 C.ar    1  LIG1        0.1155
     14 C           1.1784    7.2590    0.2391 C.ar    1  LIG1        0.1557
     15 O           1.5602    5.9857   -0.0114 O.2     1  LIG1       -0.4490
     16 N          -2.9931    5.0606    0.9538 N.1     1  LIG1       -0.1907
     17 C          -1.9186    5.4348    0.7501 C.1     1  LIG1        0.1044
     18 N          -1.5575    9.3479    1.1632 N.1     1  LIG1       -0.1907
     19 C          -0.9338    8.4108    0.8994 C.1     1  LIG1        0.1043
     20 C           3.5328    8.0806    0.5133 C.ar    1  LIG1        0.0632
     21 C           4.4744    9.0955    0.3749 C.ar    1  LIG1       -0.0317
     22 C           2.1934    8.3025    0.1369 C.ar    1  LIG1        0.0372
     23 C           4.1230   10.3528   -0.1154 C.ar    1  LIG1        0.0372
     24 H           5.4980    8.8904    0.6616 H       1  LIG1        0.0638
     25 C           1.8380    9.5597   -0.3422 C.ar    1  LIG1       -0.0317
     26 C           2.7772   10.5813   -0.4657 C.ar    1  LIG1        0.0632
     27 H           0.8137    9.7610   -0.6309 H       1  LIG1        0.0638
     28 N           4.3219    5.8535    1.5765 N.1     1  LIG1       -0.1908
     29 C           3.9629    6.8359    1.0853 C.1     1  LIG1        0.0999
     30 N           1.8611   12.8525   -1.3111 N.1     1  LIG1       -0.1908
     31 C           2.3016   11.8512   -0.9387 C.1     1  LIG1        0.0999
     32 C           5.1500   11.3827   -0.2428 C.ar    1  LIG1        0.1547
     33 C           6.3242   11.6224    0.4235 C.ar    1  LIG1        0.1147
     34 C           6.8914   12.8033   -0.1745 C.ar    1  LIG1        0.1074
     35 C           6.0203   13.1809   -1.1471 C.ar    1  LIG1        0.1112
     36 O           4.9792   12.3317   -1.1922 O.2     1  LIG1       -0.4602
     37 H           6.0164   13.9961   -1.8526 H       1  LIG1        0.1043
     38 N           7.2991   10.2550    2.3777 N.1     1  LIG1       -0.1907
     39 C           6.8661   10.8774    1.5044 C.1     1  LIG1        0.1043
     40 N           9.0966   13.9760    0.4630 N.1     1  LIG1       -0.1907
     41 C           8.1079   13.4496    0.1785 C.1     1  LIG1        0.1036
@<TRIPOS>BOND
     1    37    35    1
     2     9    10    3
     3     7     8    3
     4    30    31    3
     5    36    35   ar
     6    36    32   ar
     7    35    34   ar
     8    10     3    1
     9     8     2    1
    10    31    26    1
    11    27    25    1
    12     3     2   ar
    13     3     4   ar
    14     2     1   ar
    15    26    25   ar
    16    26    23   ar
    17    25    22   ar
    18    32    23    1
    19    32    33   ar
    20    34    41    1
    21    34    33   ar
    22    23    21   ar
    23     4    11    1
    24     4     5   ar
    25     1     6    1
    26     1     5   ar
    27    15    11   ar
    28    15    14   ar
    29    22    14    1
    30    22    20   ar
    31    11    12   ar
    32    41    40    3
    33    14    13   ar
    34    21    20   ar
    35    21    24    1
    36    33    39    1
    37    12    13   ar
    38    12    17    1
    39    20    29    1
    40    13    19    1
    41    17    16    3
    42    19    18    3
    43    29    28    3
    44    39    38    3
