@<TRIPOS>MOLECULE
mol_data/opt/cam/geoms/mol2/12dd12dd-12dd.out
 29 31 0 0 0
SMALL
GASTEIGER

@<TRIPOS>ATOM
      1 C           0.1971    1.7953    0.3586 C.ar    1  LIG1        0.1114
      2 C           1.5043    1.7521   -0.0154 C.ar    1  LIG1        0.1075
      3 C           1.9081    3.1205   -0.2131 C.ar    1  LIG1        0.1178
      4 C           0.7988    3.8735    0.0678 C.ar    1  LIG1        0.1896
      5 O          -0.2331    3.0693    0.4114 O.2     1  LIG1       -0.4571
      6 H          -0.5187    1.0289    0.6090 H       1  LIG1        0.1043
      7 N           2.9401   -0.3668   -0.3218 N.1     1  LIG1       -0.1907
      8 C           2.2998    0.5853   -0.1845 C.1     1  LIG1        0.1036
      9 N           4.1931    3.9513   -1.0634 N.1     1  LIG1       -0.1907
     10 C           3.1718    3.5827   -0.6667 C.1     1  LIG1        0.1044
     11 C           0.5416    5.2855    0.0426 C.ar    1  LIG1        0.1906
     12 C          -0.6134    6.0233    0.0281 C.ar    1  LIG1        0.1186
     13 C          -0.2024    7.3992   -0.0283 C.ar    1  LIG1        0.1186
     14 C           1.1680    7.3827   -0.0426 C.ar    1  LIG1        0.1906
     15 O           1.6134    6.1076    0.0000 O.2     1  LIG1       -0.4459
     16 N          -3.0360    5.1485    0.0613 N.1     1  LIG1       -0.1907
     17 C          -1.9471    5.5356    0.0476 C.1     1  LIG1        0.1044
     18 N          -1.7486    9.4594   -0.0618 N.1     1  LIG1       -0.1907
     19 C          -1.0503    8.5384   -0.0480 C.1     1  LIG1        0.1044
     20 C           2.1575    8.4224   -0.0678 C.ar    1  LIG1        0.1896
     21 C           3.4981    8.4436    0.2128 C.ar    1  LIG1        0.1178
     22 C           3.9108    9.8094    0.0154 C.ar    1  LIG1        0.1075
     23 C           2.7940   10.4903   -0.3583 C.ar    1  LIG1        0.1114
     24 O           1.7355    9.6609   -0.4109 O.2     1  LIG1       -0.4571
     25 H           2.6156   11.5237   -0.6083 H       1  LIG1        0.1043
     26 N           4.9535    6.4955    1.0620 N.1     1  LIG1       -0.1907
     27 C           4.3015    7.3640    0.6658 C.1     1  LIG1        0.1044
     28 N           6.2735   10.7938    0.3216 N.1     1  LIG1       -0.1907
     29 C           5.2159   10.3488    0.1845 C.1     1  LIG1        0.1036
@<TRIPOS>BOND
     1     9    10    3
     2    10     3    1
     3    25    23    1
     4    24    23   ar
     5    24    20   ar
     6    23    22   ar
     7     7     8    3
     8     3     2   ar
     9     3     4   ar
    10     8     2    1
    11    20    14    1
    12    20    21   ar
    13    18    19    3
    14    19    13    1
    15    14    13   ar
    16    14    15   ar
    17    13    12   ar
    18     2     1   ar
    19    15    11   ar
    20    22    29    1
    21    22    21   ar
    22    12    11   ar
    23    12    17    1
    24    11     4    1
    25    17    16    3
    26     4     5   ar
    27    29    28    3
    28    21    27    1
    29     1     5   ar
    30     1     6    1
    31    27    26    3
