@<TRIPOS>MOLECULE
mol_data/opt/cam/geoms/mol2/12dd12dd-12dd12dd-.out
 38 41 0 0 0
SMALL
GASTEIGER

@<TRIPOS>ATOM
      1 C           0.2054    1.7471   -0.0471 C.ar    1  LIG1        0.1114
      2 C           1.4829    1.7816   -0.5139 C.ar    1  LIG1        0.1075
      3 C           1.8725    3.1679   -0.5073 C.ar    1  LIG1        0.1178
      4 C           0.7856    3.8510   -0.0284 C.ar    1  LIG1        0.1896
      5 O          -0.2195    2.9895    0.2472 O.2     1  LIG1       -0.4571
      6 H          -0.4915    0.9418    0.1213 H       1  LIG1        0.1043
      7 N           2.8949   -0.2389   -1.2677 N.1     1  LIG1       -0.1907
      8 C           2.2648    0.6687   -0.9297 C.1     1  LIG1        0.1036
      9 N           4.1024    4.1584   -1.3327 N.1     1  LIG1       -0.1907
     10 C           3.1061    3.7139   -0.9505 C.1     1  LIG1        0.1044
     11 C           0.5330    5.2442    0.2043 C.ar    1  LIG1        0.1906
     12 C          -0.6077    5.9565    0.4745 C.ar    1  LIG1        0.1186
     13 C          -0.1994    7.3297    0.5792 C.ar    1  LIG1        0.1186
     14 C           1.1534    7.3374    0.3607 C.ar    1  LIG1        0.1906
     15 O           1.5926    6.0782    0.1364 O.2     1  LIG1       -0.4459
     16 N          -3.0009    5.0416    0.7403 N.1     1  LIG1       -0.1907
     17 C          -1.9258    5.4482    0.6199 C.1     1  LIG1        0.1044
     18 N          -1.6854    9.3424    1.1929 N.1     1  LIG1       -0.1907
     19 C          -1.0208    8.4421    0.9038 C.1     1  LIG1        0.1044
     20 C           2.1372    8.3820    0.3606 C.ar    1  LIG1        0.1906
     21 C           3.4900    8.3896    0.5790 C.ar    1  LIG1        0.1186
     22 C           3.8983    9.7629    0.4740 C.ar    1  LIG1        0.1186
     23 C           2.7575   10.4751    0.2037 C.ar    1  LIG1        0.1906
     24 O           1.6980    9.6411    0.1361 O.2     1  LIG1       -0.4459
     25 N           4.9763    6.3772    1.1926 N.1     1  LIG1       -0.1907
     26 C           4.3116    7.2774    0.9036 C.1     1  LIG1        0.1044
     27 N           6.2915   10.6778    0.7395 N.1     1  LIG1       -0.1907
     28 C           5.2164   10.2712    0.6192 C.1     1  LIG1        0.1044
     29 C           2.5049   11.8683   -0.0291 C.ar    1  LIG1        0.1896
     30 C           1.4179   12.5512   -0.5079 C.ar    1  LIG1        0.1178
     31 C           1.8074   13.9376   -0.5146 C.ar    1  LIG1        0.1075
     32 C           3.0849   13.9723   -0.0479 C.ar    1  LIG1        0.1114
     33 O           3.5099   12.7298    0.2465 O.2     1  LIG1       -0.4571
     34 H           3.7817   14.7776    0.1204 H       1  LIG1        0.1043
     35 N          -0.8119   11.5604   -1.3334 N.1     1  LIG1       -0.1907
     36 C           0.1844   12.0051   -0.9512 C.1     1  LIG1        0.1044
     37 N           0.3950   15.9579   -1.2683 N.1     1  LIG1       -0.1907
     38 C           1.0253   15.0504   -0.9304 C.1     1  LIG1        0.1036
@<TRIPOS>BOND
     1    35    36    3
     2     9    10    3
     3    37    38    3
     4     7     8    3
     5    36    30    1
     6    10     3    1
     7    38    31    1
     8     8     2    1
     9    31    30   ar
    10    31    32   ar
    11     2     3   ar
    12     2     1   ar
    13    30    29   ar
    14     3     4   ar
    15    32    34    1
    16    32    33   ar
    17     1     6    1
    18     1     5   ar
    19    29    23    1
    20    29    33   ar
    21     4    11    1
    22     4     5   ar
    23    24    23   ar
    24    24    20   ar
    25    15    11   ar
    26    15    14   ar
    27    23    22   ar
    28    11    12   ar
    29    20    14    1
    30    20    21   ar
    31    14    13   ar
    32    22    21   ar
    33    22    28    1
    34    12    13   ar
    35    12    17    1
    36    21    26    1
    37    13    19    1
    38    28    27    3
    39    17    16    3
    40    26    25    3
    41    19    18    3
