@<TRIPOS>MOLECULE
mol_data/opt/cam/geoms/mol2/12dd12dd-.out
 20 21 0 0 0
SMALL
GASTEIGER

@<TRIPOS>ATOM
      1 C           0.1822    1.8262   -0.0003 C.ar    1  LIG1        0.1114
      2 C           1.5415    1.8033    0.0002 C.ar    1  LIG1        0.1075
      3 C           1.9638    3.1814   -0.0003 C.ar    1  LIG1        0.1178
      4 C           0.8095    3.9187   -0.0002 C.ar    1  LIG1        0.1896
      5 O          -0.2634    3.0971   -0.0003 O.2     1  LIG1       -0.4571
      6 H          -0.5646    1.0487   -0.0004 H       1  LIG1        0.1043
      7 N           3.0430   -0.2921    0.0008 N.1     1  LIG1       -0.1907
      8 C           2.3716    0.6485    0.0006 C.1     1  LIG1        0.1036
      9 N           4.3896    4.0482   -0.0003 N.1     1  LIG1       -0.1907
     10 C           3.2989    3.6649   -0.0003 C.1     1  LIG1        0.1044
     11 C           0.5487    5.3313   -0.0001 C.ar    1  LIG1        0.1896
     12 C          -0.6056    6.0685   -0.0000 C.ar    1  LIG1        0.1178
     13 C          -0.1833    7.4467   -0.0001 C.ar    1  LIG1        0.1075
     14 C           1.1761    7.4238   -0.0001 C.ar    1  LIG1        0.1114
     15 O           1.6216    6.1529   -0.0002 O.2     1  LIG1       -0.4571
     16 H           1.9229    8.2013   -0.0001 H       1  LIG1        0.1043
     17 N          -3.0314    5.2018    0.0001 N.1     1  LIG1       -0.1907
     18 C          -1.9407    5.5850    0.0000 C.1     1  LIG1        0.1044
     19 N          -1.6847    9.5421   -0.0000 N.1     1  LIG1       -0.1907
     20 C          -1.0134    8.6014   -0.0000 C.1     1  LIG1        0.1036
@<TRIPOS>BOND
     1     6     1    1
     2    10     3    1
     3    10     9    3
     4     1     5   ar
     5     1     2   ar
     6     3     4   ar
     7     3     2   ar
     8     5     4   ar
     9     4    11    1
    10    15    11   ar
    11    15    14   ar
    12    16    14    1
    13    11    12   ar
    14    14    13   ar
    15    13    12   ar
    16    13    20    1
    17    12    18    1
    18    20    19    3
    19    18    17    3
    20     2     8    1
    21     8     7    3
