@<TRIPOS>MOLECULE
mol_data/opt/cam/geoms/mol2/12de12hh-13aa13id.out
 43 46 0 0 0
SMALL
GASTEIGER

@<TRIPOS>ATOM
      1 C           0.3440    1.8532    0.9064 C.ar    1  LIG1        0.1113
      2 C           1.6450    1.8012    0.5295 C.ar    1  LIG1        0.1055
      3 C           2.0018    3.1360    0.1005 C.ar    1  LIG1        0.0908
      4 C           0.8691    3.8968    0.2833 C.ar    1  LIG1        0.1882
      5 O          -0.1327    3.1082    0.7671 O.2     1  LIG1       -0.4572
      6 H          -0.3426    1.1075    1.2728 H       1  LIG1        0.1043
      7 N           3.1627   -0.2826    0.5303 N.1     1  LIG1       -0.1907
      8 C           2.4815    0.6519    0.5307 C.1     1  LIG1        0.1036
      9 C           3.2420    3.5250   -0.4596 C.1     1  LIG1       -0.0645
     10 C           4.3044    3.8295   -0.9419 C.1     1  LIG1       -0.1138
     11 H           5.2423    4.0643   -1.3912 H       1  LIG1        0.1232
     12 C           0.5620    5.2799    0.1030 C.ar    1  LIG1        0.1942
     13 C           1.3077    6.4353    0.0632 C.ar    1  LIG1        0.0958
     14 C           0.3716    7.5108   -0.1053 C.ar    1  LIG1        0.0942
     15 C          -0.8713    6.9421   -0.1442 C.ar    1  LIG1        0.1743
     16 O          -0.7781    5.5995   -0.0251 O.2     1  LIG1       -0.4464
     17 N           2.6552    6.6232    0.2431 N.pl3   1  LIG1       -0.3535
     18 H           3.2622    5.8426    0.0310 H       1  LIG1        0.1425
     19 H           2.9979    7.5093   -0.0978 H       1  LIG1        0.1425
     20 N           0.6503    8.8935   -0.1944 N.pl3   1  LIG1       -0.3535
     21 H           1.1893    9.2369    0.5928 H       1  LIG1        0.1425
     22 H           1.1112    9.1554   -1.0589 H       1  LIG1        0.1425
     23 C          -2.1973    7.4806   -0.2799 C.ar    1  LIG1        0.0845
     24 C          -2.6553    8.7756   -0.4166 C.ar    1  LIG1       -0.0327
     25 C          -4.0645    8.7174   -0.4876 C.ar    1  LIG1       -0.0343
     26 C          -4.4412    7.3912   -0.3902 C.ar    1  LIG1        0.0637
     27 N          -3.2915    6.6485   -0.2768 N.ar    1  LIG1       -0.3506
     28 H          -3.2411    5.6672   -0.0518 H       1  LIG1        0.1660
     29 H          -2.0225    9.6477   -0.4664 H       1  LIG1        0.0640
     30 H          -4.7409    9.5464   -0.6324 H       1  LIG1        0.0639
     31 C          -5.7506    6.7649   -0.4175 C.ar    1  LIG1        0.0671
     32 C          -6.9458    7.1435    0.1513 C.ar    1  LIG1       -0.0064
     33 C          -7.8958    6.1315   -0.2001 C.ar    1  LIG1        0.0725
     34 C          -7.2520    5.1800   -0.9613 C.ar    1  LIG1        0.0199
     35 N          -5.9570    5.5662   -1.0792 N.ar    1  LIG1       -0.3581
     36 H          -5.2746    5.1230   -1.6729 H       1  LIG1        0.1654
     37 H          -7.6290    4.2764   -1.4136 H       1  LIG1        0.0820
     38 C          -7.2146    8.3483    0.9927 C.3     1  LIG1       -0.0364
     39 H          -7.8840    8.1037    1.8212 H       1  LIG1        0.0279
     40 H          -7.6959    9.1440    0.4148 H       1  LIG1        0.0279
     41 H          -6.2861    8.7499    1.4035 H       1  LIG1        0.0279
     42 N         -10.3740    6.0862    0.5144 N.1     1  LIG1       -0.1908
     43 C          -9.2632    6.0981    0.1877 C.1     1  LIG1        0.1009
@<TRIPOS>BOND
     1    36    35    1
     2    37    34    1
     3    11    10    1
     4    35    34   ar
     5    35    31   ar
     6    22    20    1
     7    34    33   ar
     8    10     9    3
     9    30    25    1
    10    25    24   ar
    11    25    26   ar
    12    29    24    1
    13     9     3    1
    14    31    26    1
    15    31    32   ar
    16    24    23   ar
    17    26    27   ar
    18    23    27   ar
    19    23    15    1
    20    27    28    1
    21    33    32   ar
    22    33    43    1
    23    20    14    1
    24    20    21    1
    25    15    14   ar
    26    15    16   ar
    27    14    13   ar
    28    19    17    1
    29    16    12   ar
    30    18    17    1
    31    13    12   ar
    32    13    17    1
    33     3     4   ar
    34     3     2   ar
    35    12     4    1
    36    32    38    1
    37    43    42    3
    38     4     5   ar
    39    40    38    1
    40     2     8    1
    41     2     1   ar
    42     7     8    3
    43     5     1   ar
    44     1     6    1
    45    38    41    1
    46    38    39    1
