@<TRIPOS>MOLECULE
mol_data/opt/cam/geoms/mol2/12de13hf6lf4lf-.out
 52 55 0 0 0
SMALL
GASTEIGER

@<TRIPOS>ATOM
      1 C          -2.4158    3.5085    7.0090 C.ar    1  LIG1        0.1112
      2 C          -2.1401    4.0899    8.2110 C.ar    1  LIG1        0.1054
      3 C          -1.8817    5.4963    7.9449 C.ar    1  LIG1        0.0892
      4 C          -2.0044    5.6438    6.5711 C.ar    1  LIG1        0.1694
      5 O          -2.3364    4.4275    6.0156 O.2     1  LIG1       -0.4588
      6 H          -2.6727    2.5012    6.7231 H       1  LIG1        0.1043
      7 N          -2.1176    2.9188   10.5134 N.1     1  LIG1       -0.1907
      8 C          -2.1286    3.4458    9.4764 C.1     1  LIG1        0.1036
      9 C          -1.6485    6.4782    8.9341 C.1     1  LIG1       -0.0645
     10 C          -1.4706    7.2779    9.8272 C.1     1  LIG1       -0.1138
     11 H          -1.3330    7.9697   10.6262 H       1  LIG1        0.1232
     12 C          -1.8766    6.7312    5.6486 C.ar    1  LIG1        0.1084
     13 C          -1.2426    7.9828    5.7377 C.ar    1  LIG1        0.0960
     14 C          -1.4482    8.6320    4.5071 C.ar    1  LIG1        0.1637
     15 C          -2.1877    7.7958    3.6601 C.ar    1  LIG1        0.0961
     16 N          -2.4245    6.6495    4.3912 N.ar    1  LIG1       -0.3472
     17 H          -2.9617    5.8795    4.0198 H       1  LIG1        0.1662
     18 N          -0.4686    8.6166    6.7488 N.pl3   1  LIG1       -0.3534
     19 H          -0.8932    8.5245    7.6675 H       1  LIG1        0.1425
     20 H           0.4633    8.2119    6.8137 H       1  LIG1        0.1425
     21 O          -0.9735    9.8752    4.2330 O.3     1  LIG1       -0.5031
     22 H          -0.5701   10.1680    5.0723 H       1  LIG1        0.2923
     23 C          -3.4203    7.0637    1.5645 C.ar    1  LIG1        0.2247
     24 C          -2.6613    8.0079    2.3051 C.ar    1  LIG1        0.0669
     25 C          -2.3778    9.2000    1.6232 C.ar    1  LIG1       -0.0037
     26 C          -2.8380    9.4184    0.3255 C.ar    1  LIG1        0.1437
     27 C          -3.6201    8.4297   -0.2963 C.ar    1  LIG1        0.1197
     28 N          -3.8643    7.2683    0.3429 N.ar    1  LIG1       -0.2085
     29 H          -1.7791    9.9576    2.1191 H       1  LIG1        0.0663
     30 O          -3.7119    5.8659    2.1687 O.3     1  LIG1       -0.4792
     31 C          -4.5023    4.9380    1.4190 C.3     1  LIG1        0.0804
     32 H          -4.6449    4.0804    2.0781 H       1  LIG1        0.0660
     33 H          -5.4656    5.3752    1.1445 H       1  LIG1        0.0660
     34 H          -3.9867    4.6321    0.5047 H       1  LIG1        0.0660
     35 O          -2.5151   10.5451   -0.3735 O.3     1  LIG1       -0.5046
     36 H          -1.9841   11.1200    0.1930 H       1  LIG1        0.2922
     37 C          -4.9309    9.6542   -2.0901 C.ar    1  LIG1        0.1296
     38 C          -5.3867    9.7220   -3.4115 C.ar    1  LIG1       -0.0159
     39 C          -4.1458    8.5564   -1.6798 C.ar    1  LIG1        0.0491
     40 C          -5.0951    8.7049   -4.3195 C.ar    1  LIG1       -0.0167
     41 H          -5.9861   10.5614   -3.7424 H       1  LIG1        0.0655
     42 C          -3.8887    7.5311   -2.5968 C.ar    1  LIG1       -0.0074
     43 C          -4.3520    7.5979   -3.9111 C.ar    1  LIG1        0.1177
     44 H          -3.3055    6.6764   -2.2631 H       1  LIG1        0.0662
     45 H          -5.4477    8.7576   -5.3441 H       1  LIG1        0.0655
     46 O          -5.2402   10.5757   -1.1286 O.3     1  LIG1       -0.4944
     47 C          -5.9161   11.7557   -1.5207 C.3     1  LIG1        0.0788
     48 H          -6.0027   12.3668   -0.6208 H       1  LIG1        0.0660
     49 H          -5.3542   12.3118   -2.2824 H       1  LIG1        0.0660
     50 H          -6.9229   11.5428   -1.9047 H       1  LIG1        0.0660
     51 O          -4.1018    6.6168   -4.8378 O.3     1  LIG1       -0.5067
     52 H          -3.5748    5.9232   -4.4208 H       1  LIG1        0.2921
@<TRIPOS>BOND
     1    45    40    1
     2    51    52    1
     3    51    43    1
     4    40    43   ar
     5    40    38   ar
     6    43    42   ar
     7    41    38    1
     8    38    37   ar
     9    42    44    1
    10    42    39   ar
    11    49    47    1
    12    37    39   ar
    13    37    46    1
    14    50    47    1
    15    39    27    1
    16    47    46    1
    17    47    48    1
    18    35    36    1
    19    35    26    1
    20    27    26   ar
    21    27    28   ar
    22    26    25   ar
    23    28    23   ar
    24    34    31    1
    25    33    31    1
    26    31    32    1
    27    31    30    1
    28    23    30    1
    29    23    24   ar
    30    25    29    1
    31    25    24   ar
    32    24    15    1
    33    15    16   ar
    34    15    14   ar
    35    17    16    1
    36    21    14    1
    37    21    22    1
    38    16    12   ar
    39    14    13   ar
    40    12    13   ar
    41    12     4    1
    42    13    18    1
    43     5     4   ar
    44     5     1   ar
    45     4     3   ar
    46     6     1    1
    47    18    20    1
    48    18    19    1
    49     1     2   ar
    50     3     2   ar
    51     3     9    1
    52     2     8    1
    53     9    10    3
    54     8     7    3
    55    10    11    1
