@<TRIPOS>MOLECULE
mol_data/opt/cam/geoms/mol2/12df4ei4if-13al.out
 52 55 0 0 0
SMALL
GASTEIGER

@<TRIPOS>ATOM
      1 C           0.3392    1.6501    0.7051 C.ar    1  LIG1        0.1136
      2 C           1.6541    1.5732    0.3627 C.ar    1  LIG1        0.1314
      3 C           2.0369    2.8982   -0.0429 C.ar    1  LIG1        0.1804
      4 C           0.9188    3.6838    0.0748 C.ar    1  LIG1        0.1785
      5 O          -0.1157    2.8949    0.5401 O.2     1  LIG1       -0.4578
      6 H          -0.3634    0.9117    1.0578 H       1  LIG1        0.1044
      7 N           3.1519   -0.5230    0.4249 N.1     1  LIG1       -0.1906
      8 C           2.4836    0.4205    0.3972 C.1     1  LIG1        0.1060
      9 O           3.2980    3.1895   -0.3845 O.3     1  LIG1       -0.5024
     10 H           3.3147    3.9773   -0.9556 H       1  LIG1        0.2923
     11 C           1.2574    5.9548   -0.9753 C.ar    1  LIG1        0.0360
     12 C           0.9338    7.3174   -0.9930 C.ar    1  LIG1       -0.0377
     13 C           0.6159    5.1049   -0.0555 C.ar    1  LIG1        0.0366
     14 C          -0.0266    7.8565   -0.1510 C.ar    1  LIG1       -0.0134
     15 H           1.4418    7.9618   -1.7023 H       1  LIG1        0.0636
     16 C          -0.3621    5.6605    0.7776 C.ar    1  LIG1       -0.0463
     17 C          -0.6999    7.0062    0.7461 C.ar    1  LIG1       -0.0420
     18 H          -0.8693    5.0072    1.4784 H       1  LIG1        0.0628
     19 C           2.1963    5.4726   -1.9409 C.1     1  LIG1       -0.0689
     20 C           2.9868    5.0906   -2.7690 C.1     1  LIG1       -0.1139
     21 H           3.6576    4.7488   -3.5247 H       1  LIG1        0.1232
     22 C          -1.7673    7.5401    1.6629 C.3     1  LIG1       -0.0391
     23 H          -2.1710    6.7494    2.2977 H       1  LIG1        0.0278
     24 H          -2.5922    7.9778    1.0938 H       1  LIG1        0.0278
     25 H          -1.3797    8.3332    2.3085 H       1  LIG1        0.0278
     26 C           0.3110   10.2455    0.6001 C.ar    1  LIG1       -0.0419
     27 C          -0.0274   11.5868    0.4743 C.ar    1  LIG1       -0.0456
     28 C          -0.3387    9.3146   -0.2234 C.ar    1  LIG1       -0.0112
     29 C          -0.9810   12.0703   -0.4296 C.ar    1  LIG1        0.0401
     30 H           0.4790   12.3030    1.1120 H       1  LIG1        0.0628
     31 C          -1.2889    9.7671   -1.1335 C.ar    1  LIG1       -0.0116
     32 C          -1.6089   11.1135   -1.2408 C.ar    1  LIG1        0.1265
     33 H          -1.7917    9.0496   -1.7784 H       1  LIG1        0.0660
     34 C           1.3624    9.8139    1.5900 C.3     1  LIG1       -0.0391
     35 H           1.7438   10.6694    2.1508 H       1  LIG1        0.0278
     36 H           2.2096    9.3341    1.0912 H       1  LIG1        0.0278
     37 H           0.9710    9.0893    2.3106 H       1  LIG1        0.0278
     38 O          -2.5505   11.5330   -2.1487 O.3     1  LIG1       -0.5061
     39 H          -2.8847   10.7730   -2.6380 H       1  LIG1        0.2922
     40 C          -1.2707   13.5026   -0.4897 C.ar    1  LIG1        0.0536
     41 C          -0.7197   14.5460    0.2447 C.ar    1  LIG1        0.0055
     42 C          -1.3427   15.7369   -0.1926 C.ar    1  LIG1        0.1379
     43 C          -2.2516   15.4066   -1.1735 C.ar    1  LIG1        0.0444
     44 N          -2.1922   14.0516   -1.3376 N.ar    1  LIG1       -0.3575
     45 H          -2.7338   13.5007   -1.9835 H       1  LIG1        0.1654
     46 H          -2.9155   16.0324   -1.7469 H       1  LIG1        0.0844
     47 H           0.0406   14.4581    1.0042 H       1  LIG1        0.0675
     48 O          -1.1406   17.0157    0.2253 O.3     1  LIG1       -0.4936
     49 C          -0.1731   17.1810    1.2349 C.3     1  LIG1        0.0789
     50 H          -0.1297   18.2480    1.4552 H       1  LIG1        0.0660
     51 H          -0.4451   16.6369    2.1483 H       1  LIG1        0.0660
     52 H           0.8171   16.8422    0.9048 H       1  LIG1        0.0660
@<TRIPOS>BOND
     1    21    20    1
     2    20    19    3
     3    39    38    1
     4    38    32    1
     5    45    44    1
     6    19    11    1
     7    33    31    1
     8    46    43    1
     9    15    12    1
    10    44    43   ar
    11    44    40   ar
    12    32    31   ar
    13    32    29   ar
    14    43    42   ar
    15    31    28   ar
    16    12    11   ar
    17    12    14   ar
    18    11    13   ar
    19    10     9    1
    20    40    29    1
    21    40    41   ar
    22    29    27   ar
    23     9     3    1
    24    28    14    1
    25    28    26   ar
    26    42    48    1
    27    42    41   ar
    28    14    17   ar
    29    13     4    1
    30    13    16   ar
    31     3     4   ar
    32     3     2   ar
    33     4     5   ar
    34    48    49    1
    35    41    47    1
    36     2     8    1
    37     2     1   ar
    38     8     7    3
    39    27    26   ar
    40    27    30    1
    41     5     1   ar
    42    26    34    1
    43     1     6    1
    44    17    16   ar
    45    17    22    1
    46    16    18    1
    47    52    49    1
    48    36    34    1
    49    24    22    1
    50    49    50    1
    51    49    51    1
    52    34    35    1
    53    34    37    1
    54    22    23    1
    55    22    25    1
