@<TRIPOS>MOLECULE
mol_data/opt/cam/geoms/mol2/12df13hh13dl4fd-13ei6ii-6ie12hf.out
 100 107 0 0 0
SMALL
GASTEIGER

@<TRIPOS>ATOM
      1 C           1.3712    2.3172    0.0791 C.ar    1  LIG1        0.1137
      2 C           2.6926    2.5271    0.3390 C.ar    1  LIG1        0.1315
      3 C           2.9030    3.9466    0.2401 C.ar    1  LIG1        0.1819
      4 C           1.6837    4.4859   -0.0727 C.ar    1  LIG1        0.1952
      5 O           0.7477    3.4779   -0.1695 O.2     1  LIG1       -0.4563
      6 H           0.7735    1.4205    0.0423 H       1  LIG1        0.1044
      7 N           4.4531    0.7295    0.8973 N.1     1  LIG1       -0.1906
      8 C           3.6660    1.5390    0.6469 C.1     1  LIG1        0.1060
      9 O           4.0756    4.5433    0.4300 O.3     1  LIG1       -0.5023
     10 H           3.9481    5.5237    0.3070 H       1  LIG1        0.2923
     11 C           1.2320    5.8304   -0.3046 C.ar    1  LIG1        0.1090
     12 C           1.9342    7.0217   -0.3147 C.ar    1  LIG1        0.0750
     13 C           1.0286    8.0683   -0.6534 C.ar    1  LIG1        0.0734
     14 C          -0.2155    7.4806   -0.8428 C.ar    1  LIG1        0.0876
     15 N          -0.0677    6.1149   -0.5925 N.ar    1  LIG1       -0.3475
     16 H          -0.7189    5.4100   -0.9010 H       1  LIG1        0.1662
     17 N           3.3259    7.1476   -0.0084 N.pl3   1  LIG1       -0.3548
     18 H           3.8542    7.5386   -0.7848 H       1  LIG1        0.1424
     19 H           3.4860    7.7359    0.8060 H       1  LIG1        0.1424
     20 N           1.3632    9.4124   -0.6481 N.pl3   1  LIG1       -0.3548
     21 H           2.3597    9.5755   -0.6695 H       1  LIG1        0.1424
     22 H           0.8895    9.9920   -1.3296 H       1  LIG1        0.1424
     23 C          -1.5231    8.0273   -1.0861 C.ar    1  LIG1        0.0865
     24 C          -1.9485    9.1525   -1.7888 C.ar    1  LIG1        0.1206
     25 C          -3.3773    9.2214   -1.6698 C.ar    1  LIG1        0.1633
     26 C          -3.7888    8.1524   -0.9162 C.ar    1  LIG1        0.0941
     27 N          -2.6466    7.4207   -0.6024 N.ar    1  LIG1       -0.3489
     28 H          -2.6204    6.7367    0.1380 H       1  LIG1        0.1661
     29 N          -0.3846   10.6690   -3.1560 N.1     1  LIG1       -0.1907
     30 C          -1.1121    9.9899   -2.5587 C.1     1  LIG1        0.1050
     31 O          -4.2018   10.0897   -2.2956 O.3     1  LIG1       -0.4917
     32 C          -4.0050   11.4626   -1.9711 C.3     1  LIG1        0.0789
     33 H          -4.7583   12.0176   -2.5303 H       1  LIG1        0.0660
     34 H          -4.1477   11.6246   -0.8991 H       1  LIG1        0.0660
     35 H          -3.0116   11.8085   -2.2716 H       1  LIG1        0.0660
     36 C          -6.1104    8.5470   -0.0316 C.ar    1  LIG1        0.1268
     37 C          -7.3574    8.0645    0.3383 C.ar    1  LIG1       -0.0091
     38 C          -5.1150    7.6822   -0.5249 C.ar    1  LIG1        0.0446
     39 C          -7.6841    6.7071    0.2866 C.ar    1  LIG1        0.0203
     40 H          -8.0981    8.7667    0.7010 H       1  LIG1        0.0661
     41 C          -5.4373    6.3340   -0.5928 C.ar    1  LIG1       -0.0310
     42 C          -6.6804    5.8346   -0.1939 C.ar    1  LIG1        0.0617
     43 H          -4.7050    5.6373   -0.9859 H       1  LIG1        0.0638
     44 O          -5.8084    9.8585    0.0842 O.3     1  LIG1       -0.5061
     45 H          -6.5681   10.3313    0.4460 H       1  LIG1        0.2922
     46 N          -7.0347    3.2816   -0.4300 N.1     1  LIG1       -0.1908
     47 C          -6.8739    4.4232   -0.3115 C.1     1  LIG1        0.0998
     48 C          -9.0122    6.2759    0.7206 C.ar    1  LIG1        0.0641
     49 C          -9.9640    6.9298    1.5099 C.ar    1  LIG1        0.0534
     50 C         -11.1051    6.0825    1.6224 C.ar    1  LIG1       -0.0092
     51 C         -10.8239    4.9368    0.9070 C.ar    1  LIG1        0.0528
     52 N          -9.5658    5.0715    0.3808 N.ar    1  LIG1       -0.3529
     53 H          -9.1305    4.3790   -0.2089 H       1  LIG1        0.1659
     54 C          -9.8683    8.1871    2.1651 C.1     1  LIG1       -0.0673
     55 C          -9.8506    9.2432    2.7472 C.1     1  LIG1       -0.1138
     56 H          -9.8340   10.1676    3.2770 H       1  LIG1        0.1232
     57 C         -12.3367    6.3914    2.4105 C.3     1  LIG1       -0.0365
     58 H         -12.9563    5.5020    2.5377 H       1  LIG1        0.0279
     59 H         -12.9458    7.1601    1.9235 H       1  LIG1        0.0279
     60 H         -12.0776    6.7726    3.4018 H       1  LIG1        0.0279
     61 C         -11.1946    2.4367    0.9523 C.ar    1  LIG1        0.0480
     62 C         -11.6436    3.7389    0.6643 C.ar    1  LIG1        0.0199
     63 C         -12.9330    3.8769    0.1579 C.ar    1  LIG1       -0.0460
     64 C         -13.7430    2.7734   -0.0839 C.ar    1  LIG1       -0.0238
     65 C         -13.1873    1.5177    0.2018 C.ar    1  LIG1        0.0759
     66 N         -11.9620    1.3745    0.7160 N.ar    1  LIG1       -0.2509
     67 H         -13.3098    4.8728   -0.0569 H       1  LIG1        0.0628
     68 C          -9.8460    2.1572    1.5586 C.3     1  LIG1       -0.0217
     69 H          -9.5783    2.9068    2.3070 H       1  LIG1        0.0293
     70 H          -9.0511    2.1476    0.8055 H       1  LIG1        0.0293
     71 H          -9.8683    1.1715    2.0230 H       1  LIG1        0.0293
     72 C         -15.1418    2.9565   -0.6121 C.3     1  LIG1       -0.0377
     73 H         -15.8361    2.2395   -0.1700 H       1  LIG1        0.0278
     74 H         -15.1892    2.8216   -1.6971 H       1  LIG1        0.0278
     75 H         -15.5035    3.9639   -0.3938 H       1  LIG1        0.0278
     76 C         -14.1983   -0.6872    0.9651 C.ar    1  LIG1        0.0483
     77 C         -13.9323    0.2521   -0.0538 C.ar    1  LIG1        0.0228
     78 C         -14.3458   -0.0684   -1.3339 C.ar    1  LIG1       -0.0333
     79 C         -15.0165   -1.2667   -1.5974 C.ar    1  LIG1        0.0543
     80 C         -15.3081   -2.1039   -0.5021 C.ar    1  LIG1        0.1235
     81 N         -14.8763   -1.8039    0.7317 N.ar    1  LIG1       -0.2468
     82 H         -14.1159    0.5932   -2.1625 H       1  LIG1        0.0637
     83 C         -13.7530   -0.4700    2.3836 C.3     1  LIG1       -0.0217
     84 H         -14.0686    0.5095    2.7548 H       1  LIG1        0.0293
     85 H         -12.6633   -0.4965    2.4490 H       1  LIG1        0.0293
     86 H         -14.1799   -1.2511    3.0111 H       1  LIG1        0.0293
     87 C         -15.2902   -1.6176   -2.9541 C.1     1  LIG1       -0.0674
     88 C         -15.4892   -1.8819   -4.1138 C.1     1  LIG1       -0.1138
     89 H         -15.6265   -2.1358   -5.1399 H       1  LIG1        0.1232
     90 C         -16.0870   -3.3291   -0.6142 C.ar    1  LIG1        0.1783
     91 C         -17.1959   -3.7035   -1.3376 C.ar    1  LIG1        0.1146
     92 C         -17.5381   -5.0087   -0.8623 C.ar    1  LIG1        0.1763
     93 C         -16.6428   -5.3352    0.1008 C.ar    1  LIG1        0.1359
     94 O         -15.7594   -4.3271    0.2693 O.2     1  LIG1       -0.4557
     95 H         -16.5059   -6.2110    0.7152 H       1  LIG1        0.1068
     96 N         -17.9750   -3.0144   -2.2498 N.pl3   1  LIG1       -0.3522
     97 H         -17.4594   -2.4510   -2.9132 H       1  LIG1        0.1425
     98 H         -18.6544   -3.6145   -2.6974 H       1  LIG1        0.1425
     99 O         -18.6022   -5.6811   -1.3830 O.3     1  LIG1       -0.5024
    100 H         -18.7443   -6.4980   -0.8926 H       1  LIG1        0.2923
@<TRIPOS>BOND
     1    89    88    1
     2    88    87    3
     3    29    30    3
     4    87    79    1
     5    97    96    1
     6    98    96    1
     7    30    24    1
     8    33    32    1
     9    31    32    1
    10    31    25    1
    11    35    32    1
    12    96    91    1
    13    82    78    1
    14    32    34    1
    15    24    25   ar
    16    24    23   ar
    17    74    72    1
    18    25    26   ar
    19    79    78   ar
    20    79    80   ar
    21    99   100    1
    22    99    92    1
    23    91    92   ar
    24    91    90   ar
    25    78    77   ar
    26    22    20    1
    27    23    14    1
    28    23    27   ar
    29    43    41    1
    30    26    27   ar
    31    26    38    1
    32    16    15    1
    33    92    93   ar
    34    14    13   ar
    35    14    15   ar
    36    18    17    1
    37    21    20    1
    38    13    20    1
    39    13    12   ar
    40    90    80    1
    41    90    94   ar
    42    72    75    1
    43    72    73    1
    44    72    64    1
    45    27    28    1
    46    41    38   ar
    47    41    42   ar
    48    15    11   ar
    49    38    36   ar
    50    80    81   ar
    51    46    47    3
    52    12    11   ar
    53    12    17    1
    54    47    42    1
    55    11     4    1
    56    53    52    1
    57    42    39   ar
    58     5     4   ar
    59     5     1   ar
    60    64    63   ar
    61    64    65   ar
    62     4     3   ar
    63    67    63    1
    64    77    65    1
    65    77    76   ar
    66    36    44    1
    67    36    37   ar
    68    17    19    1
    69     6     1    1
    70     1     2   ar
    71    44    45    1
    72    93    94   ar
    73    93    95    1
    74    63    62   ar
    75    65    66   ar
    76     3     2   ar
    77     3     9    1
    78    39    37   ar
    79    39    48    1
    80    10     9    1
    81    37    40    1
    82     2     8    1
    83    52    48   ar
    84    52    51   ar
    85     8     7    3
    86    62    51    1
    87    62    61   ar
    88    66    61   ar
    89    48    49   ar
    90    81    76   ar
    91    70    68    1
    92    51    50   ar
    93    61    68    1
    94    76    83    1
    95    49    50   ar
    96    49    54    1
    97    68    71    1
    98    68    69    1
    99    50    57    1
   100    59    57    1
   101    54    55    3
   102    83    85    1
   103    83    84    1
   104    83    86    1
   105    57    58    1
   106    57    60    1
   107    55    56    1
