@<TRIPOS>MOLECULE
mol_data/opt/cam/geoms/mol2/12df4ii-12id-4da.out
 49 52 0 0 0
SMALL
GASTEIGER

@<TRIPOS>ATOM
      1 C           1.2476    1.8763    1.3563 C.ar    1  LIG1        0.1136
      2 C           1.5720    1.6584    0.0505 C.ar    1  LIG1        0.1314
      3 C           1.4305    2.9311   -0.5974 C.ar    1  LIG1        0.1804
      4 C           1.0567    3.8279    0.3576 C.ar    1  LIG1        0.1775
      5 O           0.9266    3.1602    1.5555 O.2     1  LIG1       -0.4578
      6 H           1.2105    1.2210    2.2120 H       1  LIG1        0.1044
      7 N           2.2499   -0.5814   -1.0290 N.1     1  LIG1       -0.1906
      8 C           1.9468    0.4248   -0.5461 C.1     1  LIG1        0.1060
      9 O           1.6192    3.1072   -1.9232 O.3     1  LIG1       -0.5024
     10 H           1.1840    3.9236   -2.1996 H       1  LIG1        0.2923
     11 C           1.5486    6.1993   -0.2831 C.ar    1  LIG1       -0.0390
     12 C           1.1100    7.5209   -0.3116 C.ar    1  LIG1       -0.0472
     13 C           0.7061    5.2492    0.3170 C.ar    1  LIG1        0.0241
     14 C          -0.0947    7.9292    0.2608 C.ar    1  LIG1        0.0208
     15 H           1.7335    8.2655   -0.7960 H       1  LIG1        0.0627
     16 C          -0.4955    5.6611    0.9025 C.ar    1  LIG1       -0.0471
     17 C          -0.9176    6.9829    0.9003 C.ar    1  LIG1       -0.0391
     18 H          -1.1161    4.9121    1.3841 H       1  LIG1        0.0627
     19 C           2.9084    5.8473   -0.8305 C.3     1  LIG1       -0.0390
     20 H           3.4619    6.7510   -1.0911 H       1  LIG1        0.0278
     21 H           2.8668    5.2163   -1.7222 H       1  LIG1        0.0278
     22 H           3.4915    5.2929   -0.0900 H       1  LIG1        0.0278
     23 C          -2.2081    7.3618    1.5775 C.3     1  LIG1       -0.0390
     24 H          -2.5721    6.5384    2.1945 H       1  LIG1        0.0278
     25 H          -2.9852    7.6137    0.8519 H       1  LIG1        0.0278
     26 H          -2.0777    8.2367    2.2199 H       1  LIG1        0.0278
     27 C          -0.4497    9.3515    0.2007 C.ar    1  LIG1        0.1401
     28 C           0.2543   10.4936    0.4352 C.ar    1  LIG1        0.0133
     29 C          -0.6688   11.5699    0.1900 C.ar    1  LIG1        0.1009
     30 C          -1.8663   11.0070   -0.1612 C.ar    1  LIG1        0.1545
     31 O          -1.7343    9.6632   -0.1647 O.2     1  LIG1       -0.4532
     32 C           1.6720   10.6523    0.8775 C.3     1  LIG1       -0.0349
     33 H           1.7455   11.4052    1.6661 H       1  LIG1        0.0279
     34 H           2.3126   10.9845    0.0545 H       1  LIG1        0.0279
     35 H           2.0710    9.7120    1.2603 H       1  LIG1        0.0279
     36 N          -0.0270   14.0664    0.2240 N.1     1  LIG1       -0.1907
     37 C          -0.3404   12.9528    0.2208 C.1     1  LIG1        0.1032
     38 C          -3.8041   12.5895    0.1023 C.ar    1  LIG1        0.0624
     39 C          -5.0252   13.0857   -0.3615 C.ar    1  LIG1       -0.0437
     40 C          -3.1626   11.5410   -0.5812 C.ar    1  LIG1        0.0359
     41 C          -5.6230   12.5344   -1.4833 C.ar    1  LIG1       -0.0605
     42 H          -5.5024   13.8948    0.1790 H       1  LIG1        0.0631
     43 C          -3.7930   10.9841   -1.6958 C.ar    1  LIG1       -0.0498
     44 C          -5.0104   11.4742   -2.1433 C.ar    1  LIG1       -0.0610
     45 H          -3.3075   10.1662   -2.2155 H       1  LIG1        0.0625
     46 H          -6.5709   12.9251   -1.8362 H       1  LIG1        0.0618
     47 N          -2.9023   13.5456    2.3356 N.1     1  LIG1       -0.1908
     48 C          -3.2761   13.1218    1.3267 C.1     1  LIG1        0.0999
     49 H          -5.4791   11.0325   -3.0160 H       1  LIG1        0.0618
@<TRIPOS>BOND
     1    49    44    1
     2    45    43    1
     3    10     9    1
     4    44    43   ar
     5    44    41   ar
     6     9     3    1
     7    46    41    1
     8    21    19    1
     9    43    40   ar
    10    41    39   ar
    11    20    19    1
    12     7     8    3
    13    19    11    1
    14    19    22    1
    15    15    12    1
    16     3     2   ar
    17     3     4   ar
    18    40    30    1
    19    40    38   ar
    20     8     2    1
    21    39    38   ar
    22    39    42    1
    23    12    11   ar
    24    12    14   ar
    25    11    13   ar
    26    31    30   ar
    27    31    27   ar
    28    30    29   ar
    29     2     1   ar
    30    34    32    1
    31    38    48    1
    32    29    37    1
    33    29    28   ar
    34    27    14    1
    35    27    28   ar
    36    37    36    3
    37    14    17   ar
    38    13     4    1
    39    13    16   ar
    40     4     5   ar
    41    28    32    1
    42    25    23    1
    43    32    35    1
    44    32    33    1
    45    17    16   ar
    46    17    23    1
    47    16    18    1
    48    48    47    3
    49     1     5   ar
    50     1     6    1
    51    23    24    1
    52    23    26    1
