@<TRIPOS>MOLECULE
mol_data/opt/cam/geoms/mol2/12dg12dg-12dg12dg.out
 38 41 0 0 0
SMALL
GASTEIGER

@<TRIPOS>ATOM
      1 C           0.8942    2.2026    1.8282 C.ar    1  LIG1        0.1112
      2 C           1.8269    1.9167    0.8788 C.ar    1  LIG1        0.1033
      3 C           1.9057    3.0703    0.0196 C.ar    1  LIG1        0.0712
      4 C           1.0047    3.9604    0.5359 C.ar    1  LIG1        0.1854
      5 O           0.3964    3.4324    1.6385 O.2     1  LIG1       -0.4573
      6 H           0.5109    1.6438    2.6671 H       1  LIG1        0.1043
      7 N           3.1516   -0.2875    0.6868 N.1     1  LIG1       -0.1907
      8 C           2.5629    0.7041    0.7670 C.1     1  LIG1        0.1034
      9 S           2.8528    3.1438   -1.4661 S.3     1  LIG1       -0.1376
     10 H           3.6025    4.2153   -1.1492 H       1  LIG1        0.1073
     11 C           0.5720    5.2830    0.1545 C.ar    1  LIG1        0.1902
     12 C           1.2235    6.3836   -0.3401 C.ar    1  LIG1        0.1144
     13 C           0.2316    7.4048   -0.5388 C.ar    1  LIG1        0.0719
     14 C          -0.9447    6.8450   -0.1229 C.ar    1  LIG1        0.1864
     15 O          -0.7377    5.5648    0.3007 O.2     1  LIG1       -0.4461
     16 N           3.7720    6.5560   -0.6722 N.1     1  LIG1       -0.1907
     17 C           2.6242    6.5013   -0.5361 C.1     1  LIG1        0.1042
     18 S           0.5456    8.9530   -1.3214 S.3     1  LIG1       -0.1376
     19 H           0.1441    9.7490   -0.3133 H       1  LIG1        0.1073
     20 C          -2.3084    7.3117   -0.0608 C.ar    1  LIG1        0.1902
     21 C          -2.8802    8.5155    0.2606 C.ar    1  LIG1        0.1144
     22 C          -4.3013    8.3568    0.1138 C.ar    1  LIG1        0.0719
     23 C          -4.4784    7.0541   -0.2625 C.ar    1  LIG1        0.1864
     24 O          -3.2749    6.4214   -0.3618 O.2     1  LIG1       -0.4461
     25 N          -1.5834   10.5740    1.1064 N.1     1  LIG1       -0.1907
     26 C          -2.1890    9.6652    0.7239 C.1     1  LIG1        0.1042
     27 S          -5.4688    9.6720    0.2437 S.3     1  LIG1       -0.1376
     28 H          -6.1970    9.1682    1.2569 H       1  LIG1        0.1073
     29 C          -5.6374    6.2516   -0.5739 C.ar    1  LIG1        0.1892
     30 C          -6.8974    6.1764   -0.0358 C.ar    1  LIG1        0.1136
     31 C          -7.6089    5.1854   -0.7979 C.ar    1  LIG1        0.0607
     32 C          -6.7205    4.7345   -1.7172 C.ar    1  LIG1        0.1071
     33 O          -5.5267    5.3738   -1.5874 O.2     1  LIG1       -0.4573
     34 H          -6.7794    3.9943   -2.4981 H       1  LIG1        0.1041
     35 N          -7.7127    7.4574    2.0447 N.1     1  LIG1       -0.1907
     36 C          -7.3609    6.8791    1.1057 C.1     1  LIG1        0.1042
     37 S          -9.2798    4.7242   -0.4967 S.3     1  LIG1       -0.1383
     38 H          -9.3205    3.7523   -1.4223 H       1  LIG1        0.1072
@<TRIPOS>BOND
     1    34    32    1
     2    32    33   ar
     3    32    31   ar
     4    33    29   ar
     5     9    10    1
     6     9     3    1
     7    38    37    1
     8    18    13    1
     9    18    19    1
    10    31    37    1
    11    31    30   ar
    12    16    17    3
    13    29    23    1
    14    29    30   ar
    15    13    12   ar
    16    13    14   ar
    17    17    12    1
    18    24    23   ar
    19    24    20   ar
    20    12    11   ar
    21    23    22   ar
    22    14    20    1
    23    14    15   ar
    24    20    21   ar
    25    30    36    1
    26     3     4   ar
    27     3     2   ar
    28    22    27    1
    29    22    21   ar
    30    11    15   ar
    31    11     4    1
    32    27    28    1
    33    21    26    1
    34     4     5   ar
    35     7     8    3
    36    26    25    3
    37     8     2    1
    38     2     1   ar
    39    36    35    3
    40     5     1   ar
    41     1     6    1
