@<TRIPOS>MOLECULE
mol_data/opt/cam/geoms/mol2/12dg12dg12dg12dg-.out
 38 41 0 0 0
SMALL
GASTEIGER

@<TRIPOS>ATOM
      1 C           0.7192    1.6807    0.0371 C.ar    1  LIG1        0.1112
      2 C           2.0071    1.8866   -0.3524 C.ar    1  LIG1        0.1033
      3 C           2.2141    3.3123   -0.3505 C.ar    1  LIG1        0.0712
      4 C           1.0189    3.8444    0.0489 C.ar    1  LIG1        0.1854
      5 O           0.1145    2.8499    0.2895 O.2     1  LIG1       -0.4573
      6 H           0.1332    0.7864    0.1775 H       1  LIG1        0.1043
      7 N           3.6993    0.0447   -0.9798 N.1     1  LIG1       -0.1907
      8 C           2.9474    0.8766   -0.6992 C.1     1  LIG1        0.1034
      9 S           3.6729    4.1081   -0.9402 S.3     1  LIG1       -0.1376
     10 H           3.9817    4.7765    0.1861 H       1  LIG1        0.1073
     11 C           0.5356    5.1904    0.2395 C.ar    1  LIG1        0.1902
     12 C           1.1012    6.3346    0.7407 C.ar    1  LIG1        0.1144
     13 C           0.1053    7.3676    0.6567 C.ar    1  LIG1        0.0719
     14 C          -0.9949    6.7584    0.1191 C.ar    1  LIG1        0.1864
     15 O          -0.7324    5.4456   -0.1405 O.2     1  LIG1       -0.4461
     16 N           3.4466    6.4720    1.7967 N.1     1  LIG1       -0.1907
     17 C           2.3923    6.4366    1.3213 C.1     1  LIG1        0.1042
     18 S           0.2900    8.9851    1.3346 S.3     1  LIG1       -0.1376
     19 H           0.1005    9.6779    0.1965 H       1  LIG1        0.1073
     20 C          -2.3278    7.2070   -0.2015 C.ar    1  LIG1        0.1902
     21 C          -2.8300    8.3719   -0.7216 C.ar    1  LIG1        0.1144
     22 C          -4.2560    8.2126   -0.8048 C.ar    1  LIG1        0.0719
     23 C          -4.5029    6.9521   -0.3354 C.ar    1  LIG1        0.1864
     24 O          -3.3391    6.3477    0.0366 O.2     1  LIG1       -0.4461
     25 N          -1.3966   10.3446   -1.5514 N.1     1  LIG1       -0.1907
     26 C          -2.0628    9.4745   -1.1801 C.1     1  LIG1        0.1042
     27 S          -5.3477    9.3679   -1.5697 S.3     1  LIG1       -0.1376
     28 H          -6.1058    9.6386   -0.4913 H       1  LIG1        0.1073
     29 C          -5.7020    6.1658   -0.1704 C.ar    1  LIG1        0.1892
     30 C          -6.9763    6.4771    0.2319 C.ar    1  LIG1        0.1136
     31 C          -7.7317    5.2542    0.1781 C.ar    1  LIG1        0.0607
     32 C          -6.8531    4.3077   -0.2334 C.ar    1  LIG1        0.1071
     33 O          -5.6235    4.8511   -0.4455 O.2     1  LIG1       -0.4573
     34 H          -6.9414    3.2493   -0.4154 H       1  LIG1        0.1041
     35 N          -7.7586    8.7817    1.0752 N.1     1  LIG1       -0.1907
     36 C          -7.4211    7.7423    0.6934 C.1     1  LIG1        0.1042
     37 S          -9.4354    5.1313    0.5996 S.3     1  LIG1       -0.1383
     38 H          -9.5203    3.8015    0.4339 H       1  LIG1        0.1072
@<TRIPOS>BOND
     1    27    22    1
     2    27    28    1
     3    25    26    3
     4    26    21    1
     5     7     8    3
     6     9     3    1
     7     9    10    1
     8    22    21   ar
     9    22    23   ar
    10    21    20   ar
    11     8     2    1
    12    33    32   ar
    13    33    29   ar
    14    34    32    1
    15     2     3   ar
    16     2     1   ar
    17     3     4   ar
    18    23    29    1
    19    23    24   ar
    20    32    31   ar
    21    20    24   ar
    22    20    14    1
    23    29    30   ar
    24    15    14   ar
    25    15    11   ar
    26     1     6    1
    27     1     5   ar
    28     4    11    1
    29     4     5   ar
    30    14    13   ar
    31    31    30   ar
    32    31    37    1
    33    19    18    1
    34    30    36    1
    35    11    12   ar
    36    38    37    1
    37    13    12   ar
    38    13    18    1
    39    36    35    3
    40    12    17    1
    41    17    16    3
