@<TRIPOS>MOLECULE
mol_data/opt/cam/geoms/mol2/12dg12dg-12dg.out
 29 31 0 0 0
SMALL
GASTEIGER

@<TRIPOS>ATOM
      1 C           0.0501    1.8824    0.0002 C.ar    1  LIG1        0.1112
      2 C           1.4026    1.7428    0.0000 C.ar    1  LIG1        0.1033
      3 C           1.9589    3.0726   -0.0001 C.ar    1  LIG1        0.0712
      4 C           0.8731    3.9162   -0.0000 C.ar    1  LIG1        0.1854
      5 O          -0.2847    3.1704    0.0001 O.2     1  LIG1       -0.4573
      6 H          -0.7540    1.1634    0.0003 H       1  LIG1        0.1043
      7 N           2.7116   -0.4785   -0.0000 N.1     1  LIG1       -0.1907
      8 C           2.1234    0.5170    0.0000 C.1     1  LIG1        0.1034
      9 S           3.6986    3.2666   -0.0003 S.3     1  LIG1       -0.1376
     10 H           3.7491    4.6063   -0.0002 H       1  LIG1        0.1073
     11 C           0.6115    5.3371   -0.0000 C.ar    1  LIG1        0.1902
     12 C           1.3456    6.5030   -0.0000 C.ar    1  LIG1        0.1144
     13 C           0.4107    7.5987   -0.0001 C.ar    1  LIG1        0.0719
     14 C          -0.8314    7.0194   -0.0001 C.ar    1  LIG1        0.1864
     15 O          -0.6910    5.6533   -0.0001 O.2     1  LIG1       -0.4461
     16 N           3.8964    6.8524    0.0001 N.1     1  LIG1       -0.1907
     17 C           2.7515    6.6763    0.0000 C.1     1  LIG1        0.1042
     18 S           1.0221    9.2411   -0.0002 S.3     1  LIG1       -0.1376
     19 H          -0.1542    9.8844   -0.0001 H       1  LIG1        0.1073
     20 C          -2.2167    7.4326   -0.0002 C.ar    1  LIG1        0.1892
     21 C          -2.9199    8.6200   -0.0002 C.ar    1  LIG1        0.1136
     22 C          -4.3183    8.2709   -0.0003 C.ar    1  LIG1        0.0607
     23 C          -4.3563    6.9198   -0.0004 C.ar    1  LIG1        0.1071
     24 O          -3.0947    6.4108   -0.0004 O.2     1  LIG1       -0.4573
     25 H          -5.1581    6.2002   -0.0005 H       1  LIG1        0.1041
     26 N          -2.0855   11.0551    0.0002 N.1     1  LIG1       -0.1907
     27 C          -2.4400    9.9520    0.0000 C.1     1  LIG1        0.1042
     28 S          -5.6201    9.4551   -0.0003 S.3     1  LIG1       -0.1383
     29 H          -6.6169    8.5555   -0.0004 H       1  LIG1        0.1072
@<TRIPOS>BOND
     1    25    23    1
     2    29    28    1
     3    23    24   ar
     4    23    22   ar
     5    24    20   ar
     6    28    22    1
     7    22    21   ar
     8     9    10    1
     9     9     3    1
    10    20    21   ar
    11    20    14    1
    12    18    19    1
    13    18    13    1
    14    21    27    1
    15    14    13   ar
    16    14    15   ar
    17    13    12   ar
    18    15    11   ar
    19     3     4   ar
    20     3     2   ar
    21    12    11   ar
    22    12    17    1
    23    11     4    1
    24     7     8    3
    25     4     5   ar
    26     8     2    1
    27    27    26    3
    28    17    16    3
    29     2     1   ar
    30     5     1   ar
    31     1     6    1
