@<TRIPOS>MOLECULE
mol_data/opt/cam/geoms/mol2/12dg12dg.out
 20 21 0 0 0
SMALL
GASTEIGER

@<TRIPOS>ATOM
      1 C           0.2447    1.8326    0.5002 C.ar    1  LIG1        0.1112
      2 C           1.5080    1.8213   -0.0057 C.ar    1  LIG1        0.1033
      3 C           1.8352    3.1886   -0.3226 C.ar    1  LIG1        0.0712
      4 C           0.7292    3.9110    0.0291 C.ar    1  LIG1        0.1853
      5 O          -0.2330    3.0852    0.5351 O.2     1  LIG1       -0.4573
      6 H          -0.4035    1.0515    0.8640 H       1  LIG1        0.1043
      7 N           2.9778   -0.2723   -0.3319 N.1     1  LIG1       -0.1907
      8 C           2.3257    0.6713   -0.1882 C.1     1  LIG1        0.1034
      9 S           3.3003    3.7011   -1.1607 S.3     1  LIG1       -0.1376
     10 H           3.7820    4.5146   -0.2034 H       1  LIG1        0.1073
     11 C           0.3869    5.3125   -0.0345 C.ar    1  LIG1        0.1892
     12 C           1.0993    6.4623    0.1950 C.ar    1  LIG1        0.1136
     13 C           0.1988    7.5576   -0.0507 C.ar    1  LIG1        0.0607
     14 C          -0.9807    6.9835   -0.3892 C.ar    1  LIG1        0.1071
     15 O          -0.8748    5.6262   -0.3822 O.2     1  LIG1       -0.4573
     16 H          -1.9471    7.3825   -0.6502 H       1  LIG1        0.1041
     17 N           3.5212    6.5800    1.0637 N.1     1  LIG1       -0.1907
     18 C           2.4339    6.5388    0.6683 C.1     1  LIG1        0.1042
     19 S           0.6450    9.2525    0.1067 S.3     1  LIG1       -0.1383
     20 H          -0.5728    9.7405   -0.1796 H       1  LIG1        0.1072
@<TRIPOS>BOND
     1     9     3    1
     2     9    10    1
     3    16    14    1
     4    14    15   ar
     5    14    13   ar
     6    15    11   ar
     7     7     8    3
     8     3     2   ar
     9     3     4   ar
    10     8     2    1
    11    20    19    1
    12    13    19    1
    13    13    12   ar
    14    11     4    1
    15    11    12   ar
    16     2     1   ar
    17     4     5   ar
    18    12    18    1
    19     1     5   ar
    20     1     6    1
    21    18    17    3
