@<TRIPOS>MOLECULE
mol_data/opt/cam/geoms/mol2/12dg12dg12dg12dg.out
 38 41 0 0 0
SMALL
GASTEIGER

@<TRIPOS>ATOM
      1 C           0.8758    2.1997    1.8213 C.ar    1  LIG1        0.1112
      2 C           1.8175    1.9146    0.8805 C.ar    1  LIG1        0.1033
      3 C           1.9048    3.0692    0.0234 C.ar    1  LIG1        0.0712
      4 C           0.9991    3.9590    0.5321 C.ar    1  LIG1        0.1854
      5 O           0.3802    3.4299    1.6283 O.2     1  LIG1       -0.4573
      6 H           0.4844    1.6400    2.6559 H       1  LIG1        0.1043
      7 N           3.1434   -0.2897    0.6986 N.1     1  LIG1       -0.1907
      8 C           2.5542    0.7020    0.7744 C.1     1  LIG1        0.1034
      9 S           2.8660    3.1441   -1.4531 S.3     1  LIG1       -0.1376
     10 H           3.6129    4.2151   -1.1279 H       1  LIG1        0.1073
     11 C           0.5704    5.2822    0.1481 C.ar    1  LIG1        0.1902
     12 C           1.2270    6.3831   -0.3390 C.ar    1  LIG1        0.1144
     13 C           0.2372    7.4048   -0.5460 C.ar    1  LIG1        0.0719
     14 C          -0.9431    6.8449   -0.1419 C.ar    1  LIG1        0.1864
     15 O          -0.7405    5.5642    0.2821 O.2     1  LIG1       -0.4461
     16 N           3.7785    6.5552   -0.6466 N.1     1  LIG1       -0.1907
     17 C           2.6295    6.5006   -0.5216 C.1     1  LIG1        0.1042
     18 S           0.5592    8.9538   -1.3238 S.3     1  LIG1       -0.1376
     19 H           0.1483    9.7488   -0.3187 H       1  LIG1        0.1073
     20 C          -2.3072    7.3119   -0.0923 C.ar    1  LIG1        0.1902
     21 C          -2.8817    8.5155    0.2250 C.ar    1  LIG1        0.1144
     22 C          -4.3014    8.3574    0.0646 C.ar    1  LIG1        0.0719
     23 C          -4.4752    7.0552   -0.3149 C.ar    1  LIG1        0.1864
     24 O          -3.2711    6.4222   -0.4035 O.2     1  LIG1       -0.4461
     25 N          -1.5924   10.5726    1.0856 N.1     1  LIG1       -0.1907
     26 C          -2.1946    9.6645    0.6962 C.1     1  LIG1        0.1042
     27 S          -5.4697    9.6728    0.1849 S.3     1  LIG1       -0.1376
     28 H          -6.2076    9.1680    1.1906 H       1  LIG1        0.1073
     29 C          -5.6315    6.2534   -0.6382 C.ar    1  LIG1        0.1892
     30 C          -6.8965    6.1778   -0.1122 C.ar    1  LIG1        0.1136
     31 C          -7.6009    5.1879   -0.8822 C.ar    1  LIG1        0.0607
     32 C          -6.7040    4.7379   -1.7936 C.ar    1  LIG1        0.1071
     33 O          -5.5113    5.3767   -1.6517 O.2     1  LIG1       -0.4573
     34 H          -6.7557    3.9985   -2.5759 H       1  LIG1        0.1041
     35 N          -7.7312    7.4566    1.9619 N.1     1  LIG1       -0.1907
     36 C          -7.3707    6.8793    1.0256 C.1     1  LIG1        0.1042
     37 S          -9.2748    4.7268   -0.5975 S.3     1  LIG1       -0.1383
     38 H          -9.3070    3.7560   -1.5245 H       1  LIG1        0.1072
@<TRIPOS>BOND
     1    34    32    1
     2    32    33   ar
     3    32    31   ar
     4    33    29   ar
     5    38    37    1
     6     9    10    1
     7     9     3    1
     8    18    13    1
     9    18    19    1
    10    31    37    1
    11    31    30   ar
    12    16    17    3
    13    29    23    1
    14    29    30   ar
    15    13    12   ar
    16    13    14   ar
    17    17    12    1
    18    24    23   ar
    19    24    20   ar
    20    12    11   ar
    21    23    22   ar
    22    14    20    1
    23    14    15   ar
    24    30    36    1
    25    20    21   ar
    26     3     4   ar
    27     3     2   ar
    28    22    27    1
    29    22    21   ar
    30    11    15   ar
    31    11     4    1
    32    27    28    1
    33    21    26    1
    34     4     5   ar
    35    26    25    3
    36     7     8    3
    37     8     2    1
    38     2     1   ar
    39    36    35    3
    40     5     1   ar
    41     1     6    1
