@<TRIPOS>MOLECULE
mol_data/opt/cam/geoms/mol2/12dg12dg-12dg-.out
 29 31 0 0 0
SMALL
GASTEIGER

@<TRIPOS>ATOM
      1 C           0.4212    1.7264   -0.3706 C.ar    1  LIG1        0.1112
      2 C           1.6108    1.8139    0.2852 C.ar    1  LIG1        0.1033
      3 C           1.8762    3.2179    0.4696 C.ar    1  LIG1        0.0712
      4 C           0.8119    3.8592   -0.1023 C.ar    1  LIG1        0.1854
      5 O          -0.0672    2.9497   -0.6177 O.2     1  LIG1       -0.4573
      6 H          -0.1630    0.8876   -0.7140 H       1  LIG1        0.1043
      7 N           3.0584   -0.1805    1.0448 N.1     1  LIG1       -0.1907
      8 C           2.4159    0.7191    0.7067 C.1     1  LIG1        0.1034
      9 S           3.2196    3.8600    1.4139 S.3     1  LIG1       -0.1376
     10 H           3.7656    4.6277    0.4532 H       1  LIG1        0.1073
     11 C           0.4363    5.2447   -0.2483 C.ar    1  LIG1        0.1902
     12 C           1.1397    6.3921   -0.5098 C.ar    1  LIG1        0.1144
     13 C           0.1907    7.4720   -0.5242 C.ar    1  LIG1        0.0719
     14 C          -1.0203    6.8865   -0.2802 C.ar    1  LIG1        0.1864
     15 O          -0.8710    5.5429   -0.1048 O.2     1  LIG1       -0.4461
     16 N           3.6558    6.4803   -1.0547 N.1     1  LIG1       -0.1907
     17 C           2.5255    6.4667   -0.8071 C.1     1  LIG1        0.1042
     18 S           0.5705    9.1315   -0.9861 S.3     1  LIG1       -0.1376
     19 H           0.2240    9.7233    0.1717 H       1  LIG1        0.1073
     20 C          -2.3703    7.3883   -0.1827 C.ar    1  LIG1        0.1892
     21 C          -2.9073    8.5307    0.3551 C.ar    1  LIG1        0.1136
     22 C          -4.3262    8.4610    0.1281 C.ar    1  LIG1        0.0607
     23 C          -4.5301    7.2824   -0.5092 C.ar    1  LIG1        0.1071
     24 O          -3.3523    6.6276   -0.6997 O.2     1  LIG1       -0.4573
     25 H          -5.4134    6.7859   -0.8761 H       1  LIG1        0.1041
     26 N          -1.6042   10.3289    1.6599 N.1     1  LIG1       -0.1907
     27 C          -2.2001    9.5301    1.0710 C.1     1  LIG1        0.1042
     28 S          -5.4651    9.7032    0.6333 S.3     1  LIG1       -0.1383
     29 H          -6.5685    9.0373    0.2563 H       1  LIG1        0.1072
@<TRIPOS>BOND
     1    16    17    3
     2    18    13    1
     3    18    19    1
     4    25    23    1
     5    17    12    1
     6     6     1    1
     7    24    23   ar
     8    24    20   ar
     9     5     1   ar
    10     5     4   ar
    11    13    12   ar
    12    13    14   ar
    13    12    11   ar
    14    23    22   ar
    15     1     2   ar
    16    14    20    1
    17    14    15   ar
    18    11    15   ar
    19    11     4    1
    20    20    21   ar
    21     4     3   ar
    22    22    21   ar
    23    22    28    1
    24    29    28    1
    25     2     3   ar
    26     2     8    1
    27    21    27    1
    28    10     9    1
    29     3     9    1
    30     8     7    3
    31    27    26    3
