@<TRIPOS>MOLECULE
mol_data/opt/cam/geoms/mol2/12dg12dg12dg-12dg-.out
 38 41 0 0 0
SMALL
GASTEIGER

@<TRIPOS>ATOM
      1 C           0.8504    2.1886    1.8268 C.ar    1  LIG1        0.1112
      2 C           1.8038    1.9077    0.8967 C.ar    1  LIG1        0.1033
      3 C           1.9026    3.0666    0.0466 C.ar    1  LIG1        0.0712
      4 C           0.9910    3.9543    0.5482 C.ar    1  LIG1        0.1854
      5 O           0.3579    3.4200    1.6338 O.2     1  LIG1       -0.4573
      6 H           0.4481    1.6249    2.6535 H       1  LIG1        0.1043
      7 N           3.1306   -0.2964    0.7203 N.1     1  LIG1       -0.1907
      8 C           2.5411    0.6952    0.7937 C.1     1  LIG1        0.1034
      9 S           2.8825    3.1484   -1.4172 S.3     1  LIG1       -0.1376
     10 H           3.6258    4.2173   -1.0771 H       1  LIG1        0.1073
     11 C           0.5679    5.2797    0.1656 C.ar    1  LIG1        0.1902
     12 C           1.2311    6.3827   -0.3076 C.ar    1  LIG1        0.1144
     13 C           0.2447    7.4060   -0.5218 C.ar    1  LIG1        0.0719
     14 C          -0.9410    6.8448   -0.1356 C.ar    1  LIG1        0.1864
     15 O          -0.7445    5.5618    0.2845 O.2     1  LIG1       -0.4461
     16 N           3.7865    6.5548   -0.5820 N.1     1  LIG1       -0.1907
     17 C           2.6359    6.5003   -0.4718 C.1     1  LIG1        0.1042
     18 S           0.5772    8.9588   -1.2877 S.3     1  LIG1       -0.1376
     19 H           0.1542    9.7488   -0.2837 H       1  LIG1        0.1073
     20 C          -2.3054    7.3124   -0.1009 C.ar    1  LIG1        0.1902
     21 C          -2.8832    8.5147    0.2152 C.ar    1  LIG1        0.1144
     22 C          -4.3008    8.3582    0.0361 C.ar    1  LIG1        0.0719
     23 C          -4.4705    7.0581   -0.3522 C.ar    1  LIG1        0.1864
     24 O          -3.2657    6.4248   -0.4287 O.2     1  LIG1       -0.4461
     25 N          -1.6038   10.5666    1.1024 N.1     1  LIG1       -0.1907
     26 C          -2.2015    9.6608    0.7009 C.1     1  LIG1        0.1042
     27 S          -5.4698    9.6737    0.1482 S.3     1  LIG1       -0.1376
     28 H          -6.2206    9.1644    1.1420 H       1  LIG1        0.1073
     29 C          -5.6231    6.2586   -0.6941 C.ar    1  LIG1        0.1892
     30 C          -6.8947    6.1813   -0.1845 C.ar    1  LIG1        0.1136
     31 C          -7.5899    5.1957   -0.9684 C.ar    1  LIG1        0.0607
     32 C          -6.6818    4.7497   -1.8705 C.ar    1  LIG1        0.1071
     33 O          -5.4906    5.3870   -1.7104 O.2     1  LIG1       -0.4573
     34 H          -6.7240    4.0143   -2.6572 H       1  LIG1        0.1041
     35 N          -7.7548    7.4501    1.8853 N.1     1  LIG1       -0.1907
     36 C          -7.3828    6.8773    0.9506 C.1     1  LIG1        0.1042
     37 S          -9.2675    4.7342   -0.7072 S.3     1  LIG1       -0.1383
     38 H          -9.2885    3.7681   -1.6394 H       1  LIG1        0.1072
@<TRIPOS>BOND
     1    34    32    1
     2    32    33   ar
     3    32    31   ar
     4    33    29   ar
     5    38    37    1
     6     9    10    1
     7     9     3    1
     8    18    13    1
     9    18    19    1
    10    31    37    1
    11    31    30   ar
    12    29    23    1
    13    29    30   ar
    14    16    17    3
    15    13    12   ar
    16    13    14   ar
    17    17    12    1
    18    24    23   ar
    19    24    20   ar
    20    23    22   ar
    21    12    11   ar
    22    30    36    1
    23    14    20    1
    24    14    15   ar
    25    20    21   ar
    26    22    27    1
    27    22    21   ar
    28     3     4   ar
    29     3     2   ar
    30    27    28    1
    31    11    15   ar
    32    11     4    1
    33    21    26    1
    34     4     5   ar
    35    26    25    3
    36     7     8    3
    37     8     2    1
    38     2     1   ar
    39    36    35    3
    40     5     1   ar
    41     1     6    1
