@<TRIPOS>MOLECULE
mol_data/opt/cam/geoms/mol2/12dg12dg12dg.out
 29 31 0 0 0
SMALL
GASTEIGER

@<TRIPOS>ATOM
      1 C           0.4204    1.7271    0.3662 C.ar    1  LIG1        0.1112
      2 C           1.6204    1.8170   -0.2699 C.ar    1  LIG1        0.1033
      3 C           1.8871    3.2216   -0.4479 C.ar    1  LIG1        0.0712
      4 C           0.8128    3.8607    0.1074 C.ar    1  LIG1        0.1854
      5 O          -0.0735    2.9494    0.6071 O.2     1  LIG1       -0.4573
      6 H          -0.1683    0.8870    0.6989 H       1  LIG1        0.1043
      7 N           3.0827   -0.1745   -1.0086 N.1     1  LIG1       -0.1907
      8 C           2.4337    0.7238   -0.6798 C.1     1  LIG1        0.1034
      9 S           3.2449    3.8668   -1.3692 S.3     1  LIG1       -0.1376
     10 H           3.7742    4.6337   -0.3986 H       1  LIG1        0.1073
     11 C           0.4330    5.2455    0.2492 C.ar    1  LIG1        0.1902
     12 C           1.1306    6.3935    0.5239 C.ar    1  LIG1        0.1144
     13 C           0.1801    7.4722    0.5242 C.ar    1  LIG1        0.0719
     14 C          -1.0260    6.8855    0.2595 C.ar    1  LIG1        0.1864
     15 O          -0.8721    5.5424    0.0847 O.2     1  LIG1       -0.4461
     16 N           3.6372    6.4841    1.1099 N.1     1  LIG1       -0.1907
     17 C           2.5112    6.4694    0.8439 C.1     1  LIG1        0.1042
     18 S           0.5501    9.1315    0.9946 S.3     1  LIG1       -0.1376
     19 H           0.2219    9.7245   -0.1679 H       1  LIG1        0.1073
     20 C          -2.3748    7.3857    0.1407 C.ar    1  LIG1        0.1892
     21 C          -2.9044    8.5282   -0.4043 C.ar    1  LIG1        0.1136
     22 C          -4.3267    8.4565   -0.2006 C.ar    1  LIG1        0.0607
     23 C          -4.5396    7.2767    0.4316 C.ar    1  LIG1        0.1071
     24 O          -3.3643    6.6231    0.6405 O.2     1  LIG1       -0.4573
     25 H          -5.4281    6.7786    0.7833 H       1  LIG1        0.1041
     26 N          -1.5824   10.3299   -1.6851 N.1     1  LIG1       -0.1907
     27 C          -2.1869    9.5295   -1.1071 C.1     1  LIG1        0.1042
     28 S          -5.4588    9.6980   -0.7225 S.3     1  LIG1       -0.1383
     29 H          -6.5674    9.0301   -0.3647 H       1  LIG1        0.1072
@<TRIPOS>BOND
     1    26    27    3
     2     9     3    1
     3     9    10    1
     4    27    21    1
     5     7     8    3
     6    28    29    1
     7    28    22    1
     8     8     2    1
     9     3     2   ar
    10     3     4   ar
    11    21    22   ar
    12    21    20   ar
    13     2     1   ar
    14    22    23   ar
    15    19    18    1
    16    15    11   ar
    17    15    14   ar
    18     4    11    1
    19     4     5   ar
    20    20    14    1
    21    20    24   ar
    22    11    12   ar
    23    14    13   ar
    24     1     5   ar
    25     1     6    1
    26    23    24   ar
    27    23    25    1
    28    12    13   ar
    29    12    17    1
    30    13    18    1
    31    17    16    3
