@<TRIPOS>MOLECULE
mol_data/opt/cam/geoms/mol2/12dg12dg12dg-.out
 29 31 0 0 0
SMALL
GASTEIGER

@<TRIPOS>ATOM
      1 C           0.4903    1.9017    1.0530 C.ar    1  LIG1        0.1112
      2 C           1.5995    1.7989    0.2707 C.ar    1  LIG1        0.1033
      3 C           1.8318    3.1070   -0.2866 C.ar    1  LIG1        0.0712
      4 C           0.8319    3.8917    0.2184 C.ar    1  LIG1        0.1854
      5 O           0.0223    3.1576    1.0372 O.2     1  LIG1       -0.4573
      6 H          -0.0459    1.1873    1.6571 H       1  LIG1        0.1043
      7 N           2.9698   -0.3504   -0.1200 N.1     1  LIG1       -0.1907
      8 C           2.3617    0.6177    0.0509 C.1     1  LIG1        0.1034
      9 S           3.0568    3.4704   -1.5019 S.3     1  LIG1       -0.1376
     10 H           3.7130    4.4250   -0.8171 H       1  LIG1        0.1073
     11 C           0.4662    5.2779    0.0533 C.ar    1  LIG1        0.1902
     12 C           1.1884    6.4385   -0.0498 C.ar    1  LIG1        0.1144
     13 C           0.2420    7.5071   -0.2224 C.ar    1  LIG1        0.0719
     14 C          -0.9857    6.9070   -0.1845 C.ar    1  LIG1        0.1864
     15 O          -0.8503    5.5610   -0.0123 O.2     1  LIG1       -0.4461
     16 N           3.7482    6.6016    0.1860 N.1     1  LIG1       -0.1907
     17 C           2.5977    6.5533    0.0718 C.1     1  LIG1        0.1042
     18 S           0.6794    9.1786   -0.5755 S.3     1  LIG1       -0.1376
     19 H           0.1055    9.7476    0.5003 H       1  LIG1        0.1073
     20 C          -2.3404    7.3929   -0.2979 C.ar    1  LIG1        0.1892
     21 C          -2.9740    8.5194    0.1627 C.ar    1  LIG1        0.1136
     22 C          -4.3351    8.4397   -0.2959 C.ar    1  LIG1        0.0607
     23 C          -4.4159    7.2707   -0.9770 C.ar    1  LIG1        0.1071
     24 O          -3.2143    6.6324   -0.9825 O.2     1  LIG1       -0.4573
     25 H          -5.2202    6.7718   -1.4923 H       1  LIG1        0.1041
     26 N          -1.9266   10.3061    1.6941 N.1     1  LIG1       -0.1907
     27 C          -2.4074    9.5126    1.0018 C.1     1  LIG1        0.1042
     28 S          -5.5586    9.6598    0.0361 S.3     1  LIG1       -0.1383
     29 H          -6.5645    9.0123   -0.5738 H       1  LIG1        0.1072
@<TRIPOS>BOND
     1     9    10    1
     2     9     3    1
     3    25    23    1
     4    24    23   ar
     5    24    20   ar
     6    23    22   ar
     7    18    13    1
     8    18    19    1
     9    29    28    1
    10    20    14    1
    11    20    21   ar
    12    22    28    1
    13    22    21   ar
    14     3     4   ar
    15     3     2   ar
    16    13    14   ar
    17    13    12   ar
    18    14    15   ar
    19     7     8    3
    20    12    11   ar
    21    12    17    1
    22    15    11   ar
    23     8     2    1
    24    11     4    1
    25    17    16    3
    26    21    27    1
    27     4     5   ar
    28     2     1   ar
    29    27    26    3
    30     5     1   ar
    31     1     6    1
