@<TRIPOS>MOLECULE
mol_data/opt/cam/geoms/mol2/12dg12dg-.out
 20 21 0 0 0
SMALL
GASTEIGER

@<TRIPOS>ATOM
      1 C           0.1036    1.8323   -0.0000 C.ar    1  LIG1        0.1112
      2 C           1.4610    1.7583    0.0000 C.ar    1  LIG1        0.1033
      3 C           1.9517    3.1143   -0.0000 C.ar    1  LIG1        0.0712
      4 C           0.8281    3.9041   -0.0001 C.ar    1  LIG1        0.1853
      5 O          -0.2923    3.1038   -0.0000 O.2     1  LIG1       -0.4573
      6 H          -0.6655    1.0761   -0.0000 H       1  LIG1        0.1043
      7 N           2.8755   -0.3975    0.0001 N.1     1  LIG1       -0.1907
      8 C           2.2401    0.5687    0.0001 C.1     1  LIG1        0.1034
      9 S           3.6809    3.3976   -0.0001 S.3     1  LIG1       -0.1376
     10 H           3.6613    4.7381   -0.0001 H       1  LIG1        0.1073
     11 C           0.4994    5.3135   -0.0001 C.ar    1  LIG1        0.1892
     12 C           1.1805    6.5131   -0.0001 C.ar    1  LIG1        0.1136
     13 C           0.1828    7.5540   -0.0001 C.ar    1  LIG1        0.0607
     14 C          -1.0086    6.9164   -0.0002 C.ar    1  LIG1        0.1071
     15 O          -0.8235    5.5683   -0.0002 O.2     1  LIG1       -0.4573
     16 H          -2.0315    7.2545   -0.0003 H       1  LIG1        0.1041
     17 N           3.7075    7.0041    0.0002 N.1     1  LIG1       -0.1907
     18 C           2.5750    6.7598    0.0001 C.1     1  LIG1        0.1042
     19 S           0.5635    9.2723   -0.0001 S.3     1  LIG1       -0.1383
     20 H          -0.7127    9.6897   -0.0002 H       1  LIG1        0.1072
@<TRIPOS>BOND
     1    16    14    1
     2    14    15   ar
     3    14    13   ar
     4    15    11   ar
     5    20    19    1
     6    13    19    1
     7    13    12   ar
     8    11    12   ar
     9    11     4    1
    10     9    10    1
    11     9     3    1
    12    12    18    1
    13     4     3   ar
    14     4     5   ar
    15     3     2   ar
    16     5     1   ar
    17     1     6    1
    18     1     2   ar
    19     2     8    1
    20    18    17    3
    21     8     7    3
