@<TRIPOS>MOLECULE
mol_data/opt/cam/geoms/mol2/12dg12dg-12dg-12dg.out
 38 41 0 0 0
SMALL
GASTEIGER

@<TRIPOS>ATOM
      1 C           0.8728    2.1858    1.8182 C.ar    1  LIG1        0.1112
      2 C           1.8147    1.9064    0.8760 C.ar    1  LIG1        0.1033
      3 C           1.9030    3.0665    0.0265 C.ar    1  LIG1        0.0712
      4 C           0.9976    3.9534    0.5407 C.ar    1  LIG1        0.1854
      5 O           0.3779    3.4176    1.6331 O.2     1  LIG1       -0.4573
      6 H           0.4807    1.6209    2.6490 H       1  LIG1        0.1043
      7 N           3.1393   -0.2975    0.6802 N.1     1  LIG1       -0.1907
      8 C           2.5507    0.6940    0.7622 C.1     1  LIG1        0.1034
      9 S           2.8650    3.1505   -1.4490 S.3     1  LIG1       -0.1376
     10 H           3.6123    4.2189   -1.1164 H       1  LIG1        0.1073
     11 C           0.5699    5.2794    0.1652 C.ar    1  LIG1        0.1902
     12 C           1.2273    6.3831   -0.3144 C.ar    1  LIG1        0.1144
     13 C           0.2383    7.4068   -0.5150 C.ar    1  LIG1        0.0719
     14 C          -0.9425    6.8449   -0.1151 C.ar    1  LIG1        0.1864
     15 O          -0.7409    5.5613    0.3005 O.2     1  LIG1       -0.4461
     16 N           3.7791    6.5556   -0.6199 N.1     1  LIG1       -0.1907
     17 C           2.6300    6.5009   -0.4957 C.1     1  LIG1        0.1042
     18 S           0.5614    8.9606   -1.2826 S.3     1  LIG1       -0.1376
     19 H           0.1508    9.7492   -0.2724 H       1  LIG1        0.1073
     20 C          -2.3064    7.3124   -0.0630 C.ar    1  LIG1        0.1902
     21 C          -2.8803    8.5143    0.2619 C.ar    1  LIG1        0.1144
     22 C          -4.3000    8.3581    0.1000 C.ar    1  LIG1        0.0719
     23 C          -4.4745    7.0585   -0.2881 C.ar    1  LIG1        0.1864
     24 O          -3.2707    6.4254   -0.3804 O.2     1  LIG1       -0.4461
     25 N          -1.5901   10.5649    1.1365 N.1     1  LIG1       -0.1907
     26 C          -2.1927    9.6597    0.7410 C.1     1  LIG1        0.1042
     27 S          -5.4676    9.6733    0.2284 S.3     1  LIG1       -0.1376
     28 H          -6.2061    9.1625    1.2305 H       1  LIG1        0.1073
     29 C          -5.6311    6.2595   -0.6172 C.ar    1  LIG1        0.1892
     30 C          -6.8964    6.1813   -0.0922 C.ar    1  LIG1        0.1136
     31 C          -7.6012    5.1969   -0.8689 C.ar    1  LIG1        0.0607
     32 C          -6.7041    4.7524   -1.7828 C.ar    1  LIG1        0.1071
     33 O          -5.5111    5.3895   -1.6363 O.2     1  LIG1       -0.4573
     34 H          -6.7560    4.0182   -2.5700 H       1  LIG1        0.1041
     35 N          -7.7311    7.4470    1.9900 N.1     1  LIG1       -0.1907
     36 C          -7.3706    6.8757    1.0500 C.1     1  LIG1        0.1042
     37 S          -9.2754    4.7350   -0.5878 S.3     1  LIG1       -0.1383
     38 H          -9.3078    3.7704   -1.5213 H       1  LIG1        0.1072
@<TRIPOS>BOND
     1    34    32    1
     2    32    33   ar
     3    32    31   ar
     4    33    29   ar
     5    38    37    1
     6     9    10    1
     7     9     3    1
     8    18    13    1
     9    18    19    1
    10    31    37    1
    11    31    30   ar
    12    16    17    3
    13    29    23    1
    14    29    30   ar
    15    13    12   ar
    16    13    14   ar
    17    17    12    1
    18    24    23   ar
    19    24    20   ar
    20    12    11   ar
    21    23    22   ar
    22    14    20    1
    23    14    15   ar
    24    30    36    1
    25    20    21   ar
    26     3     4   ar
    27     3     2   ar
    28    22    27    1
    29    22    21   ar
    30    11    15   ar
    31    11     4    1
    32    27    28    1
    33    21    26    1
    34     4     5   ar
    35     7     8    3
    36    26    25    3
    37     8     2    1
    38     2     1   ar
    39    36    35    3
    40     5     1   ar
    41     1     6    1
