@<TRIPOS>MOLECULE
mol_data/opt/cam/geoms/mol2/12dg.out
 11 11 0 0 0
SMALL
GASTEIGER

@<TRIPOS>ATOM
      1 C           0.1076    1.8709    0.0002 C.ar    1  LIG1        0.1101
      2 C           1.4698    1.8704   -0.0001 C.ar    1  LIG1        0.1025
      3 C           1.8712    3.2559    0.0000 C.ar    1  LIG1        0.0600
      4 C           0.7172    3.9650   -0.0002 C.ar    1  LIG1        0.1061
      5 O          -0.3588    3.1262   -0.0003 O.2     1  LIG1       -0.4686
      6 H          -0.6186    1.0739    0.0003 H       1  LIG1        0.1043
      7 H           0.4980    5.0199   -0.0003 H       1  LIG1        0.1041
      8 N           3.0096   -0.1978    0.0001 N.1     1  LIG1       -0.1907
      9 C           2.3148    0.7270   -0.0000 C.1     1  LIG1        0.1034
     10 S           3.5465    3.7969    0.0001 S.3     1  LIG1       -0.1384
     11 H           3.2658    5.1102    0.0002 H       1  LIG1        0.1072
@<TRIPOS>BOND
     1     7     4    1
     2     5     4   ar
     3     5     1   ar
     4     4     3   ar
     5     2     9    1
     6     2     3   ar
     7     2     1   ar
     8     9     8    3
     9     3    10    1
    10    10    11    1
    11     1     6    1
