@<TRIPOS>MOLECULE
mol_data/opt/cam/geoms/mol2/12dg12dg12dg-12dg.out
 38 41 0 0 0
SMALL
GASTEIGER

@<TRIPOS>ATOM
      1 C           0.8531    2.1860    1.8194 C.ar    1  LIG1        0.1112
      2 C           1.8051    1.9064    0.8874 C.ar    1  LIG1        0.1033
      3 C           1.9027    3.0664    0.0388 C.ar    1  LIG1        0.0712
      4 C           0.9918    3.9535    0.5430 C.ar    1  LIG1        0.1854
      5 O           0.3603    3.4177    1.6288 O.2     1  LIG1       -0.4573
      6 H           0.4520    1.6212    2.6459 H       1  LIG1        0.1043
      7 N           3.1317   -0.2975    0.7062 N.1     1  LIG1       -0.1907
      8 C           2.5423    0.6940    0.7817 C.1     1  LIG1        0.1034
      9 S           2.8804    3.1502   -1.4263 S.3     1  LIG1       -0.1376
     10 H           3.6242    4.2187   -1.0858 H       1  LIG1        0.1073
     11 C           0.5682    5.2794    0.1628 C.ar    1  LIG1        0.1902
     12 C           1.2307    6.3830   -0.3098 C.ar    1  LIG1        0.1144
     13 C           0.2439    7.4067   -0.5212 C.ar    1  LIG1        0.0719
     14 C          -0.9411    6.8449   -0.1340 C.ar    1  LIG1        0.1864
     15 O          -0.7440    5.5613    0.2840 O.2     1  LIG1       -0.4461
     16 N           3.7857    6.5555   -0.5877 N.1     1  LIG1       -0.1907
     17 C           2.6353    6.5008   -0.4759 C.1     1  LIG1        0.1042
     18 S           0.5754    8.9605   -1.2853 S.3     1  LIG1       -0.1376
     19 H           0.1538    9.7492   -0.2797 H       1  LIG1        0.1073
     20 C          -2.3055    7.3124   -0.0967 C.ar    1  LIG1        0.1902
     21 C          -2.8828    8.5143    0.2219 C.ar    1  LIG1        0.1144
     22 C          -4.3007    8.3581    0.0446 C.ar    1  LIG1        0.0719
     23 C          -4.4710    7.0585   -0.3452 C.ar    1  LIG1        0.1864
     24 O          -3.2663    6.4253   -0.4244 O.2     1  LIG1       -0.4461
     25 N          -1.6021   10.5650    1.1102 N.1     1  LIG1       -0.1907
     26 C          -2.2004    9.6598    0.7083 C.1     1  LIG1        0.1042
     27 S          -5.4695    9.6734    0.1603 S.3     1  LIG1       -0.1376
     28 H          -6.2190    9.1627    1.1543 H       1  LIG1        0.1073
     29 C          -5.6240    6.2595   -0.6867 C.ar    1  LIG1        0.1892
     30 C          -6.8949    6.1814   -0.1754 C.ar    1  LIG1        0.1136
     31 C          -7.5912    5.1969   -0.9596 C.ar    1  LIG1        0.0607
     32 C          -6.6844    4.7522   -1.8637 C.ar    1  LIG1        0.1071
     33 O          -5.4929    5.3893   -1.7044 O.2     1  LIG1       -0.4573
     34 H          -6.7277    4.0179   -2.6513 H       1  LIG1        0.1041
     35 N          -7.7521    7.4473    1.8975 N.1     1  LIG1       -0.1907
     36 C          -7.3814    6.8759    0.9615 C.1     1  LIG1        0.1042
     37 S          -9.2684    4.7351   -0.6966 S.3     1  LIG1       -0.1383
     38 H          -9.2907    3.7702   -1.6302 H       1  LIG1        0.1072
@<TRIPOS>BOND
     1    34    32    1
     2    32    33   ar
     3    32    31   ar
     4    33    29   ar
     5    38    37    1
     6     9    10    1
     7     9     3    1
     8    18    13    1
     9    18    19    1
    10    31    37    1
    11    31    30   ar
    12    29    23    1
    13    29    30   ar
    14    16    17    3
    15    13    12   ar
    16    13    14   ar
    17    17    12    1
    18    24    23   ar
    19    24    20   ar
    20    23    22   ar
    21    12    11   ar
    22    30    36    1
    23    14    20    1
    24    14    15   ar
    25    20    21   ar
    26     3     4   ar
    27     3     2   ar
    28    22    27    1
    29    22    21   ar
    30    27    28    1
    31    11    15   ar
    32    11     4    1
    33    21    26    1
    34     4     5   ar
    35     7     8    3
    36    26    25    3
    37     8     2    1
    38     2     1   ar
    39    36    35    3
    40     5     1   ar
    41     1     6    1
