@<TRIPOS>MOLECULE
mol_data/opt/cam/geoms/mol2/12dg12dg-12dg12dg-.out
 38 41 0 0 0
SMALL
GASTEIGER

@<TRIPOS>ATOM
      1 C           0.8739    2.1976    1.8461 C.ar    1  LIG1        0.1112
      2 C           1.8139    1.9116    0.9040 C.ar    1  LIG1        0.1033
      3 C           1.9014    3.0663    0.0471 C.ar    1  LIG1        0.0712
      4 C           0.9977    3.9571    0.5573 C.ar    1  LIG1        0.1854
      5 O           0.3796    3.4285    1.6543 O.2     1  LIG1       -0.4573
      6 H           0.4829    1.6382    2.6811 H       1  LIG1        0.1043
      7 N           3.1366   -0.2944    0.7198 N.1     1  LIG1       -0.1907
      8 C           2.5489    0.6980    0.7966 C.1     1  LIG1        0.1034
      9 S           2.8607    3.1404   -1.4307 S.3     1  LIG1       -0.1376
     10 H           3.6090    4.2107   -1.1064 H       1  LIG1        0.1073
     11 C           0.5700    5.2809    0.1742 C.ar    1  LIG1        0.1902
     12 C           1.2272    6.3812   -0.3134 C.ar    1  LIG1        0.1144
     13 C           0.2384    7.4041   -0.5191 C.ar    1  LIG1        0.0719
     14 C          -0.9421    6.8454   -0.1138 C.ar    1  LIG1        0.1864
     15 O          -0.7405    5.5643    0.3098 O.2     1  LIG1       -0.4461
     16 N           3.7787    6.5499   -0.6237 N.1     1  LIG1       -0.1907
     17 C           2.6297    6.4969   -0.4975 C.1     1  LIG1        0.1042
     18 S           0.5620    8.9527   -1.2969 S.3     1  LIG1       -0.1376
     19 H           0.1488    9.7482   -0.2931 H       1  LIG1        0.1073
     20 C          -2.3059    7.3134   -0.0629 C.ar    1  LIG1        0.1902
     21 C          -2.8796    8.5174    0.2541 C.ar    1  LIG1        0.1144
     22 C          -4.2995    8.3597    0.0955 C.ar    1  LIG1        0.0719
     23 C          -4.4743    7.0572   -0.2825 C.ar    1  LIG1        0.1864
     24 O          -3.2704    6.4237   -0.3721 O.2     1  LIG1       -0.4461
     25 N          -1.5891   10.5751    1.1114 N.1     1  LIG1       -0.1907
     26 C          -2.1918    9.6667    0.7236 C.1     1  LIG1        0.1042
     27 S          -5.4673    9.6755    0.2158 S.3     1  LIG1       -0.1376
     28 H          -6.2035    9.1724    1.2236 H       1  LIG1        0.1073
     29 C          -5.6312    6.2554   -0.6035 C.ar    1  LIG1        0.1892
     30 C          -6.8956    6.1807   -0.0757 C.ar    1  LIG1        0.1136
     31 C          -7.6013    5.1902   -0.8437 C.ar    1  LIG1        0.0607
     32 C          -6.7057    4.7391   -1.7558 C.ar    1  LIG1        0.1071
     33 O          -5.5126    5.3776   -1.6162 O.2     1  LIG1       -0.4573
     34 H          -6.7586    3.9989   -2.5374 H       1  LIG1        0.1041
     35 N          -7.7272    7.4616    1.9984 N.1     1  LIG1       -0.1907
     36 C          -7.3680    6.8834    1.0621 C.1     1  LIG1        0.1042
     37 S          -9.2749    4.7298   -0.5564 S.3     1  LIG1       -0.1383
     38 H          -9.3074    3.7557   -1.4800 H       1  LIG1        0.1072
@<TRIPOS>BOND
     1    34    32    1
     2    32    33   ar
     3    32    31   ar
     4    33    29   ar
     5    38    37    1
     6     9    10    1
     7     9     3    1
     8    18    13    1
     9    18    19    1
    10    31    37    1
    11    31    30   ar
    12    16    17    3
    13    29    23    1
    14    29    30   ar
    15    13    12   ar
    16    13    14   ar
    17    17    12    1
    18    24    23   ar
    19    24    20   ar
    20    12    11   ar
    21    23    22   ar
    22    14    20    1
    23    14    15   ar
    24    30    36    1
    25    20    21   ar
    26     3     4   ar
    27     3     2   ar
    28    22    27    1
    29    22    21   ar
    30    11    15   ar
    31    11     4    1
    32    27    28    1
    33    21    26    1
    34     4     5   ar
    35     7     8    3
    36    26    25    3
    37     8     2    1
    38     2     1   ar
    39    36    35    3
    40     5     1   ar
    41     1     6    1
