@<TRIPOS>MOLECULE
mol_data/opt/cam/geoms/mol2/12dg12dg-12dg-12dg-.out
 38 41 0 0 0
SMALL
GASTEIGER

@<TRIPOS>ATOM
      1 C           0.8750    2.1898    1.8201 C.ar    1  LIG1        0.1112
      2 C           1.8158    1.9083    0.8773 C.ar    1  LIG1        0.1033
      3 C           1.9031    3.0667    0.0254 C.ar    1  LIG1        0.0712
      4 C           0.9984    3.9547    0.5388 C.ar    1  LIG1        0.1854
      5 O           0.3800    3.4211    1.6331 O.2     1  LIG1       -0.4573
      6 H           0.4840    1.6265    2.6525 H       1  LIG1        0.1043
      7 N           3.1402   -0.2959    0.6843 N.1     1  LIG1       -0.1907
      8 C           2.5517    0.6958    0.7651 C.1     1  LIG1        0.1034
      9 S           2.8632    3.1477   -1.4516 S.3     1  LIG1       -0.1376
     10 H           3.6108    4.2169   -1.1223 H       1  LIG1        0.1073
     11 C           0.5702    5.2799    0.1611 C.ar    1  LIG1        0.1902
     12 C           1.2269    6.3827   -0.3215 C.ar    1  LIG1        0.1144
     13 C           0.2376    7.4059   -0.5230 C.ar    1  LIG1        0.0719
     14 C          -0.9427    6.8448   -0.1205 C.ar    1  LIG1        0.1864
     15 O          -0.7405    5.5621    0.2976 O.2     1  LIG1       -0.4461
     16 N           3.7783    6.5546   -0.6305 N.1     1  LIG1       -0.1907
     17 C           2.6294    6.5002   -0.5048 C.1     1  LIG1        0.1042
     18 S           0.5598    8.9582   -1.2941 S.3     1  LIG1       -0.1376
     19 H           0.1502    9.7488   -0.2851 H       1  LIG1        0.1073
     20 C          -2.3065    7.3124   -0.0676 C.ar    1  LIG1        0.1902
     21 C          -2.8801    8.5149    0.2555 C.ar    1  LIG1        0.1144
     22 C          -4.2999    8.3582    0.0956 C.ar    1  LIG1        0.0719
     23 C          -4.4748    7.0578   -0.2895 C.ar    1  LIG1        0.1864
     24 O          -3.2711    6.4246   -0.3820 O.2     1  LIG1       -0.4461
     25 N          -1.5889   10.5674    1.1242 N.1     1  LIG1       -0.1907
     26 C          -2.1919    9.6613    0.7313 C.1     1  LIG1        0.1042
     27 S          -5.4674    9.6737    0.2228 S.3     1  LIG1       -0.1376
     28 H          -6.2047    9.1649    1.2268 H       1  LIG1        0.1073
     29 C          -5.6318    6.2581   -0.6154 C.ar    1  LIG1        0.1892
     30 C          -6.8965    6.1810   -0.0887 C.ar    1  LIG1        0.1136
     31 C          -7.6021    5.1949   -0.8625 C.ar    1  LIG1        0.0607
     32 C          -6.7062    4.7485   -1.7766 C.ar    1  LIG1        0.1071
     33 O          -5.5130    5.3860   -1.6329 O.2     1  LIG1       -0.4573
     34 H          -6.7590    4.0126   -2.5622 H       1  LIG1        0.1041
     35 N          -7.7286    7.4510    1.9918 N.1     1  LIG1       -0.1907
     36 C          -7.3692    6.8777    1.0526 C.1     1  LIG1        0.1042
     37 S          -9.2760    4.7335   -0.5784 S.3     1  LIG1       -0.1383
     38 H          -9.3094    3.7668   -1.5097 H       1  LIG1        0.1072
@<TRIPOS>BOND
     1    34    32    1
     2    32    33   ar
     3    32    31   ar
     4    33    29   ar
     5    38    37    1
     6     9    10    1
     7     9     3    1
     8    18    13    1
     9    18    19    1
    10    31    37    1
    11    31    30   ar
    12    16    17    3
    13    29    23    1
    14    29    30   ar
    15    13    12   ar
    16    13    14   ar
    17    17    12    1
    18    24    23   ar
    19    24    20   ar
    20    12    11   ar
    21    23    22   ar
    22    14    20    1
    23    14    15   ar
    24    30    36    1
    25    20    21   ar
    26     3     4   ar
    27     3     2   ar
    28    22    27    1
    29    22    21   ar
    30    11    15   ar
    31    11     4    1
    32    27    28    1
    33    21    26    1
    34     4     5   ar
    35     7     8    3
    36    26    25    3
    37     8     2    1
    38     2     1   ar
    39    36    35    3
    40     5     1   ar
    41     1     6    1
