@<TRIPOS>MOLECULE
mol_data/opt/cam/geoms/mol2/12dh12dh-12dh12dh-.out
 42 45 0 0 0
SMALL
GASTEIGER

@<TRIPOS>ATOM
      1 C           0.1479    1.7467   -0.0607 C.ar    1  LIG1        0.1119
      2 C           1.5126    1.7397   -0.0697 C.ar    1  LIG1        0.1107
      3 C           1.9353    3.1199   -0.0703 C.ar    1  LIG1        0.0917
      4 C           0.7576    3.8455   -0.0614 C.ar    1  LIG1        0.1928
      5 O          -0.3244    2.9884   -0.0557 O.2     1  LIG1       -0.4566
      6 H          -0.5753    0.9460   -0.0570 H       1  LIG1        0.1043
      7 N           3.1272   -0.2668   -0.0844 N.1     1  LIG1       -0.1907
      8 C           2.3789    0.6161   -0.0775 C.1     1  LIG1        0.1042
      9 N           3.2130    3.5411   -0.0789 N.pl3   1  LIG1       -0.3540
     10 H           3.9589    2.8656   -0.0808 H       1  LIG1        0.1425
     11 H           3.4673    4.5182   -0.0770 H       1  LIG1        0.1425
     12 C           0.5023    5.2379   -0.0574 C.ar    1  LIG1        0.1917
     13 C          -0.6547    5.9941   -0.0499 C.ar    1  LIG1        0.1219
     14 C          -0.2498    7.3749   -0.0499 C.ar    1  LIG1        0.0925
     15 C           1.1346    7.3529   -0.0575 C.ar    1  LIG1        0.1939
     16 O           1.5783    6.0365   -0.0620 O.2     1  LIG1       -0.4453
     17 N          -3.1220    5.2695   -0.0395 N.1     1  LIG1       -0.1907
     18 C          -1.9990    5.5541   -0.0441 C.1     1  LIG1        0.1050
     19 N          -1.0877    8.4250   -0.0458 N.pl3   1  LIG1       -0.3539
     20 H          -0.7680    9.3834   -0.0383 H       1  LIG1        0.1425
     21 H          -2.0812    8.2634   -0.0313 H       1  LIG1        0.1425
     22 C           2.1112    8.3651   -0.0592 C.ar    1  LIG1        0.1918
     23 C           3.4992    8.3373   -0.0682 C.ar    1  LIG1        0.1219
     24 C           3.9372    9.7052   -0.0640 C.ar    1  LIG1        0.0925
     25 C           2.7929   10.4650   -0.0575 C.ar    1  LIG1        0.1938
     26 O           1.6809    9.6344   -0.0506 O.2     1  LIG1       -0.4453
     27 N           4.9711    6.2298   -0.0999 N.1     1  LIG1       -0.1907
     28 C           4.3119    7.1842   -0.0822 C.1     1  LIG1        0.1050
     29 N           5.2294   10.1328   -0.0222 N.pl3   1  LIG1       -0.3539
     30 H           5.9487    9.4867   -0.3046 H       1  LIG1        0.1425
     31 H           5.4000   11.1081   -0.2100 H       1  LIG1        0.1425
     32 C           2.5563   11.8623   -0.0690 C.ar    1  LIG1        0.1907
     33 C           1.3954   12.6068   -0.0682 C.ar    1  LIG1        0.1211
     34 C           1.7991   13.9931   -0.0984 C.ar    1  LIG1        0.0812
     35 C           3.1545   13.9848   -0.1190 C.ar    1  LIG1        0.1146
     36 O           3.6218   12.6789   -0.0963 O.2     1  LIG1       -0.4565
     37 H           3.9056   14.7551   -0.1282 H       1  LIG1        0.1049
     38 N          -0.9941   11.6559   -0.0485 N.1     1  LIG1       -0.1907
     39 C           0.0798   12.0945   -0.0523 C.1     1  LIG1        0.1049
     40 N           0.9239   15.0627   -0.0422 N.pl3   1  LIG1       -0.3545
     41 H           1.2949   15.9416   -0.3708 H       1  LIG1        0.1424
     42 H           0.0044   14.8751   -0.4158 H       1  LIG1        0.1424
@<TRIPOS>BOND
     1    42    40    1
     2    41    40    1
     3    30    29    1
     4    31    29    1
     5    37    35    1
     6    35    34   ar
     7    35    36   ar
     8    27    28    3
     9    34    33   ar
    10    34    40    1
    11    36    32   ar
    12     7     8    3
    13    28    23    1
    14    10     9    1
    15     9    11    1
    16     9     3    1
    17     8     2    1
    18     3     2   ar
    19     3     4   ar
    20     2     1   ar
    21    32    33   ar
    22    32    25    1
    23    23    24   ar
    24    23    22   ar
    25    33    39    1
    26    24    25   ar
    27    24    29    1
    28    16    15   ar
    29    16    12   ar
    30     4    12    1
    31     4     5   ar
    32     1     6    1
    33     1     5   ar
    34    22    15    1
    35    22    26   ar
    36    25    26   ar
    37    15    14   ar
    38    12    13   ar
    39    39    38    3
    40    13    14   ar
    41    13    18    1
    42    14    19    1
    43    19    20    1
    44    19    21    1
    45    18    17    3
