@<TRIPOS>MOLECULE
mol_data/opt/cam/geoms/mol2/12dh12dh-12dh.out
 32 34 0 0 0
SMALL
GASTEIGER

@<TRIPOS>ATOM
      1 C           0.1623    1.7801   -0.0295 C.ar    1  LIG1        0.1119
      2 C           1.5265    1.7813   -0.0589 C.ar    1  LIG1        0.1107
      3 C           1.9414    3.1641   -0.0714 C.ar    1  LIG1        0.0917
      4 C           0.7605    3.8824   -0.0468 C.ar    1  LIG1        0.1928
      5 O          -0.3165    3.0199   -0.0220 O.2     1  LIG1       -0.4566
      6 H          -0.5563    0.9755   -0.0117 H       1  LIG1        0.1043
      7 N           3.1507   -0.2174   -0.0875 N.1     1  LIG1       -0.1907
      8 C           2.3987    0.6622   -0.0745 C.1     1  LIG1        0.1042
      9 N           3.2175    3.5922   -0.1145 N.pl3   1  LIG1       -0.3540
     10 H           3.9660    2.9209   -0.0758 H       1  LIG1        0.1425
     11 H           3.4673    4.5697   -0.0710 H       1  LIG1        0.1425
     12 C           0.4953    5.2746   -0.0423 C.ar    1  LIG1        0.1917
     13 C          -0.6641    6.0265   -0.0349 C.ar    1  LIG1        0.1219
     14 C          -0.2573    7.4053   -0.0338 C.ar    1  LIG1        0.0925
     15 C           1.1161    7.3922   -0.0452 C.ar    1  LIG1        0.1938
     16 O           1.5667    6.0823   -0.0470 O.2     1  LIG1       -0.4453
     17 N          -3.1318    5.3031   -0.0544 N.1     1  LIG1       -0.1907
     18 C          -2.0084    5.5859   -0.0413 C.1     1  LIG1        0.1050
     19 N          -1.0925    8.4771    0.0170 N.pl3   1  LIG1       -0.3539
     20 H          -0.7041    9.3853   -0.1797 H       1  LIG1        0.1425
     21 H          -2.0614    8.3304   -0.2171 H       1  LIG1        0.1425
     22 C           2.0917    8.4213   -0.0625 C.ar    1  LIG1        0.1907
     23 C           3.4703    8.3998   -0.0641 C.ar    1  LIG1        0.1211
     24 C           3.9012    9.7778   -0.0995 C.ar    1  LIG1        0.0812
     25 C           2.7672   10.5203   -0.1199 C.ar    1  LIG1        0.1146
     26 O           1.6564    9.6911   -0.0929 O.2     1  LIG1       -0.4565
     27 H           2.5675   11.5775   -0.1319 H       1  LIG1        0.1049
     28 N           4.9454    6.2935   -0.0317 N.1     1  LIG1       -0.1907
     29 C           4.2863    7.2479   -0.0417 C.1     1  LIG1        0.1049
     30 N           5.2221   10.1846   -0.0469 N.pl3   1  LIG1       -0.3545
     31 H           5.8835    9.5189   -0.4205 H       1  LIG1        0.1424
     32 H           5.3987   11.1214   -0.3774 H       1  LIG1        0.1424
@<TRIPOS>BOND
     1    31    30    1
     2    32    30    1
     3    21    19    1
     4    20    19    1
     5    27    25    1
     6    25    24   ar
     7    25    26   ar
     8     9    10    1
     9     9     3    1
    10     9    11    1
    11    24    23   ar
    12    24    30    1
    13    26    22   ar
    14     7     8    3
    15     8     2    1
    16     3     2   ar
    17     3     4   ar
    18    23    22   ar
    19    23    29    1
    20    22    15    1
    21     2     1   ar
    22    17    18    3
    23    16    15   ar
    24    16    12   ar
    25     4    12    1
    26     4     5   ar
    27    15    14   ar
    28    12    13   ar
    29    29    28    3
    30    18    13    1
    31    13    14   ar
    32    14    19    1
    33     1     5   ar
    34     1     6    1
