@<TRIPOS>MOLECULE
mol_data/opt/cam/geoms/mol2/12dh12dl12if-4hi.out
 50 53 0 0 0
SMALL
GASTEIGER

@<TRIPOS>ATOM
      1 C           0.5944    1.6489    0.0456 C.ar    1  LIG1        0.1119
      2 C           1.9395    1.7139    0.2548 C.ar    1  LIG1        0.1107
      3 C           2.2939    3.1126    0.2589 C.ar    1  LIG1        0.0917
      4 C           1.1082    3.7808    0.0358 C.ar    1  LIG1        0.1929
      5 O           0.0795    2.8655   -0.0891 O.2     1  LIG1       -0.4566
      6 H          -0.0845    0.8139   -0.0303 H       1  LIG1        0.1043
      7 N           3.6303   -0.1999    0.5899 N.1     1  LIG1       -0.1907
      8 C           2.8479    0.6397    0.4396 C.1     1  LIG1        0.1042
      9 N           3.5488    3.5744    0.5228 N.pl3   1  LIG1       -0.3540
     10 H           4.2860    2.8860    0.5133 H       1  LIG1        0.1425
     11 H           3.8228    4.4908    0.1989 H       1  LIG1        0.1425
     12 C           0.7200    5.1582   -0.0384 C.ar    1  LIG1        0.1936
     13 C           1.4063    6.3332   -0.2619 C.ar    1  LIG1        0.1428
     14 C           0.4258    7.3866   -0.1878 C.ar    1  LIG1        0.1869
     15 C          -0.7712    6.7900    0.0677 C.ar    1  LIG1        0.2137
     16 O          -0.5809    5.4325    0.1657 O.2     1  LIG1       -0.4434
     17 N           3.9123    6.5348   -0.8046 N.1     1  LIG1       -0.1906
     18 C           2.7813    6.4620   -0.5575 C.1     1  LIG1        0.1068
     19 O           0.6417    8.7137   -0.3205 O.3     1  LIG1       -0.4900
     20 C           1.1105    9.1317   -1.6024 C.3     1  LIG1        0.0790
     21 H           1.1837   10.2178   -1.5587 H       1  LIG1        0.0660
     22 H           2.0964    8.7133   -1.8248 H       1  LIG1        0.0660
     23 H           0.4031    8.8411   -2.3856 H       1  LIG1        0.0660
     24 C          -2.1123    7.2860    0.2473 C.ar    1  LIG1        0.1808
     25 C          -2.6106    8.4595    0.7352 C.ar    1  LIG1        0.0406
     26 C          -4.0307    8.3355    0.6204 C.ar    1  LIG1        0.1664
     27 C          -4.3028    7.1046    0.0722 C.ar    1  LIG1        0.1790
     28 O          -3.1122    6.4596   -0.1567 O.2     1  LIG1       -0.4475
     29 C          -1.9052    9.6319    1.3297 C.3     1  LIG1       -0.0325
     30 H          -2.4456    9.9807    2.2129 H       1  LIG1        0.0280
     31 H          -1.8624   10.4687    0.6256 H       1  LIG1        0.0280
     32 H          -0.8812    9.3851    1.6089 H       1  LIG1        0.0280
     33 O          -4.8685    9.2894    1.0586 O.3     1  LIG1       -0.5030
     34 H          -5.7614    9.0957    0.6828 H       1  LIG1        0.2923
     35 C          -6.7453    6.9589   -0.4518 C.ar    1  LIG1        0.0355
     36 C          -7.8927    6.1853   -0.5866 C.ar    1  LIG1       -0.0401
     37 C          -5.5183    6.3380   -0.1689 C.ar    1  LIG1        0.0418
     38 C          -7.8359    4.8041   -0.4801 C.ar    1  LIG1       -0.0571
     39 H          -8.8410    6.6744   -0.7939 H       1  LIG1        0.0636
     40 C          -5.4807    4.9396   -0.1037 C.ar    1  LIG1       -0.0463
     41 C          -6.6193    4.1585   -0.2573 C.ar    1  LIG1       -0.0497
     42 H          -4.5262    4.4654    0.0974 H       1  LIG1        0.0628
     43 H          -8.7458    4.2212   -0.5872 H       1  LIG1        0.0621
     44 N          -6.7981    8.3795   -0.5855 N.pl3   1  LIG1       -0.3574
     45 H          -6.2024    8.6951   -1.3479 H       1  LIG1        0.1423
     46 H          -7.7426    8.7026   -0.7625 H       1  LIG1        0.1423
     47 C          -6.5432    2.6556   -0.1898 C.3     1  LIG1       -0.0397
     48 H          -5.6267    2.3261    0.3045 H       1  LIG1        0.0278
     49 H          -6.5543    2.2134   -1.1917 H       1  LIG1        0.0278
     50 H          -7.3915    2.2377    0.3587 H       1  LIG1        0.0278
@<TRIPOS>BOND
     1    23    20    1
     2    22    20    1
     3    20    21    1
     4    20    19    1
     5    45    44    1
     6    49    47    1
     7    17    18    3
     8    39    36    1
     9    46    44    1
    10    43    38    1
    11    36    38   ar
    12    36    35   ar
    13    44    35    1
    14    18    13    1
    15    38    41   ar
    16    35    37   ar
    17    19    14    1
    18    13    14   ar
    19    13    12   ar
    20    41    47    1
    21    41    40   ar
    22    47    48    1
    23    47    50    1
    24    14    15   ar
    25    37    40   ar
    26    37    27    1
    27    28    27   ar
    28    28    24   ar
    29    40    42    1
    30     5     4   ar
    31     5     1   ar
    32    12     4    1
    33    12    16   ar
    34     6     1    1
    35     4     3   ar
    36     1     2   ar
    37    15    16   ar
    38    15    24    1
    39    27    26   ar
    40    11     9    1
    41    24    25   ar
    42     2     3   ar
    43     2     8    1
    44     3     9    1
    45     8     7    3
    46    10     9    1
    47    26    25   ar
    48    26    33    1
    49    31    29    1
    50    34    33    1
    51    25    29    1
    52    29    32    1
    53    29    30    1
