@<TRIPOS>MOLECULE
mol_data/opt/cam/geoms/mol2/12dh12dh-12dh-12dh-.out
 42 45 0 0 0
SMALL
GASTEIGER

@<TRIPOS>ATOM
      1 C           0.2033    1.7410   -0.0984 C.ar    1  LIG1        0.1119
      2 C           1.5667    1.8026   -0.0471 C.ar    1  LIG1        0.1107
      3 C           1.9151    3.2009   -0.0545 C.ar    1  LIG1        0.0917
      4 C           0.7072    3.8645   -0.1075 C.ar    1  LIG1        0.1928
      5 O          -0.3297    2.9594   -0.1361 O.2     1  LIG1       -0.4566
      6 H          -0.4794    0.9057   -0.1124 H       1  LIG1        0.1043
      7 N           3.2886   -0.1099    0.0558 N.1     1  LIG1       -0.1907
      8 C           2.4910    0.7271    0.0071 C.1     1  LIG1        0.1042
      9 N           3.1673    3.7103   -0.0411 N.pl3   1  LIG1       -0.3540
     10 H           3.9477    3.0977    0.1257 H       1  LIG1        0.1425
     11 H           3.3055    4.7052    0.0407 H       1  LIG1        0.1425
     12 C           0.4216    5.2529   -0.1259 C.ar    1  LIG1        0.1917
     13 C          -0.7301    6.0071   -0.1831 C.ar    1  LIG1        0.1219
     14 C          -0.3251    7.3895   -0.1635 C.ar    1  LIG1        0.0925
     15 C           1.0567    7.3751   -0.0886 C.ar    1  LIG1        0.1939
     16 O           1.4914    6.0537   -0.0702 O.2     1  LIG1       -0.4453
     17 N          -3.1949    5.2838   -0.3030 N.1     1  LIG1       -0.1907
     18 C          -2.0733    5.5683   -0.2500 C.1     1  LIG1        0.1050
     19 N          -1.1973    8.4172   -0.2464 N.pl3   1  LIG1       -0.3539
     20 H          -0.9160    9.3739   -0.0987 H       1  LIG1        0.1425
     21 H          -2.1821    8.2103   -0.2014 H       1  LIG1        0.1425
     22 C           2.1038    8.3340   -0.0424 C.ar    1  LIG1        0.1918
     23 C           2.1579    9.7156    0.0396 C.ar    1  LIG1        0.1219
     24 C           3.5493   10.0866    0.0466 C.ar    1  LIG1        0.0925
     25 C           4.2469    8.9018   -0.0390 C.ar    1  LIG1        0.1938
     26 O           3.3476    7.8449   -0.0905 O.2     1  LIG1       -0.4453
     27 N           0.1970   11.3670    0.2292 N.1     1  LIG1       -0.1907
     28 C           1.0808   10.6194    0.1438 C.1     1  LIG1        0.1050
     29 N           3.9844   11.3672    0.1971 N.pl3   1  LIG1       -0.3539
     30 H           4.9221   11.6173   -0.0811 H       1  LIG1        0.1425
     31 H           3.2971   12.0958    0.0821 H       1  LIG1        0.1425
     32 C           5.6255    8.5283   -0.0349 C.ar    1  LIG1        0.1907
     33 C           6.8051    9.2224   -0.2288 C.ar    1  LIG1        0.1211
     34 C           7.8790    8.2715   -0.0672 C.ar    1  LIG1        0.0812
     35 C           7.2777    7.0849    0.1904 C.ar    1  LIG1        0.1146
     36 O           5.9073    7.2413    0.2170 O.2     1  LIG1       -0.4565
     37 H           7.6450    6.0908    0.3783 H       1  LIG1        0.1049
     38 N           7.0654   11.6897   -0.9034 N.1     1  LIG1       -0.1907
     39 C           6.9526   10.5765   -0.5940 C.1     1  LIG1        0.1049
     40 N           9.2240    8.5926   -0.1204 N.pl3   1  LIG1       -0.3545
     41 H           9.8428    7.8173   -0.3057 H       1  LIG1        0.1424
     42 H           9.4427    9.3952   -0.6937 H       1  LIG1        0.1424
@<TRIPOS>BOND
     1    38    39    3
     2    42    40    1
     3    39    33    1
     4    41    40    1
     5    17    18    3
     6    18    13    1
     7    19    21    1
     8    19    14    1
     9    19    20    1
    10    33    34   ar
    11    33    32   ar
    12    13    14   ar
    13    13    12   ar
    14    14    15   ar
    15     5     4   ar
    16     5     1   ar
    17    12     4    1
    18    12    16   ar
    19    40    34    1
    20     6     1    1
    21     4     3   ar
    22     1     2   ar
    23    26    22   ar
    24    26    25   ar
    25    15    16   ar
    26    15    22    1
    27    30    29    1
    28    34    35   ar
    29     3     2   ar
    30     3     9    1
    31     2     8    1
    32    22    23   ar
    33     9    11    1
    34     9    10    1
    35    25    32    1
    36    25    24   ar
    37    32    36   ar
    38     8     7    3
    39    23    24   ar
    40    23    28    1
    41    24    29    1
    42    31    29    1
    43    28    27    3
    44    35    36   ar
    45    35    37    1
