@<TRIPOS>MOLECULE
mol_data/opt/cam/geoms/mol2/12dh12dh12dh12dh-.out
 42 45 0 0 0
SMALL
GASTEIGER

@<TRIPOS>ATOM
      1 C           0.1323    1.8421   -0.2680 C.ar    1  LIG1        0.1119
      2 C           1.4869    1.7697   -0.1144 C.ar    1  LIG1        0.1107
      3 C           1.9693    3.1269   -0.0337 C.ar    1  LIG1        0.0917
      4 C           0.8380    3.9137   -0.1564 C.ar    1  LIG1        0.1928
      5 O          -0.2723    3.1010   -0.2966 O.2     1  LIG1       -0.4566
      6 H          -0.6283    1.0825   -0.3653 H       1  LIG1        0.1043
      7 N           3.0220   -0.2934    0.0183 N.1     1  LIG1       -0.1907
      8 C           2.3044    0.6128   -0.0422 C.1     1  LIG1        0.1042
      9 N           3.2675    3.4503    0.1693 N.pl3   1  LIG1       -0.3540
     10 H           3.9518    2.7126    0.1240 H       1  LIG1        0.1425
     11 H           3.6042    4.3948    0.0661 H       1  LIG1        0.1425
     12 C           0.5494    5.3097   -0.1316 C.ar    1  LIG1        0.1917
     13 C           1.3131    6.4661   -0.0974 C.ar    1  LIG1        0.1219
     14 C           0.3980    7.5770   -0.0656 C.ar    1  LIG1        0.0925
     15 C          -0.8626    7.0118   -0.0996 C.ar    1  LIG1        0.1939
     16 O          -0.7410    5.6325   -0.1354 O.2     1  LIG1       -0.4453
     17 N           3.8738    6.6880   -0.1567 N.1     1  LIG1       -0.1907
     18 C           2.7185    6.5826   -0.1253 C.1     1  LIG1        0.1050
     19 N           0.7893    8.8701    0.0207 N.pl3   1  LIG1       -0.3539
     20 H           1.7669    9.0819   -0.0942 H       1  LIG1        0.1425
     21 H           0.1392    9.6295   -0.1113 H       1  LIG1        0.1425
     22 C          -2.2072    7.4752   -0.0868 C.ar    1  LIG1        0.1918
     23 C          -2.8195    8.7209   -0.1229 C.ar    1  LIG1        0.1219
     24 C          -4.2377    8.4880   -0.0730 C.ar    1  LIG1        0.0925
     25 C          -4.3838    7.1254   -0.0213 C.ar    1  LIG1        0.1938
     26 O          -3.1453    6.5227   -0.0237 O.2     1  LIG1       -0.4453
     27 N          -1.6914   11.0211   -0.3386 N.1     1  LIG1       -0.1907
     28 C          -2.2011    9.9836   -0.2338 C.1     1  LIG1        0.1050
     29 N          -5.2066    9.4494   -0.0351 N.pl3   1  LIG1       -0.3539
     30 H          -4.9692   10.3608   -0.3942 H       1  LIG1        0.1425
     31 H          -6.1525    9.1425   -0.2004 H       1  LIG1        0.1425
     32 C          -5.5246    6.2767    0.0053 C.ar    1  LIG1        0.1907
     33 C          -5.6830    4.9091    0.0134 C.ar    1  LIG1        0.1211
     34 C          -7.1073    4.6658    0.0257 C.ar    1  LIG1        0.0812
     35 C          -7.6963    5.8868    0.0189 C.ar    1  LIG1        0.1146
     36 O          -6.7284    6.8765    0.0097 O.2     1  LIG1       -0.4565
     37 H          -8.7179    6.2239    0.0390 H       1  LIG1        0.1049
     38 N          -3.9383    3.0186   -0.0548 N.1     1  LIG1       -0.1907
     39 C          -4.6907    3.8995   -0.0169 C.1     1  LIG1        0.1049
     40 N          -7.6779    3.4084    0.0976 N.pl3   1  LIG1       -0.3545
     41 H          -8.6215    3.3382   -0.2521 H       1  LIG1        0.1424
     42 H          -7.0865    2.6616   -0.2388 H       1  LIG1        0.1424
@<TRIPOS>BOND
     1    30    29    1
     2     6     1    1
     3    27    28    3
     4     5     1   ar
     5     5     4   ar
     6     1     2   ar
     7    41    40    1
     8    42    40    1
     9    28    23    1
    10    31    29    1
    11    17    18    3
    12     4    12    1
    13     4     3   ar
    14    16    12   ar
    15    16    15   ar
    16    12    13   ar
    17    18    13    1
    18    23    22   ar
    19    23    24   ar
    20     2     8    1
    21     2     3   ar
    22    21    19    1
    23    15    22    1
    24    15    14   ar
    25    13    14   ar
    26    20    19    1
    27    22    26   ar
    28    24    29    1
    29    24    25   ar
    30    14    19    1
    31    38    39    3
    32     8     7    3
    33     3     9    1
    34    26    25   ar
    35    25    32    1
    36    39    33    1
    37    32    36   ar
    38    32    33   ar
    39    36    35   ar
    40    33    34   ar
    41    35    34   ar
    42    35    37    1
    43    34    40    1
    44    11     9    1
    45    10     9    1
