@<TRIPOS>MOLECULE
mol_data/opt/cam/geoms/mol2/12dh.out
 12 12 0 0 0
SMALL
GASTEIGER

@<TRIPOS>ATOM
      1 C           0.1112    1.8875    0.0345 C.ar    1  LIG1        0.1109
      2 C           1.4747    1.8766   -0.0069 C.ar    1  LIG1        0.1100
      3 C           1.8927    3.2578   -0.0512 C.ar    1  LIG1        0.0804
      4 C           0.7415    3.9795   -0.0352 C.ar    1  LIG1        0.1136
      5 O          -0.3440    3.1403    0.0189 O.2     1  LIG1       -0.4678
      6 H          -0.6186    1.0944    0.0716 H       1  LIG1        0.1043
      7 H           0.5276    5.0347   -0.0448 H       1  LIG1        0.1049
      8 N           3.0754   -0.1419   -0.0492 N.1     1  LIG1       -0.1907
      9 C           2.3354    0.7479   -0.0230 C.1     1  LIG1        0.1042
     10 N           3.2098    3.6853   -0.0393 N.pl3   1  LIG1       -0.3545
     11 H           3.8704    3.0120   -0.4014 H       1  LIG1        0.1424
     12 H           3.3656    4.6080   -0.4171 H       1  LIG1        0.1424
@<TRIPOS>BOND
     1    12    10    1
     2    11    10    1
     3     3    10    1
     4     3     4   ar
     5     3     2   ar
     6     8     9    3
     7     7     4    1
     8     4     5   ar
     9     9     2    1
    10     2     1   ar
    11     5     1   ar
    12     1     6    1
