@<TRIPOS>MOLECULE
mol_data/opt/cam/geoms/mol2/12dh12dh12dh-12dh.out
 42 45 0 0 0
SMALL
GASTEIGER

@<TRIPOS>ATOM
      1 C           0.2662    1.7323   -0.2615 C.ar    1  LIG1        0.1119
      2 C           1.6125    1.7336   -0.0440 C.ar    1  LIG1        0.1107
      3 C           2.0207    3.1150    0.0313 C.ar    1  LIG1        0.0917
      4 C           0.8584    3.8403   -0.1603 C.ar    1  LIG1        0.1928
      5 O          -0.2024    2.9696   -0.3342 O.2     1  LIG1       -0.4566
      6 H          -0.4443    0.9291   -0.3817 H       1  LIG1        0.1043
      7 N           3.2379   -0.2486    0.2021 N.1     1  LIG1       -0.1907
      8 C           2.4818    0.6205    0.0898 C.1     1  LIG1        0.1042
      9 N           3.2891    3.5070    0.3056 N.pl3   1  LIG1       -0.3540
     10 H           4.0053    2.7980    0.2852 H       1  LIG1        0.1425
     11 H           3.5942    4.4511    0.1232 H       1  LIG1        0.1425
     12 C           0.5132    5.2247   -0.1715 C.ar    1  LIG1        0.1917
     13 C           1.2491    6.3982   -0.2213 C.ar    1  LIG1        0.1219
     14 C           0.3110    7.4894   -0.1800 C.ar    1  LIG1        0.0925
     15 C          -0.9317    6.8887   -0.1204 C.ar    1  LIG1        0.1939
     16 O          -0.7893    5.5136   -0.1134 O.2     1  LIG1       -0.4453
     17 N           3.7958    6.6533   -0.4654 N.1     1  LIG1       -0.1907
     18 C           2.6467    6.5373   -0.3540 C.1     1  LIG1        0.1050
     19 N           0.6346    8.7953   -0.2155 N.pl3   1  LIG1       -0.3539
     20 H           1.6018    9.0712   -0.2355 H       1  LIG1        0.1425
     21 H          -0.0570    9.5299   -0.1684 H       1  LIG1        0.1425
     22 C          -2.2408    7.4167   -0.0711 C.ar    1  LIG1        0.1918
     23 C          -3.5012    6.8467   -0.0243 C.ar    1  LIG1        0.1219
     24 C          -4.4397    7.9341    0.0142 C.ar    1  LIG1        0.0925
     25 C          -3.6881    9.0838   -0.0166 C.ar    1  LIG1        0.1938
     26 O          -2.3422    8.7558   -0.0652 O.2     1  LIG1       -0.4453
     27 N          -4.2317    4.3813   -0.0325 N.1     1  LIG1       -0.1907
     28 C          -3.8585    5.4784   -0.0259 C.1     1  LIG1        0.1050
     29 N          -5.7903    7.8108    0.1096 N.pl3   1  LIG1       -0.3539
     30 H          -6.3507    8.6300   -0.0614 H       1  LIG1        0.1425
     31 H          -6.1985    6.9175   -0.1152 H       1  LIG1        0.1425
     32 C          -4.0274   10.4596   -0.0190 C.ar    1  LIG1        0.1907
     33 C          -3.2644   11.6084   -0.0523 C.ar    1  LIG1        0.1211
     34 C          -4.1915   12.7158   -0.0489 C.ar    1  LIG1        0.0812
     35 C          -5.4290   12.1637   -0.0181 C.ar    1  LIG1        0.1146
     36 O          -5.3313   10.7804    0.0049 O.2     1  LIG1       -0.4565
     37 H          -6.4259   12.5674    0.0114 H       1  LIG1        0.1049
     38 N          -0.6961   11.7086   -0.1334 N.1     1  LIG1       -0.1907
     39 C          -1.8549   11.6715   -0.0919 C.1     1  LIG1        0.1049
     40 N          -3.8175   14.0471   -0.0121 N.pl3   1  LIG1       -0.3545
     41 H          -2.9171   14.2432   -0.4256 H       1  LIG1        0.1424
     42 H          -4.5237   14.7016   -0.3138 H       1  LIG1        0.1424
@<TRIPOS>BOND
     1    17    18    3
     2    41    40    1
     3     6     1    1
     4    18    13    1
     5     5     1   ar
     6     5     4   ar
     7    42    40    1
     8     1     2   ar
     9    20    19    1
    10    13    14   ar
    11    13    12   ar
    12    19    14    1
    13    19    21    1
    14    14    15   ar
    15    12     4    1
    16    12    16   ar
    17     4     3   ar
    18    38    39    3
    19    15    16   ar
    20    15    22    1
    21    31    29    1
    22    39    33    1
    23    22    26   ar
    24    22    23   ar
    25    26    25   ar
    26    30    29    1
    27    33    34   ar
    28    33    32   ar
    29    34    35   ar
    30    34    40    1
    31     2     3   ar
    32     2     8    1
    33    27    28    3
    34    28    23    1
    35    23    24   ar
    36    32    25    1
    37    32    36   ar
    38    35    36   ar
    39    35    37    1
    40    25    24   ar
    41    24    29    1
    42     3     9    1
    43     8     7    3
    44    11     9    1
    45    10     9    1
