@<TRIPOS>MOLECULE
mol_data/opt/cam/geoms/mol2/12dh12dh12dh12dh.out
 42 45 0 0 0
SMALL
GASTEIGER

@<TRIPOS>ATOM
      1 C           0.4068    1.7919   -0.7803 C.ar    1  LIG1        0.1119
      2 C           1.7113    1.7672   -0.3859 C.ar    1  LIG1        0.1107
      3 C           2.0779    3.1273   -0.0749 C.ar    1  LIG1        0.0917
      4 C           0.9378    3.8692   -0.3232 C.ar    1  LIG1        0.1928
      5 O          -0.0737    3.0275   -0.7512 O.2     1  LIG1       -0.4566
      6 H          -0.2633    1.0093   -1.1010 H       1  LIG1        0.1043
      7 N           3.3254   -0.2298   -0.1885 N.1     1  LIG1       -0.1907
      8 C           2.5762    0.6470   -0.2850 C.1     1  LIG1        0.1042
      9 N           3.2909    3.4812    0.4176 N.pl3   1  LIG1       -0.3540
     10 H           4.0165    2.7816    0.4001 H       1  LIG1        0.1425
     11 H           3.6023    4.4404    0.3951 H       1  LIG1        0.1425
     12 C           0.5753    5.2448   -0.1970 C.ar    1  LIG1        0.1917
     13 C           1.2980    6.4103   -0.0144 C.ar    1  LIG1        0.1219
     14 C           0.3508    7.4908    0.0589 C.ar    1  LIG1        0.0925
     15 C          -0.8864    6.9020   -0.1099 C.ar    1  LIG1        0.1939
     16 O          -0.7249    5.5325   -0.2567 O.2     1  LIG1       -0.4453
     17 N           3.8512    6.7001    0.0729 N.1     1  LIG1       -0.1907
     18 C           2.6994    6.5654    0.0358 C.1     1  LIG1        0.1050
     19 N           0.7008    8.7786    0.3076 N.pl3   1  LIG1       -0.3539
     20 H           1.6809    9.0076    0.2543 H       1  LIG1        0.1425
     21 H           0.0659    9.5338    0.0954 H       1  LIG1        0.1425
     22 C          -2.2357    7.3628   -0.1176 C.ar    1  LIG1        0.1918
     23 C          -2.8183    8.6150   -0.2134 C.ar    1  LIG1        0.1219
     24 C          -4.2430    8.4280   -0.1309 C.ar    1  LIG1        0.0925
     25 C          -4.4259    7.0681   -0.0182 C.ar    1  LIG1        0.1938
     26 O          -3.1913    6.4376   -0.0059 O.2     1  LIG1       -0.4453
     27 N          -1.6538   10.8756   -0.5913 N.1     1  LIG1       -0.1907
     28 C          -2.1784    9.8549   -0.4178 C.1     1  LIG1        0.1050
     29 N          -5.1395    9.4545   -0.1065 N.pl3   1  LIG1       -0.3539
     30 H          -4.7870   10.3623   -0.3687 H       1  LIG1        0.1425
     31 H          -6.0984    9.2843   -0.3735 H       1  LIG1        0.1425
     32 C          -5.5598    6.2096    0.1325 C.ar    1  LIG1        0.1907
     33 C          -6.9136    6.3715   -0.0950 C.ar    1  LIG1        0.1211
     34 C          -7.5498    5.1346    0.2890 C.ar    1  LIG1        0.0812
     35 C          -6.5443    4.3219    0.6960 C.ar    1  LIG1        0.1146
     36 O          -5.3369    4.9778    0.6083 O.2     1  LIG1       -0.4565
     37 H          -6.5077    3.3112    1.0645 H       1  LIG1        0.1049
     38 N          -8.0798    8.4075   -1.1465 N.1     1  LIG1       -0.1907
     39 C          -7.5585    7.4874   -0.6679 C.1     1  LIG1        0.1049
     40 N          -8.9173    4.9166    0.2726 N.pl3   1  LIG1       -0.3545
     41 H          -9.4205    5.4619   -0.4132 H       1  LIG1        0.1424
     42 H          -9.1939    3.9461    0.2560 H       1  LIG1        0.1424
@<TRIPOS>BOND
     1    38    39    3
     2     6     1    1
     3     1     5   ar
     4     1     2   ar
     5     5     4   ar
     6    39    33    1
     7    27    28    3
     8    28    23    1
     9    41    40    1
    10     2     8    1
    11     2     3   ar
    12    31    29    1
    13    30    29    1
    14     4    12    1
    15     4     3   ar
    16     8     7    3
    17    16    12   ar
    18    16    15   ar
    19    23    24   ar
    20    23    22   ar
    21    12    13   ar
    22    24    29    1
    23    24    25   ar
    24    22    15    1
    25    22    26   ar
    26    15    14   ar
    27    33    32   ar
    28    33    34   ar
    29     3     9    1
    30    25    26   ar
    31    25    32    1
    32    13    18    1
    33    13    14   ar
    34    18    17    3
    35    14    19    1
    36    21    19    1
    37    32    36   ar
    38    20    19    1
    39    42    40    1
    40    40    34    1
    41    34    35   ar
    42    11     9    1
    43    10     9    1
    44    36    35   ar
    45    35    37    1
