@<TRIPOS>MOLECULE
mol_data/opt/cam/geoms/mol2/12dh12dh.out
 22 23 0 0 0
SMALL
GASTEIGER

@<TRIPOS>ATOM
      1 C           0.1488    1.8043   -0.2464 C.ar    1  LIG1        0.1119
      2 C           1.4994    1.7995   -0.0643 C.ar    1  LIG1        0.1107
      3 C           1.9102    3.1785    0.0441 C.ar    1  LIG1        0.0917
      4 C           0.7492    3.9080   -0.0948 C.ar    1  LIG1        0.1928
      5 O          -0.3185    3.0475   -0.2702 O.2     1  LIG1       -0.4566
      6 H          -0.5652    1.0056   -0.3733 H       1  LIG1        0.1043
      7 N           3.1170   -0.2000    0.0744 N.1     1  LIG1       -0.1907
      8 C           2.3667    0.6790    0.0112 C.1     1  LIG1        0.1042
      9 N           3.1886    3.5704    0.3127 N.pl3   1  LIG1       -0.3540
     10 H           3.8976    2.8583    0.2231 H       1  LIG1        0.1425
     11 H           3.4900    4.4979    0.0510 H       1  LIG1        0.1425
     12 C           0.4208    5.3029   -0.0496 C.ar    1  LIG1        0.1907
     13 C           1.1626    6.4578   -0.1939 C.ar    1  LIG1        0.1211
     14 C           0.2528    7.5620   -0.0071 C.ar    1  LIG1        0.0812
     15 C          -0.9594    6.9966    0.2150 C.ar    1  LIG1        0.1146
     16 O          -0.8549    5.6244    0.1970 O.2     1  LIG1       -0.4565
     17 H          -1.9424    7.3937    0.4012 H       1  LIG1        0.1049
     18 N           3.6503    6.6334   -0.8222 N.1     1  LIG1       -0.1907
     19 C           2.5284    6.5597   -0.5354 C.1     1  LIG1        0.1049
     20 N           0.6241    8.8956   -0.0095 N.pl3   1  LIG1       -0.3545
     21 H           1.4390    9.1043   -0.5690 H       1  LIG1        0.1424
     22 H          -0.1267    9.5478   -0.1809 H       1  LIG1        0.1424
@<TRIPOS>BOND
     1    18    19    3
     2    21    20    1
     3    19    13    1
     4     6     1    1
     5     5     1   ar
     6     5     4   ar
     7     1     2   ar
     8    13    12   ar
     9    13    14   ar
    10    22    20    1
    11     4    12    1
    12     4     3   ar
    13     2     8    1
    14     2     3   ar
    15    12    16   ar
    16    20    14    1
    17    14    15   ar
    18     8     7    3
    19     3     9    1
    20    11     9    1
    21    16    15   ar
    22    15    17    1
    23    10     9    1
