@<TRIPOS>MOLECULE
mol_data/opt/cam/geoms/mol2/12dh12dh-12dh-12dh.out
 42 45 0 0 0
SMALL
GASTEIGER

@<TRIPOS>ATOM
      1 C           0.0741    1.7522   -0.0562 C.ar    1  LIG1        0.1119
      2 C           1.4349    1.7298   -0.1598 C.ar    1  LIG1        0.1107
      3 C           1.8706    3.1055   -0.1816 C.ar    1  LIG1        0.0917
      4 C           0.7053    3.8435   -0.0854 C.ar    1  LIG1        0.1928
      5 O          -0.3841    2.9987   -0.0110 O.2     1  LIG1       -0.4566
      6 H          -0.6556    0.9588   -0.0069 H       1  LIG1        0.1043
      7 N           3.0080   -0.3056   -0.2904 N.1     1  LIG1       -0.1907
      8 C           2.2819    0.5935   -0.2316 C.1     1  LIG1        0.1042
      9 N           3.1410    3.5290   -0.3046 N.pl3   1  LIG1       -0.3540
     10 H           3.9018    2.8756   -0.2114 H       1  LIG1        0.1425
     11 H           3.3877    4.4978   -0.1746 H       1  LIG1        0.1425
     12 C           0.4696    5.2382   -0.0481 C.ar    1  LIG1        0.1917
     13 C          -0.6780    5.9992    0.0512 C.ar    1  LIG1        0.1219
     14 C          -0.2676    7.3762    0.0419 C.ar    1  LIG1        0.0925
     15 C           1.1133    7.3580   -0.0724 C.ar    1  LIG1        0.1939
     16 O           1.5434    6.0330   -0.1228 O.2     1  LIG1       -0.4453
     17 N          -3.1490    5.3119    0.2291 N.1     1  LIG1       -0.1907
     18 C          -2.0233    5.5743    0.1491 C.1     1  LIG1        0.1050
     19 N          -1.1339    8.4040    0.1750 N.pl3   1  LIG1       -0.3539
     20 H          -0.8651    9.3587   -0.0048 H       1  LIG1        0.1425
     21 H          -2.1190    8.1925    0.1536 H       1  LIG1        0.1425
     22 C           2.1430    8.3317   -0.1085 C.ar    1  LIG1        0.1918
     23 C           2.1622    9.7195   -0.1996 C.ar    1  LIG1        0.1219
     24 C           3.5406   10.1210   -0.1649 C.ar    1  LIG1        0.0925
     25 C           4.2627    8.9580   -0.0713 C.ar    1  LIG1        0.1938
     26 O           3.4025    7.8756   -0.0327 O.2     1  LIG1       -0.4453
     27 N           0.1860   11.3347   -0.5020 N.1     1  LIG1       -0.1907
     28 C           1.0735   10.6001   -0.3595 C.1     1  LIG1        0.1050
     29 N           3.9969   11.4038   -0.1817 N.pl3   1  LIG1       -0.3539
     30 H           4.9814   11.5405   -0.3473 H       1  LIG1        0.1425
     31 H           3.3766   12.1196   -0.5251 H       1  LIG1        0.1425
     32 C           5.6593    8.7090   -0.0315 C.ar    1  LIG1        0.1907
     33 C           6.4167    7.5596    0.0420 C.ar    1  LIG1        0.1211
     34 C           7.8000    7.9776    0.0311 C.ar    1  LIG1        0.0812
     35 C           7.7791    9.3299   -0.0505 C.ar    1  LIG1        0.1146
     36 O           6.4690    9.7809   -0.0847 O.2     1  LIG1       -0.4565
     37 H           8.5412   10.0891   -0.0713 H       1  LIG1        0.1049
     38 N           5.6185    5.1182    0.1335 N.1     1  LIG1       -0.1907
     39 C           5.9557    6.2268    0.0977 C.1     1  LIG1        0.1049
     40 N           8.8739    7.1157    0.1550 N.pl3   1  LIG1       -0.3545
     41 H           8.6983    6.1740   -0.1655 H       1  LIG1        0.1424
     42 H           9.7571    7.4731   -0.1767 H       1  LIG1        0.1424
@<TRIPOS>BOND
     1    31    29    1
     2    27    28    3
     3    28    23    1
     4    30    29    1
     5     9    10    1
     6     9     3    1
     7     9    11    1
     8     7     8    3
     9     8     2    1
    10    23    24   ar
    11    23    22   ar
    12    29    24    1
    13     3     2   ar
    14     3     4   ar
    15    42    40    1
    16    41    40    1
    17    24    25   ar
    18     2     1   ar
    19    16    15   ar
    20    16    12   ar
    21    22    15    1
    22    22    26   ar
    23     4    12    1
    24     4     5   ar
    25    36    35   ar
    26    36    32   ar
    27    15    14   ar
    28    37    35    1
    29    25    26   ar
    30    25    32    1
    31     1     5   ar
    32     1     6    1
    33    35    34   ar
    34    12    13   ar
    35    32    33   ar
    36    20    19    1
    37    34    33   ar
    38    34    40    1
    39    14    13   ar
    40    14    19    1
    41    33    39    1
    42    13    18    1
    43    39    38    3
    44    18    17    3
    45    21    19    1
