@<TRIPOS>MOLECULE
mol_data/opt/cam/geoms/mol2/12dh12dh-4dh12dh.out
 45 48 0 0 0
SMALL
GASTEIGER

@<TRIPOS>ATOM
      1 C          -0.0082    1.7091    0.2098 C.ar    1  LIG1        0.1119
      2 C           1.3535    1.6336    0.2314 C.ar    1  LIG1        0.1107
      3 C           1.8489    2.9845    0.1098 C.ar    1  LIG1        0.0917
      4 C           0.7137    3.7665    0.0286 C.ar    1  LIG1        0.1928
      5 O          -0.4124    2.9695    0.0885 O.2     1  LIG1       -0.4566
      6 H          -0.7732    0.9509    0.2702 H       1  LIG1        0.1043
      7 N           2.8529   -0.4524    0.4181 N.1     1  LIG1       -0.1907
      8 C           2.1576    0.4692    0.3381 C.1     1  LIG1        0.1042
      9 N           3.1542    3.3379    0.1208 N.pl3   1  LIG1       -0.3540
     10 H           3.8312    2.5988    0.0117 H       1  LIG1        0.1425
     11 H           3.4472    4.2432   -0.2293 H       1  LIG1        0.1425
     12 C           0.5022    5.1649   -0.0981 C.ar    1  LIG1        0.1916
     13 C          -0.6355    5.9297   -0.2594 C.ar    1  LIG1        0.1218
     14 C          -0.1985    7.2939   -0.3355 C.ar    1  LIG1        0.0894
     15 C           1.1678    7.2762   -0.2084 C.ar    1  LIG1        0.1590
     16 O           1.5801    5.9586   -0.0707 O.2     1  LIG1       -0.4484
     17 N          -3.1084    5.2679   -0.5016 N.1     1  LIG1       -0.1907
     18 C          -1.9829    5.5158   -0.3816 C.1     1  LIG1        0.1050
     19 N          -1.0453    8.3726   -0.4940 N.pl3   1  LIG1       -0.3540
     20 H          -0.6689    9.1334   -1.0423 H       1  LIG1        0.1425
     21 H          -1.9807    8.1176   -0.7835 H       1  LIG1        0.1425
     22 C           3.5314    8.1052   -0.4799 C.ar    1  LIG1        0.0633
     23 C           4.4225    9.1725   -0.4371 C.ar    1  LIG1       -0.0312
     24 C           2.1627    8.3226   -0.1781 C.ar    1  LIG1        0.0383
     25 C           4.0340   10.4684   -0.1092 C.ar    1  LIG1        0.0405
     26 H           5.4588    8.9757   -0.6837 H       1  LIG1        0.0638
     27 C           1.7728    9.6163    0.1571 C.ar    1  LIG1       -0.0284
     28 C           2.6632   10.6980    0.1968 C.ar    1  LIG1        0.0361
     29 H           0.7471    9.7932    0.4617 H       1  LIG1        0.0644
     30 N           4.4669    5.8020   -1.1923 N.1     1  LIG1       -0.1908
     31 C           4.0375    6.8285   -0.8710 C.1     1  LIG1        0.0999
     32 N           2.1978   11.9185    0.5772 N.pl3   1  LIG1       -0.3574
     33 H           2.7695   12.7366    0.4608 H       1  LIG1        0.1423
     34 H           1.2111   12.0414    0.7238 H       1  LIG1        0.1423
     35 C           5.0430   11.5185   -0.0605 C.ar    1  LIG1        0.1557
     36 C           6.4102   11.4954    0.0999 C.ar    1  LIG1        0.1180
     37 C           6.8756   12.8591    0.0304 C.ar    1  LIG1        0.0811
     38 C           5.7652   13.6134   -0.1593 C.ar    1  LIG1        0.1145
     39 O           4.6536   12.8006   -0.2143 O.2     1  LIG1       -0.4597
     40 H           5.5875   14.6703   -0.2583 H       1  LIG1        0.1049
     41 N           8.0091    9.5121    0.4683 N.1     1  LIG1       -0.1907
     42 C           7.2619   10.3833    0.3106 C.1     1  LIG1        0.1048
     43 N           8.1894   13.2440    0.2076 N.pl3   1  LIG1       -0.3545
     44 H           8.8732   12.5275    0.0092 H       1  LIG1        0.1424
     45 H           8.4417   14.1398   -0.1810 H       1  LIG1        0.1424
@<TRIPOS>BOND
     1    30    31    3
     2    20    19    1
     3    31    22    1
     4    21    19    1
     5    26    23    1
     6    17    18    3
     7    19    14    1
     8    22    23   ar
     9    22    24   ar
    10    23    25   ar
    11    18    13    1
    12    14    13   ar
    13    14    15   ar
    14    13    12   ar
    15    40    38    1
    16    11     9    1
    17    39    38   ar
    18    39    35   ar
    19    15    24    1
    20    15    16   ar
    21    45    43    1
    22    24    27   ar
    23    38    37   ar
    24    25    35    1
    25    25    28   ar
    26    12    16   ar
    27    12     4    1
    28    35    36   ar
    29    44    43    1
    30    10     9    1
    31     4     5   ar
    32     4     3   ar
    33    37    36   ar
    34    37    43    1
    35     5     1   ar
    36    36    42    1
    37     3     9    1
    38     3     2   ar
    39    27    28   ar
    40    27    29    1
    41    28    32    1
    42     1     2   ar
    43     1     6    1
    44     2     8    1
    45    42    41    3
    46     8     7    3
    47    33    32    1
    48    32    34    1
