@<TRIPOS>MOLECULE
mol_data/opt/cam/geoms/mol2/12dh12dh12dh.out
 32 34 0 0 0
SMALL
GASTEIGER

@<TRIPOS>ATOM
      1 C           0.2573    1.7580   -0.4896 C.ar    1  LIG1        0.1119
      2 C           1.5837    1.7489   -0.1759 C.ar    1  LIG1        0.1107
      3 C           1.9755    3.1239    0.0170 C.ar    1  LIG1        0.0917
      4 C           0.8270    3.8568   -0.2115 C.ar    1  LIG1        0.1928
      5 O          -0.2136    2.9981   -0.5172 O.2     1  LIG1       -0.4566
      6 H          -0.4357    0.9617   -0.7128 H       1  LIG1        0.1043
      7 N           3.1945   -0.2469    0.0588 N.1     1  LIG1       -0.1907
      8 C           2.4467    0.6296   -0.0512 C.1     1  LIG1        0.1042
      9 N           3.2184    3.5021    0.4136 N.pl3   1  LIG1       -0.3540
     10 H           3.9381    2.7964    0.3884 H       1  LIG1        0.1425
     11 H           3.5347    4.4505    0.2772 H       1  LIG1        0.1425
     12 C           0.4819    5.2432   -0.1564 C.ar    1  LIG1        0.1917
     13 C           1.2224    6.4098   -0.1261 C.ar    1  LIG1        0.1219
     14 C           0.2893    7.5034   -0.0422 C.ar    1  LIG1        0.0925
     15 C          -0.9569    6.9185   -0.0552 C.ar    1  LIG1        0.1938
     16 O          -0.8179    5.5412   -0.1189 O.2     1  LIG1       -0.4453
     17 N           3.7752    6.6633   -0.3003 N.1     1  LIG1       -0.1907
     18 C           2.6235    6.5478   -0.2193 C.1     1  LIG1        0.1050
     19 N           0.6628    8.8075    0.0901 N.pl3   1  LIG1       -0.3539
     20 H           1.6328    9.0158   -0.0908 H       1  LIG1        0.1425
     21 H           0.0202    9.5388   -0.1787 H       1  LIG1        0.1425
     22 C          -2.3018    7.3998    0.0285 C.ar    1  LIG1        0.1907
     23 C          -2.8838    8.6376   -0.1673 C.ar    1  LIG1        0.1211
     24 C          -4.2919    8.4821    0.1066 C.ar    1  LIG1        0.0812
     25 C          -4.4560    7.1746    0.4248 C.ar    1  LIG1        0.1146
     26 O          -3.2458    6.5196    0.3850 O.2     1  LIG1       -0.4565
     27 H          -5.3087    6.5766    0.6965 H       1  LIG1        0.1049
     28 N          -1.7324   10.7777   -1.0077 N.1     1  LIG1       -0.1907
     29 C          -2.2565    9.8155   -0.6247 C.1     1  LIG1        0.1049
     30 N          -5.2151    9.5140    0.0855 N.pl3   1  LIG1       -0.3545
     31 H          -4.9830   10.2719   -0.5410 H       1  LIG1        0.1424
     32 H          -6.1763    9.2238   -0.0169 H       1  LIG1        0.1424
@<TRIPOS>BOND
     1    28    29    3
     2     6     1    1
     3    29    23    1
     4    31    30    1
     5     5     1   ar
     6     5     4   ar
     7     1     2   ar
     8    17    18    3
     9    18    13    1
    10     4    12    1
    11     4     3   ar
    12    21    19    1
    13     2     8    1
    14     2     3   ar
    15    23    22   ar
    16    23    24   ar
    17    12    13   ar
    18    12    16   ar
    19    13    14   ar
    20    16    15   ar
    21    20    19    1
    22    15    14   ar
    23    15    22    1
    24     8     7    3
    25    14    19    1
    26    32    30    1
    27     3     9    1
    28    22    26   ar
    29    30    24    1
    30    24    25   ar
    31    11     9    1
    32    26    25   ar
    33    10     9    1
    34    25    27    1
