@<TRIPOS>MOLECULE
mol_data/opt/cam/geoms/mol2/12dh12dh-.out
 22 23 0 0 0
SMALL
GASTEIGER

@<TRIPOS>ATOM
      1 C           0.1599    1.7991    0.0098 C.ar    1  LIG1        0.1119
      2 C           1.5247    1.7867   -0.0191 C.ar    1  LIG1        0.1107
      3 C           1.9468    3.1638   -0.0348 C.ar    1  LIG1        0.0917
      4 C           0.7839    3.8936   -0.0182 C.ar    1  LIG1        0.1928
      5 O          -0.3008    3.0489    0.0125 O.2     1  LIG1       -0.4566
      6 H          -0.5704    1.0057    0.0288 H       1  LIG1        0.1043
      7 N           3.1311   -0.2263   -0.0701 N.1     1  LIG1       -0.1907
      8 C           2.3871    0.6596   -0.0417 C.1     1  LIG1        0.1042
      9 N           3.2381    3.6061   -0.0113 N.pl3   1  LIG1       -0.3540
     10 H           3.9513    2.9632   -0.3180 H       1  LIG1        0.1425
     11 H           3.3903    4.5778   -0.2309 H       1  LIG1        0.1425
     12 C           0.5449    5.3003   -0.0377 C.ar    1  LIG1        0.1907
     13 C          -0.5924    6.0715   -0.0245 C.ar    1  LIG1        0.1211
     14 C          -0.1541    7.4470   -0.0735 C.ar    1  LIG1        0.0812
     15 C           1.2007    7.4045   -0.1166 C.ar    1  LIG1        0.1146
     16 O           1.6312    6.0906   -0.0922 O.2     1  LIG1       -0.4565
     17 H           1.9712    8.1551   -0.1455 H       1  LIG1        0.1049
     18 N          -3.0705    5.3820    0.0193 N.1     1  LIG1       -0.1907
     19 C          -1.9442    5.6526    0.0068 C.1     1  LIG1        0.1049
     20 N          -1.0047    8.5341   -0.0158 N.pl3   1  LIG1       -0.3545
     21 H          -0.6440    9.3931   -0.4021 H       1  LIG1        0.1424
     22 H          -1.9515    8.3438   -0.3120 H       1  LIG1        0.1424
@<TRIPOS>BOND
     1    21    20    1
     2    10     9    1
     3    22    20    1
     4    11     9    1
     5    17    15    1
     6    15    16   ar
     7    15    14   ar
     8    16    12   ar
     9    14    13   ar
    10    14    20    1
    11     7     8    3
    12     8     2    1
    13    12    13   ar
    14    12     4    1
    15     3     2   ar
    16     3     4   ar
    17     3     9    1
    18    13    19    1
    19     2     1   ar
    20     4     5   ar
    21    19    18    3
    22     1     5   ar
    23     1     6    1
