@<TRIPOS>MOLECULE
mol_data/opt/cam/geoms/mol2/12dh12dh12dh-12dh-.out
 42 45 0 0 0
SMALL
GASTEIGER

@<TRIPOS>ATOM
      1 C           0.3110    1.7016   -0.2709 C.ar    1  LIG1        0.1119
      2 C           1.6614    1.7178   -0.0823 C.ar    1  LIG1        0.1107
      3 C           2.0545    3.1033   -0.0058 C.ar    1  LIG1        0.0917
      4 C           0.8798    3.8159   -0.1674 C.ar    1  LIG1        0.1928
      5 O          -0.1739    2.9338   -0.3251 O.2     1  LIG1       -0.4566
      6 H          -0.3923    0.8906   -0.3814 H       1  LIG1        0.1043
      7 N           3.3187   -0.2434    0.1148 N.1     1  LIG1       -0.1907
      8 C           2.5479    0.6152    0.0250 C.1     1  LIG1        0.1042
      9 N           3.3239    3.5086    0.2422 N.pl3   1  LIG1       -0.3540
     10 H           4.0476    2.8078    0.2085 H       1  LIG1        0.1425
     11 H           3.6151    4.4574    0.0625 H       1  LIG1        0.1425
     12 C           0.5192    5.1960   -0.1612 C.ar    1  LIG1        0.1917
     13 C           1.2410    6.3793   -0.2153 C.ar    1  LIG1        0.1219
     14 C           0.2886    7.4527   -0.1465 C.ar    1  LIG1        0.0925
     15 C          -0.9418    6.8413   -0.0736 C.ar    1  LIG1        0.1939
     16 O          -0.7870    5.4710   -0.0764 O.2     1  LIG1       -0.4453
     17 N           3.7776    6.6779   -0.5110 N.1     1  LIG1       -0.1907
     18 C           2.6339    6.5400   -0.3733 C.1     1  LIG1        0.1050
     19 N           0.5753    8.7779   -0.1271 N.pl3   1  LIG1       -0.3539
     20 H           1.4955    9.0818   -0.3988 H       1  LIG1        0.1425
     21 H          -0.1846    9.4345   -0.2144 H       1  LIG1        0.1425
     22 C          -2.2479    7.3854   -0.0181 C.ar    1  LIG1        0.1918
     23 C          -3.5131    6.8466    0.0649 C.ar    1  LIG1        0.1219
     24 C          -4.4371    7.9523    0.0827 C.ar    1  LIG1        0.0925
     25 C          -3.6634    9.0913   -0.0039 C.ar    1  LIG1        0.1938
     26 O          -2.3225    8.7233   -0.0613 O.2     1  LIG1       -0.4453
     27 N          -4.2815    4.3949    0.1757 N.1     1  LIG1       -0.1907
     28 C          -3.8936    5.4856    0.1270 C.1     1  LIG1        0.1050
     29 N          -5.7777    7.7974    0.2273 N.pl3   1  LIG1       -0.3539
     30 H          -6.4131    8.5465   -0.0027 H       1  LIG1        0.1425
     31 H          -6.1427    6.8624    0.1345 H       1  LIG1        0.1425
     32 C          -3.8994   10.4982   -0.0096 C.ar    1  LIG1        0.1907
     33 C          -5.0280   11.2859   -0.1420 C.ar    1  LIG1        0.1211
     34 C          -4.5909   12.6585   -0.0418 C.ar    1  LIG1        0.0812
     35 C          -3.2477   12.6030    0.1247 C.ar    1  LIG1        0.1146
     36 O          -2.8264   11.2885    0.1501 O.2     1  LIG1       -0.4565
     37 H          -2.4810   13.3481    0.2478 H       1  LIG1        0.1049
     38 N          -7.4324   10.5155   -0.6271 N.1     1  LIG1       -0.1907
     39 C          -6.3483   10.8636   -0.4007 C.1     1  LIG1        0.1049
     40 N          -5.4391   13.7519   -0.0599 N.pl3   1  LIG1       -0.3545
     41 H          -5.0023   14.6295   -0.2994 H       1  LIG1        0.1424
     42 H          -6.3003   13.6077   -0.5680 H       1  LIG1        0.1424
@<TRIPOS>BOND
     1    38    39    3
     2    42    40    1
     3    17    18    3
     4    39    33    1
     5    20    19    1
     6     6     1    1
     7    18    13    1
     8     5     1   ar
     9     5     4   ar
    10    41    40    1
    11     1     2   ar
    12    13    12   ar
    13    13    14   ar
    14    21    19    1
    15     4    12    1
    16     4     3   ar
    17    12    16   ar
    18    14    19    1
    19    14    15   ar
    20    33    34   ar
    21    33    32   ar
    22     2     3   ar
    23     2     8    1
    24    16    15   ar
    25    15    22    1
    26    26    22   ar
    27    26    25   ar
    28    40    34    1
    29    34    35   ar
    30    22    23   ar
    31    32    25    1
    32    32    36   ar
    33     3     9    1
    34    25    24   ar
    35    30    29    1
    36     8     7    3
    37    11     9    1
    38    23    24   ar
    39    23    28    1
    40    24    29    1
    41    35    36   ar
    42    35    37    1
    43    28    27    3
    44    31    29    1
    45    10     9    1
