@<TRIPOS>MOLECULE
mol_data/opt/cam/geoms/mol2/12di13fa13lh13eh-.out
 48 51 0 0 0
SMALL
GASTEIGER

@<TRIPOS>ATOM
      1 C           0.4385    2.0441   -1.5550 C.ar    1  LIG1        0.1102
      2 C           1.6382    1.7553   -0.9883 C.ar    1  LIG1        0.0929
      3 C           2.0449    2.9089   -0.2217 C.ar    1  LIG1        0.0142
      4 C           1.0480    3.8228   -0.4034 C.ar    1  LIG1        0.1586
      5 O           0.0666    3.2918   -1.2152 O.2     1  LIG1       -0.4598
      6 H          -0.2297    1.4858   -2.1905 H       1  LIG1        0.1043
      7 N           2.9466   -0.4569   -1.2092 N.1     1  LIG1       -0.1908
      8 C           2.3538    0.5323   -1.1155 C.1     1  LIG1        0.1026
      9 C           3.2841    2.9863    0.6083 C.3     1  LIG1       -0.0348
     10 H           3.4204    3.9824    1.0242 H       1  LIG1        0.0279
     11 H           4.1657    2.7402    0.0091 H       1  LIG1        0.0279
     12 H           3.2426    2.2637    1.4295 H       1  LIG1        0.0279
     13 C           0.7610    5.1675    0.0360 C.ar    1  LIG1        0.1248
     14 C           1.5245    6.2012    0.5460 C.ar    1  LIG1        0.1457
     15 C           0.6884    7.3209    0.7513 C.ar    1  LIG1        0.0075
     16 C          -0.5844    6.9586    0.3508 C.ar    1  LIG1        0.0706
     17 N          -0.5332    5.6572   -0.0622 N.ar    1  LIG1       -0.3476
     18 H          -1.2489    5.1757   -0.5816 H       1  LIG1        0.1661
     19 O           2.8595    6.1162    0.7962 O.3     1  LIG1       -0.5045
     20 H           3.1645    6.9611    1.1443 H       1  LIG1        0.2922
     21 H           0.9595    8.2794    1.1694 H       1  LIG1        0.0676
     22 C          -1.8013    7.7357    0.3523 C.ar    1  LIG1        0.1076
     23 C          -1.9724    9.1059    0.2868 C.ar    1  LIG1        0.1679
     24 C          -3.3594    9.4018    0.3043 C.ar    1  LIG1        0.0946
     25 C          -4.0229    8.1865    0.3775 C.ar    1  LIG1        0.0892
     26 N          -3.0574    7.1894    0.4120 N.ar    1  LIG1       -0.3474
     27 H          -3.2683    6.2062    0.4058 H       1  LIG1        0.1662
     28 O          -0.9884   10.0583    0.2358 O.3     1  LIG1       -0.4911
     29 C          -0.4523   10.2572   -1.0679 C.3     1  LIG1        0.0790
     30 H           0.2614   11.0793   -0.9933 H       1  LIG1        0.0660
     31 H           0.0647    9.3596   -1.4228 H       1  LIG1        0.0660
     32 H          -1.2395   10.5226   -1.7825 H       1  LIG1        0.0660
     33 N          -3.8905   10.6832    0.3550 N.pl3   1  LIG1       -0.3534
     34 H          -3.1877   11.3922    0.1990 H       1  LIG1        0.1425
     35 H          -4.7206   10.8257   -0.2060 H       1  LIG1        0.1425
     36 C          -5.4264    7.8729    0.4996 C.ar    1  LIG1        0.0822
     37 C          -6.5462    8.4481   -0.0915 C.ar    1  LIG1        0.0720
     38 C          -7.7019    7.7511    0.3991 C.ar    1  LIG1        0.0584
     39 C          -7.2551    6.7761    1.2492 C.ar    1  LIG1        0.0243
     40 N          -5.8693    6.8457    1.2827 N.ar    1  LIG1       -0.3569
     41 H          -5.3038    6.4209    1.9992 H       1  LIG1        0.1655
     42 H          -7.7954    6.0399    1.8224 H       1  LIG1        0.0826
     43 C          -6.5701    9.4742   -1.0670 C.1     1  LIG1       -0.0656
     44 C          -6.6254   10.3477   -1.8995 C.1     1  LIG1       -0.1138
     45 H          -6.6736   11.0987   -2.6537 H       1  LIG1        0.1232
     46 N          -9.0146    8.0749    0.0611 N.pl3   1  LIG1       -0.3559
     47 H          -9.0777    8.6009   -0.8003 H       1  LIG1        0.1424
     48 H          -9.6473    7.2878    0.0532 H       1  LIG1        0.1424
@<TRIPOS>BOND
     1    45    44    1
     2     6     1    1
     3    44    43    3
     4    32    29    1
     5     1     5   ar
     6     1     2   ar
     7    31    29    1
     8     5     4   ar
     9     7     8    3
    10     8     2    1
    11    29    30    1
    12    29    28    1
    13    43    37    1
    14     2     3   ar
    15    47    46    1
    16    18    17    1
    17     4     3   ar
    18     4    13    1
    19     3     9    1
    20    35    33    1
    21    37    38   ar
    22    37    36   ar
    23    17    13   ar
    24    17    16   ar
    25    11     9    1
    26    13    14   ar
    27    48    46    1
    28    46    38    1
    29    34    33    1
    30    28    23    1
    31    23    24   ar
    32    23    22   ar
    33    24    33    1
    34    24    25   ar
    35    16    22    1
    36    16    15   ar
    37    22    26   ar
    38    25    26   ar
    39    25    36    1
    40    38    39   ar
    41    27    26    1
    42    36    40   ar
    43    14    15   ar
    44    14    19    1
    45     9    10    1
    46     9    12    1
    47    15    21    1
    48    19    20    1
    49    39    40   ar
    50    39    42    1
    51    40    41    1
