@<TRIPOS>MOLECULE
mol_data/opt/cam/geoms/mol2/12di12ah-6he6hd-12fa-12fl-13da4ed.out
 89 96 0 0 0
SMALL
GASTEIGER

@<TRIPOS>ATOM
      1 C           0.8169    1.5559   -0.2354 C.ar    1  LIG1        0.1103
      2 C           2.1627    1.7372   -0.1382 C.ar    1  LIG1        0.0930
      3 C           2.4007    3.1565   -0.1747 C.ar    1  LIG1        0.0157
      4 C           1.1627    3.7142   -0.3004 C.ar    1  LIG1        0.1739
      5 O           0.1990    2.7432   -0.3364 O.2     1  LIG1       -0.4582
      6 H           0.1941    0.6759   -0.2406 H       1  LIG1        0.1043
      7 N           3.9651   -0.0916    0.1048 N.1     1  LIG1       -0.1908
      8 C           3.1471    0.7190   -0.0058 C.1     1  LIG1        0.1026
      9 C           3.7232    3.8419   -0.0805 C.3     1  LIG1       -0.0348
     10 H           3.6384    4.7799    0.4740 H       1  LIG1        0.0279
     11 H           4.1287    4.0731   -1.0709 H       1  LIG1        0.0279
     12 H           4.4504    3.2069    0.4294 H       1  LIG1        0.0279
     13 C           0.7107    5.0781   -0.4018 C.ar    1  LIG1        0.1727
     14 C           1.3403    6.2467   -0.7108 C.ar    1  LIG1        0.0086
     15 C           0.3485    7.2710   -0.6486 C.ar    1  LIG1        0.0718
     16 C          -0.8285    6.6577   -0.2980 C.ar    1  LIG1        0.1597
     17 O          -0.5977    5.3086   -0.1463 O.2     1  LIG1       -0.4497
     18 H           2.3782    6.3685   -0.9819 H       1  LIG1        0.0675
     19 N           0.5682    8.6272   -0.8758 N.pl3   1  LIG1       -0.3550
     20 H           1.3698    8.8095   -1.4637 H       1  LIG1        0.1424
     21 H          -0.2455    9.1198   -1.2213 H       1  LIG1        0.1424
     22 C          -3.3498    6.3888   -0.2886 C.ar    1  LIG1        0.1277
     23 C          -2.1713    7.1642   -0.0753 C.ar    1  LIG1        0.0598
     24 C          -2.3662    8.4656    0.3551 C.ar    1  LIG1       -0.0302
     25 C          -3.6429    9.0255    0.5082 C.ar    1  LIG1        0.0515
     26 C          -4.7442    8.2028    0.2042 C.ar    1  LIG1        0.0918
     27 N          -4.5625    6.9257   -0.1495 N.ar    1  LIG1       -0.2304
     28 H          -1.5060    9.0753    0.6095 H       1  LIG1        0.0639
     29 N          -3.3161    5.0894   -0.6646 N.pl3   1  LIG1       -0.3426
     30 H          -4.1995    4.5981   -0.7167 H       1  LIG1        0.1437
     31 H          -2.4576    4.5694   -0.6022 H       1  LIG1        0.1437
     32 C          -3.7363   10.3596    1.0128 C.1     1  LIG1       -0.0675
     33 C          -3.7487   11.4839    1.4461 C.1     1  LIG1       -0.1138
     34 H          -3.7803   12.4747    1.8374 H       1  LIG1        0.1232
     35 C          -7.2426    7.7776    0.5354 C.ar    1  LIG1        0.1263
     36 C          -6.1528    8.6616    0.2411 C.ar    1  LIG1        0.0424
     37 C          -6.5050    9.9580   -0.0715 C.ar    1  LIG1       -0.0296
     38 C          -7.8415   10.3767   -0.0767 C.ar    1  LIG1        0.0816
     39 C          -8.8402    9.4414    0.2695 C.ar    1  LIG1        0.1290
     40 N          -8.5152    8.1840    0.5608 N.ar    1  LIG1       -0.2273
     41 H          -5.7411   10.6725   -0.3472 H       1  LIG1        0.0639
     42 N          -7.0490    6.4792    0.8452 N.pl3   1  LIG1       -0.3426
     43 H          -7.8891    5.9336    0.9448 H       1  LIG1        0.1437
     44 H          -6.1881    6.0493    0.5290 H       1  LIG1        0.1437
     45 N          -8.4657   12.7618   -0.8357 N.1     1  LIG1       -0.1908
     46 C          -8.1633   11.6916   -0.5018 C.1     1  LIG1        0.1014
     47 C         -10.2672    9.7269    0.2929 C.ar    1  LIG1        0.1964
     48 C         -11.1062   10.8119    0.4928 C.ar    1  LIG1        0.1649
     49 C         -12.4404   10.3176    0.4723 C.ar    1  LIG1        0.0297
     50 C         -12.3364    8.9753    0.2589 C.ar    1  LIG1        0.1781
     51 O         -11.0498    8.6055    0.1520 O.2     1  LIG1       -0.4462
     52 O         -10.8582   12.1042    0.7521 O.3     1  LIG1       -0.5031
     53 H         -10.0334   12.4127    0.3424 H       1  LIG1        0.2923
     54 H         -13.3406   10.8978    0.5991 H       1  LIG1        0.0693
     55 C         -13.3016    7.9242    0.1114 C.ar    1  LIG1        0.2157
     56 C         -14.6658    7.8837    0.0921 C.ar    1  LIG1        0.2092
     57 C         -15.0399    6.5222   -0.1108 C.ar    1  LIG1        0.2099
     58 C         -13.8762    5.8068   -0.2043 C.ar    1  LIG1        0.1984
     59 O         -12.8214    6.6582   -0.0722 O.2     1  LIG1       -0.4426
     60 O         -15.5100    8.9275    0.2411 O.3     1  LIG1       -0.5007
     61 H         -16.3778    8.5735    0.4801 H       1  LIG1        0.2924
     62 O         -16.3206    6.0813   -0.1137 O.3     1  LIG1       -0.4884
     63 C         -17.0187    6.2817   -1.3501 C.3     1  LIG1        0.0791
     64 H         -18.0353    5.9285   -1.1851 H       1  LIG1        0.0660
     65 H         -17.0266    7.3419   -1.6248 H       1  LIG1        0.0660
     66 H         -16.5640    5.6936   -2.1495 H       1  LIG1        0.0660
     67 C         -13.5058    4.4221   -0.3260 C.ar    1  LIG1        0.1039
     68 C         -14.1981    3.2593   -0.6563 C.ar    1  LIG1        0.0807
     69 C         -13.2803    2.1796   -0.5737 C.ar    1  LIG1       -0.0182
     70 C         -12.0570    2.6924   -0.2084 C.ar    1  LIG1        0.0495
     71 N         -12.2184    4.0565   -0.0761 N.ar    1  LIG1       -0.3506
     72 H         -11.5265    4.7150    0.2501 H       1  LIG1        0.1660
     73 N         -16.6510    3.0388   -1.4154 N.1     1  LIG1       -0.1908
     74 C         -15.5552    3.1541   -1.0592 C.1     1  LIG1        0.1014
     75 H         -13.5028    1.1478   -0.7871 H       1  LIG1        0.0652
     76 C         -10.6221    0.7285    0.4558 C.ar    1  LIG1        0.0338
     77 C          -9.3488    0.1736    0.6338 C.ar    1  LIG1       -0.0445
     78 C         -10.7531    2.0579   -0.0106 C.ar    1  LIG1        0.0149
     79 C          -8.2035    0.9021    0.3802 C.ar    1  LIG1       -0.0432
     80 H          -9.2758   -0.8462    0.9921 H       1  LIG1        0.0630
     81 C          -9.5856    2.7796   -0.2756 C.ar    1  LIG1       -0.0341
     82 C          -8.3260    2.2168   -0.0752 C.ar    1  LIG1        0.0525
     83 H          -9.6523    3.7865   -0.6730 H       1  LIG1        0.0637
     84 H          -7.2235    0.4659    0.5312 H       1  LIG1        0.0631
     85 C         -11.7467   -0.0905    0.7877 C.1     1  LIG1       -0.0690
     86 C         -12.6436   -0.8334    1.0920 C.1     1  LIG1       -0.1139
     87 H         -13.4527   -1.4741    1.3609 H       1  LIG1        0.1232
     88 N          -6.1653    3.5765   -0.5191 N.1     1  LIG1       -0.1909
     89 C          -7.1384    2.9806   -0.3343 C.1     1  LIG1        0.0992
@<TRIPOS>BOND
     1    66    63    1
     2    65    63    1
     3    20    19    1
     4    73    74    3
     5    63    64    1
     6    63    62    1
     7    21    19    1
     8    11     9    1
     9    74    68    1
    10    18    14    1
    11    19    15    1
    12    45    46    3
    13    75    69    1
    14    30    29    1
    15    14    15   ar
    16    14    13   ar
    17    83    81    1
    18    29    31    1
    19    29    22    1
    20    68    69   ar
    21    68    67   ar
    22    15    16   ar
    23    69    70   ar
    24    88    89    3
    25    46    38    1
    26    13     4    1
    27    13    17   ar
    28    41    37    1
    29     5     4   ar
    30     5     1   ar
    31    89    82    1
    32    67    58    1
    33    67    71   ar
    34     4     3   ar
    35    16    17   ar
    36    16    23    1
    37    22    27   ar
    38    22    23   ar
    39    81    82   ar
    40    81    78   ar
    41     6     1    1
    42     1     2   ar
    43    70    71   ar
    44    70    78    1
    45    58    57   ar
    46    58    59   ar
    47     3     2   ar
    48     3     9    1
    49    27    26   ar
    50     2     8    1
    51    62    57    1
    52    57    56   ar
    53     9    12    1
    54     9    10    1
    55    38    37   ar
    56    38    39   ar
    57    71    72    1
    58    23    24   ar
    59    82    79   ar
    60    59    55   ar
    61    37    36   ar
    62    78    76   ar
    63     8     7    3
    64    56    55   ar
    65    56    60    1
    66    55    50    1
    67    51    50   ar
    68    51    47   ar
    69    26    36    1
    70    26    25   ar
    71    60    61    1
    72    36    35   ar
    73    50    49   ar
    74    39    47    1
    75    39    40   ar
    76    47    48   ar
    77    53    52    1
    78    24    25   ar
    79    24    28    1
    80    79    84    1
    81    79    77   ar
    82    76    77   ar
    83    76    85    1
    84    49    48   ar
    85    49    54    1
    86    48    52    1
    87    25    32    1
    88    44    42    1
    89    35    40   ar
    90    35    42    1
    91    77    80    1
    92    85    86    3
    93    42    43    1
    94    32    33    3
    95    86    87    1
    96    33    34    1
