@<TRIPOS>MOLECULE
mol_data/opt/cam/geoms/mol2/12di6ia-12df-6hf.out
 46 49 0 0 0
SMALL
GASTEIGER

@<TRIPOS>ATOM
      1 C           0.6984    1.6887   -1.0915 C.ar    1  LIG1        0.1102
      2 C           1.8359    1.7185   -0.3456 C.ar    1  LIG1        0.0929
      3 C           2.0139    3.0803    0.0910 C.ar    1  LIG1        0.0127
      4 C           0.9602    3.7659   -0.4358 C.ar    1  LIG1        0.1407
      5 O           0.1585    2.9136   -1.1546 O.2     1  LIG1       -0.4613
      6 H           0.1832    0.8960   -1.6103 H       1  LIG1        0.1043
      7 N           3.3762   -0.2706    0.2224 N.1     1  LIG1       -0.1908
      8 C           2.6789    0.6144   -0.0403 C.1     1  LIG1        0.1026
      9 C           3.1205    3.5777    0.9625 C.3     1  LIG1       -0.0349
     10 H           2.8664    4.5370    1.4160 H       1  LIG1        0.0279
     11 H           4.0491    3.7050    0.3973 H       1  LIG1        0.0279
     12 H           3.3278    2.8642    1.7639 H       1  LIG1        0.0279
     13 C          -0.7577    5.5948   -0.1668 C.ar    1  LIG1        0.0497
     14 C           0.5731    5.1765   -0.3857 C.ar    1  LIG1        0.0386
     15 C           1.5467    6.1616   -0.5398 C.ar    1  LIG1       -0.0472
     16 C           1.2039    7.5006   -0.4747 C.ar    1  LIG1       -0.0319
     17 C          -0.1358    7.8166   -0.2606 C.ar    1  LIG1        0.1077
     18 N          -1.0838    6.8818   -0.1111 N.ar    1  LIG1       -0.2480
     19 H           2.5747    5.8757   -0.7331 H       1  LIG1        0.0626
     20 C          -1.8849    4.6201    0.0332 C.3     1  LIG1       -0.0216
     21 H          -1.6129    3.8351    0.7433 H       1  LIG1        0.0293
     22 H          -2.1496    4.1265   -0.9050 H       1  LIG1        0.0293
     23 H          -2.7550    5.1598    0.4045 H       1  LIG1        0.0293
     24 H           1.9537    8.2713   -0.5991 H       1  LIG1        0.0640
     25 C          -0.5963    9.2009   -0.1769 C.ar    1  LIG1        0.1748
     26 C           0.0354   10.4210   -0.0845 C.ar    1  LIG1        0.1409
     27 C          -0.9998   11.4026    0.0106 C.ar    1  LIG1        0.1812
     28 C          -2.1901   10.7338   -0.0457 C.ar    1  LIG1        0.1817
     29 O          -1.9249    9.3951   -0.1553 O.2     1  LIG1       -0.4480
     30 N           2.5713   10.8696   -0.0261 N.1     1  LIG1       -0.1906
     31 C           1.4303   10.6773   -0.0493 C.1     1  LIG1        0.1067
     32 O          -0.7509   12.7209    0.1447 O.3     1  LIG1       -0.5023
     33 H          -1.5400   13.1648    0.4823 H       1  LIG1        0.2923
     34 C          -4.6144   10.3836    0.5599 C.ar    1  LIG1        0.1272
     35 C          -3.5731   11.1772    0.0053 C.ar    1  LIG1        0.0639
     36 C          -3.9037   12.4431   -0.4707 C.ar    1  LIG1       -0.0046
     37 C          -5.2060   12.9120   -0.3590 C.ar    1  LIG1        0.1357
     38 C          -6.1455   12.0682    0.2143 C.ar    1  LIG1        0.0711
     39 N          -5.8618   10.8422    0.6453 N.ar    1  LIG1       -0.2364
     40 H          -3.1627   13.0649   -0.9631 H       1  LIG1        0.0663
     41 H          -7.1812   12.3912    0.3221 H       1  LIG1        0.0867
     42 N          -4.3907    9.1319    1.0788 N.pl3   1  LIG1       -0.3426
     43 H          -5.2383    8.6321    1.2987 H       1  LIG1        0.1437
     44 H          -3.6228    8.5841    0.7226 H       1  LIG1        0.1437
     45 O          -5.4899   14.1611   -0.8260 O.3     1  LIG1       -0.5052
     46 H          -6.4314   14.3381   -0.7143 H       1  LIG1        0.2922
@<TRIPOS>BOND
     1     6     1    1
     2     5     1   ar
     3     5     4   ar
     4     1     2   ar
     5    40    36    1
     6    22    20    1
     7    45    46    1
     8    45    37    1
     9    19    15    1
    10    24    16    1
    11    15    16   ar
    12    15    14   ar
    13    16    17   ar
    14    36    37   ar
    15    36    35   ar
    16     4    14    1
    17     4     3   ar
    18    14    13   ar
    19    37    38   ar
    20     2     8    1
    21     2     3   ar
    22    17    25    1
    23    17    18   ar
    24    25    29   ar
    25    25    26   ar
    26    13    18   ar
    27    13    20    1
    28    29    28   ar
    29    26    31    1
    30    26    27   ar
    31    31    30    3
    32    28    35    1
    33    28    27   ar
    34     8     7    3
    35    35    34   ar
    36    27    32    1
    37    20    23    1
    38    20    21    1
    39     3     9    1
    40    32    33    1
    41    38    41    1
    42    38    39   ar
    43    11     9    1
    44    34    39   ar
    45    34    42    1
    46    44    42    1
    47     9    10    1
    48     9    12    1
    49    42    43    1
