@<TRIPOS>MOLECULE
mol_data/opt/cam/geoms/mol2/12di13af-13ei-13fd-.out
 45 48 0 0 0
SMALL
GASTEIGER

@<TRIPOS>ATOM
      1 C           0.3652    1.7917    0.6895 C.ar    1  LIG1        0.1102
      2 C           1.6672    1.7464    0.2985 C.ar    1  LIG1        0.0929
      3 C           2.0362    3.0754   -0.1165 C.ar    1  LIG1        0.0141
      4 C           0.9097    3.8233    0.0589 C.ar    1  LIG1        0.1551
      5 O          -0.1082    3.0443    0.5494 O.2     1  LIG1       -0.4599
      6 H          -0.3151    1.0467    1.0688 H       1  LIG1        0.1043
      7 N           3.2102   -0.3206    0.2976 N.1     1  LIG1       -0.1908
      8 C           2.5082    0.5989    0.3023 C.1     1  LIG1        0.1026
      9 C           3.3705    3.5146   -0.6231 C.3     1  LIG1       -0.0348
     10 H           3.7747    4.3323   -0.0190 H       1  LIG1        0.0279
     11 H           3.3089    3.8676   -1.6570 H       1  LIG1        0.0279
     12 H           4.0833    2.6887   -0.5932 H       1  LIG1        0.0279
     13 C           0.5935    5.2121   -0.1529 C.ar    1  LIG1        0.0864
     14 C           1.3630    6.2588   -0.6204 C.ar    1  LIG1        0.0089
     15 C           0.5619    7.4223   -0.5717 C.ar    1  LIG1        0.1442
     16 C          -0.6874    7.0675   -0.0778 C.ar    1  LIG1        0.1066
     17 N          -0.6485    5.7007    0.1512 N.ar    1  LIG1       -0.3476
     18 H          -1.3158    5.1950    0.7109 H       1  LIG1        0.1661
     19 H           2.3782    6.2131   -0.9805 H       1  LIG1        0.0676
     20 O           0.9903    8.6202   -1.0196 O.3     1  LIG1       -0.5046
     21 H           0.4786    9.3363   -0.6093 H       1  LIG1        0.2922
     22 C          -1.9035    7.8219    0.0917 C.ar    1  LIG1        0.0828
     23 C          -2.1231    9.1632    0.3759 C.ar    1  LIG1        0.0550
     24 C          -3.5392    9.3909    0.3993 C.ar    1  LIG1       -0.0076
     25 C          -4.1363    8.1850    0.1340 C.ar    1  LIG1        0.0711
     26 N          -3.1363    7.2309   -0.0245 N.ar    1  LIG1       -0.3505
     27 H          -3.2769    6.3651   -0.5221 H       1  LIG1        0.1660
     28 C          -1.1158   10.1214    0.6558 C.1     1  LIG1       -0.0672
     29 C          -0.2499   10.9326    0.8810 C.1     1  LIG1       -0.1138
     30 H           0.5049   11.6485    1.1134 H       1  LIG1        0.1232
     31 C          -4.2150   10.6900    0.6898 C.3     1  LIG1       -0.0365
     32 H          -5.1931   10.5279    1.1477 H       1  LIG1        0.0279
     33 H          -4.3795   11.2650   -0.2261 H       1  LIG1        0.0279
     34 H          -3.6095   11.2995    1.3644 H       1  LIG1        0.0279
     35 C          -5.5372    7.8289    0.0310 C.ar    1  LIG1        0.1065
     36 C          -6.5809    8.4427   -0.6216 C.ar    1  LIG1        0.1609
     37 C          -7.7566    7.6609   -0.4054 C.ar    1  LIG1        0.1110
     38 C          -7.3906    6.5797    0.3748 C.ar    1  LIG1        0.0233
     39 N          -6.0667    6.6869    0.6227 N.ar    1  LIG1       -0.3554
     40 H          -5.5482    6.0957    1.2516 H       1  LIG1        0.1655
     41 H          -7.9890    5.7681    0.7569 H       1  LIG1        0.0821
     42 O          -6.4750    9.5751   -1.3514 O.3     1  LIG1       -0.5034
     43 H          -7.3369    9.7934   -1.7295 H       1  LIG1        0.2923
     44 N         -10.0469    8.2848   -1.4019 N.1     1  LIG1       -0.1907
     45 C          -9.0343    7.9692   -0.9356 C.1     1  LIG1        0.1043
@<TRIPOS>BOND
     1    43    42    1
     2    11     9    1
     3    44    45    3
     4    42    36    1
     5    20    21    1
     6    20    15    1
     7    19    14    1
     8    45    37    1
     9     9    12    1
    10     9     3    1
    11     9    10    1
    12    36    37   ar
    13    36    35   ar
    14    14    15   ar
    15    14    13   ar
    16    15    16   ar
    17    27    26    1
    18    37    38   ar
    19    33    31    1
    20    13     4    1
    21    13    17   ar
    22     3     4   ar
    23     3     2   ar
    24    16    22    1
    25    16    17   ar
    26    26    22   ar
    27    26    25   ar
    28    35    25    1
    29    35    39   ar
    30     4     5   ar
    31    22    23   ar
    32    25    24   ar
    33    17    18    1
    34     7     8    3
    35     2     8    1
    36     2     1   ar
    37    38    39   ar
    38    38    41    1
    39    23    24   ar
    40    23    28    1
    41    24    31    1
    42     5     1   ar
    43    39    40    1
    44    28    29    3
    45     1     6    1
    46    31    32    1
    47    31    34    1
    48    29    30    1
