@<TRIPOS>MOLECULE
mol_data/opt/cam/geoms/mol2/12dl12dl-4af-13hh.out
 49 52 0 0 0
SMALL
GASTEIGER

@<TRIPOS>ATOM
      1 C           0.4452    1.4363   -0.5695 C.ar    1  LIG1        0.1138
      2 C           1.7200    1.4645   -0.0854 C.ar    1  LIG1        0.1317
      3 C           2.0160    2.8556    0.1533 C.ar    1  LIG1        0.1862
      4 C           0.8999    3.5483   -0.2252 C.ar    1  LIG1        0.2137
      5 O          -0.0612    2.6715   -0.6541 O.2     1  LIG1       -0.4546
      6 H          -0.1931    0.6231   -0.8768 H       1  LIG1        0.1044
      7 N           3.2152   -0.5831    0.3797 N.1     1  LIG1       -0.1906
      8 C           2.5416    0.3338    0.1699 C.1     1  LIG1        0.1060
      9 O           3.0951    3.4059    0.7263 O.3     1  LIG1       -0.4900
     10 C           4.3718    3.0724    0.1690 C.3     1  LIG1        0.0790
     11 H           5.1016    3.6351    0.7473 H       1  LIG1        0.0660
     12 H           4.5727    2.0022    0.2575 H       1  LIG1        0.0660
     13 H           4.4241    3.3881   -0.8758 H       1  LIG1        0.0660
     14 C           0.5826    4.9492   -0.2343 C.ar    1  LIG1        0.1953
     15 C           1.3566    6.0811   -0.3016 C.ar    1  LIG1        0.1428
     16 C           0.4371    7.1871   -0.2559 C.ar    1  LIG1        0.1838
     17 C          -0.8214    6.6608   -0.1772 C.ar    1  LIG1        0.1787
     18 O          -0.7176    5.2926   -0.1661 O.2     1  LIG1       -0.4465
     19 N           3.9021    6.2403   -0.6588 N.1     1  LIG1       -0.1906
     20 C           2.7604    6.1524   -0.4879 C.1     1  LIG1        0.1068
     21 O           0.7401    8.5013   -0.3477 O.3     1  LIG1       -0.4901
     22 C           1.5992    9.0081    0.6749 C.3     1  LIG1        0.0790
     23 H           1.7055   10.0744    0.4787 H       1  LIG1        0.0660
     24 H           1.1535    8.8580    1.6632 H       1  LIG1        0.0660
     25 H           2.5841    8.5353    0.6388 H       1  LIG1        0.0660
     26 C          -2.3683    8.6060   -0.2248 C.ar    1  LIG1       -0.0501
     27 C          -3.6526    9.1179   -0.1612 C.ar    1  LIG1       -0.0484
     28 C          -2.1570    7.2290   -0.1202 C.ar    1  LIG1        0.0245
     29 C          -4.7860    8.3046   -0.0064 C.ar    1  LIG1        0.0416
     30 H          -3.7959   10.1908   -0.2069 H       1  LIG1        0.0625
     31 C          -3.2667    6.3968    0.0540 C.ar    1  LIG1       -0.0087
     32 C          -4.5456    6.9211    0.1113 C.ar    1  LIG1        0.1267
     33 H          -3.1242    5.3238    0.1428 H       1  LIG1        0.0661
     34 H          -1.5236    9.2703   -0.3548 H       1  LIG1        0.0625
     35 O          -5.6256    6.0901    0.2899 O.3     1  LIG1       -0.5061
     36 H          -5.3173    5.1788    0.3480 H       1  LIG1        0.2922
     37 C          -6.1160    8.8938    0.0367 C.ar    1  LIG1        0.0728
     38 C          -6.5490   10.1642   -0.3272 C.ar    1  LIG1        0.0712
     39 C          -7.9339   10.2517   -0.0332 C.ar    1  LIG1        0.0637
     40 C          -8.3187    9.0364    0.4923 C.ar    1  LIG1        0.0249
     41 N          -7.2300    8.2275    0.5204 N.ar    1  LIG1       -0.3575
     42 H          -7.2051    7.2549    0.7773 H       1  LIG1        0.1654
     43 H          -9.2875    8.6934    0.8241 H       1  LIG1        0.0826
     44 N          -5.8203   11.2319   -0.8712 N.pl3   1  LIG1       -0.3549
     45 H          -5.2340   10.9496   -1.6485 H       1  LIG1        0.1424
     46 H          -6.4787   11.9415   -1.1811 H       1  LIG1        0.1424
     47 N          -8.6901   11.4248   -0.3095 N.pl3   1  LIG1       -0.3554
     48 H          -9.6084   11.2069   -0.6778 H       1  LIG1        0.1424
     49 H          -8.8136   12.0026    0.5157 H       1  LIG1        0.1424
@<TRIPOS>BOND
     1    45    44    1
     2    46    44    1
     3     6     1    1
     4    13    10    1
     5    44    38    1
     6    48    47    1
     7    19    20    3
     8     5     1   ar
     9     5     4   ar
    10     1     2   ar
    11    20    15    1
    12    34    26    1
    13    21    16    1
    14    21    22    1
    15    38    39   ar
    16    38    37   ar
    17    47    39    1
    18    47    49    1
    19    15    16   ar
    20    15    14   ar
    21    16    17   ar
    22    14     4    1
    23    14    18   ar
    24     4     3   ar
    25    26    27   ar
    26    26    28   ar
    27    30    27    1
    28    17    18   ar
    29    17    28    1
    30    27    29   ar
    31    28    31   ar
    32     2     3   ar
    33     2     8    1
    34    39    40   ar
    35    29    37    1
    36    29    32   ar
    37    37    41   ar
    38    31    32   ar
    39    31    33    1
    40    32    35    1
    41     3     9    1
    42    10    12    1
    43    10     9    1
    44    10    11    1
    45     8     7    3
    46    35    36    1
    47    23    22    1
    48    40    41   ar
    49    40    43    1
    50    41    42    1
    51    25    22    1
    52    22    24    1
