@<TRIPOS>MOLECULE
mol_data/opt/cam/geoms/mol2/12dl12hf-13hi-13fl-.out
 50 53 0 0 0
SMALL
GASTEIGER

@<TRIPOS>ATOM
      1 C           0.0657    1.5058   -0.2063 C.ar    1  LIG1        0.1138
      2 C           1.4159    1.4501   -0.3633 C.ar    1  LIG1        0.1317
      3 C           1.8639    2.8169   -0.4175 C.ar    1  LIG1        0.1862
      4 C           0.7491    3.5987   -0.2820 C.ar    1  LIG1        0.2143
      5 O          -0.3447    2.7872   -0.1603 O.2     1  LIG1       -0.4546
      6 H          -0.6933    0.7455   -0.1207 H       1  LIG1        0.1044
      7 N           2.8873   -0.6590   -0.5347 N.1     1  LIG1       -0.1906
      8 C           2.2169    0.2814   -0.4633 C.1     1  LIG1        0.1060
      9 O           3.1398    3.2419   -0.6279 O.3     1  LIG1       -0.4900
     10 C           4.0250    3.0306    0.4765 C.3     1  LIG1        0.0790
     11 H           5.0106    3.3586    0.1462 H       1  LIG1        0.0660
     12 H           3.7084    3.6247    1.3389 H       1  LIG1        0.0660
     13 H           4.0694    1.9715    0.7449 H       1  LIG1        0.0660
     14 C           0.5257    5.0143   -0.2564 C.ar    1  LIG1        0.1986
     15 C           1.3705    6.0945   -0.3101 C.ar    1  LIG1        0.1170
     16 C           0.5333    7.2500   -0.2341 C.ar    1  LIG1        0.1861
     17 C          -0.7552    6.8053   -0.1370 C.ar    1  LIG1        0.1968
     18 O          -0.7773    5.4382   -0.1486 O.2     1  LIG1       -0.4443
     19 N           2.7482    6.1519   -0.3667 N.pl3   1  LIG1       -0.3521
     20 H           3.1863    5.3522   -0.8035 H       1  LIG1        0.1425
     21 H           3.0899    7.0455   -0.6914 H       1  LIG1        0.1425
     22 O           1.0244    8.4998   -0.2773 O.3     1  LIG1       -0.5019
     23 H           0.2562    9.1289   -0.2045 H       1  LIG1        0.2924
     24 C          -2.0190    7.4831   -0.0490 C.ar    1  LIG1        0.1075
     25 C          -2.3310    8.8298   -0.0150 C.ar    1  LIG1        0.0570
     26 C          -3.7457    8.9613    0.0656 C.ar    1  LIG1       -0.0023
     27 C          -4.2606    7.6795    0.0674 C.ar    1  LIG1        0.0719
     28 N          -3.2009    6.7982    0.0128 N.ar    1  LIG1       -0.3487
     29 H          -3.2752    5.8028   -0.1239 H       1  LIG1        0.1661
     30 N          -1.3474    9.8750   -0.0344 N.pl3   1  LIG1       -0.3560
     31 H          -1.5212   10.5211   -0.8002 H       1  LIG1        0.1424
     32 H          -1.3786   10.4227    0.8225 H       1  LIG1        0.1424
     33 C          -4.5179   10.2382    0.1603 C.3     1  LIG1       -0.0359
     34 H          -5.3931   10.1189    0.8032 H       1  LIG1        0.0279
     35 H          -4.8893   10.5665   -0.8150 H       1  LIG1        0.0279
     36 H          -3.9000   11.0409    0.5743 H       1  LIG1        0.0279
     37 C          -5.6252    7.2044    0.1450 C.ar    1  LIG1        0.1090
     38 C          -6.7828    7.6697   -0.4316 C.ar    1  LIG1        0.1858
     39 C          -7.8415    6.8090   -0.0383 C.ar    1  LIG1        0.1793
     40 C          -7.3195    5.8263    0.7626 C.ar    1  LIG1        0.0482
     41 N          -5.9611    6.0518    0.8414 N.ar    1  LIG1       -0.3535
     42 H          -5.3854    5.6895    1.5839 H       1  LIG1        0.1656
     43 H          -7.7853    4.9925    1.2612 H       1  LIG1        0.0845
     44 O          -6.9060    8.7274   -1.2785 O.3     1  LIG1       -0.5019
     45 H          -7.8320    8.7628   -1.5527 H       1  LIG1        0.2924
     46 O          -9.1015    7.0249   -0.5036 O.3     1  LIG1       -0.4900
     47 C         -10.0677    6.0901   -0.0756 C.3     1  LIG1        0.0790
     48 H         -11.0163    6.3824   -0.5253 H       1  LIG1        0.0660
     49 H          -9.8054    5.0763   -0.4027 H       1  LIG1        0.0660
     50 H         -10.1652    6.0974    1.0171 H       1  LIG1        0.0660
@<TRIPOS>BOND
     1    45    44    1
     2    44    38    1
     3    35    33    1
     4    20    19    1
     5    31    30    1
     6    21    19    1
     7     9     3    1
     8     9    10    1
     9     7     8    3
    10    48    47    1
    11    46    47    1
    12    46    39    1
    13     8     2    1
    14    38    39   ar
    15    38    37   ar
    16     3     2   ar
    17     3     4   ar
    18    49    47    1
    19    19    15    1
    20     2     1   ar
    21    15    14   ar
    22    15    16   ar
    23     4    14    1
    24     4     5   ar
    25    22    16    1
    26    22    23    1
    27    14    18   ar
    28    16    17   ar
    29     1     5   ar
    30     1     6    1
    31    18    17   ar
    32    17    24    1
    33    29    28    1
    34    47    50    1
    35    24    25   ar
    36    24    28   ar
    37    39    40   ar
    38    30    25    1
    39    30    32    1
    40    25    26   ar
    41    28    27   ar
    42    26    27   ar
    43    26    33    1
    44    27    37    1
    45    37    41   ar
    46    11    10    1
    47    33    36    1
    48    33    34    1
    49    10    13    1
    50    10    12    1
    51    40    41   ar
    52    40    43    1
    53    41    42    1
