@<TRIPOS>MOLECULE
mol_data/opt/cam/geoms/mol2/12dl12ai-6fa-12lf.out
 46 49 0 0 0
SMALL
GASTEIGER

@<TRIPOS>ATOM
      1 C           0.5473    1.4362   -0.6504 C.ar    1  LIG1        0.1138
      2 C           1.9044    1.5007   -0.4979 C.ar    1  LIG1        0.1317
      3 C           2.1934    2.8765   -0.1758 C.ar    1  LIG1        0.1862
      4 C           0.9881    3.5222   -0.1628 C.ar    1  LIG1        0.2123
      5 O          -0.0102    2.6341   -0.4516 O.2     1  LIG1       -0.4547
      6 H          -0.1118    0.6183   -0.8929 H       1  LIG1        0.1044
      7 N           3.4811   -0.5225   -0.7635 N.1     1  LIG1       -0.1906
      8 C           2.7803    0.3902   -0.6427 C.1     1  LIG1        0.1060
      9 O           3.3509    3.5083    0.0849 O.3     1  LIG1       -0.4900
     10 C           4.5629    2.7744   -0.0360 C.3     1  LIG1        0.0790
     11 H           5.3611    3.4825    0.1818 H       1  LIG1        0.0660
     12 H           4.6019    1.9497    0.6808 H       1  LIG1        0.0660
     13 H           4.6902    2.3819   -1.0489 H       1  LIG1        0.0660
     14 C           0.6393    4.8894    0.0992 C.ar    1  LIG1        0.1745
     15 C           1.3607    5.9778    0.4761 C.ar    1  LIG1       -0.0091
     16 C           0.4434    7.0674    0.5990 C.ar    1  LIG1       -0.0038
     17 C          -0.7895    6.5705    0.2717 C.ar    1  LIG1        0.1438
     18 O          -0.6704    5.2334   -0.0360 O.2     1  LIG1       -0.4512
     19 H           2.4237    5.9945    0.6619 H       1  LIG1        0.0659
     20 C           0.8000    8.4516    1.0426 C.3     1  LIG1       -0.0361
     21 H          -0.0090    8.9090    1.6167 H       1  LIG1        0.0279
     22 H           1.0207    9.1104    0.1958 H       1  LIG1        0.0279
     23 H           1.6898    8.4291    1.6757 H       1  LIG1        0.0279
     24 C          -3.3071    6.3637    0.3834 C.ar    1  LIG1        0.2239
     25 C          -2.1296    7.1367    0.2038 C.ar    1  LIG1        0.0788
     26 C          -2.3210    8.5024   -0.0122 C.ar    1  LIG1       -0.0438
     27 C          -3.5878    9.0555   -0.0036 C.ar    1  LIG1       -0.0316
     28 C          -4.6694    8.1994    0.2170 C.ar    1  LIG1        0.1136
     29 N          -4.5185    6.8836    0.3957 N.ar    1  LIG1       -0.2092
     30 H          -1.4621    9.1359   -0.1996 H       1  LIG1        0.0627
     31 O          -3.2787    5.0315    0.5605 O.3     1  LIG1       -0.4919
     32 H          -2.3799    4.6996    0.4206 H       1  LIG1        0.2938
     33 H          -3.7499   10.1131   -0.1593 H       1  LIG1        0.0640
     34 C          -6.0346    8.7110    0.2494 C.ar    1  LIG1        0.1982
     35 C          -6.5687    9.9531    0.0221 C.ar    1  LIG1        0.2092
     36 C          -7.9803    9.8302    0.2204 C.ar    1  LIG1        0.1979
     37 C          -8.2020    8.5310    0.5488 C.ar    1  LIG1        0.1378
     38 O          -7.0311    7.8495    0.5759 O.2     1  LIG1       -0.4538
     39 H          -9.0929    7.9732    0.7898 H       1  LIG1        0.1069
     40 O          -5.8736   11.0804   -0.2753 O.3     1  LIG1       -0.4884
     41 C          -6.3243   11.7791   -1.4339 C.3     1  LIG1        0.0791
     42 H          -5.6726   12.6466   -1.5392 H       1  LIG1        0.0660
     43 H          -6.2380   11.1475   -2.3248 H       1  LIG1        0.0660
     44 H          -7.3596   12.1075   -1.3184 H       1  LIG1        0.0660
     45 O          -8.8467   10.8700    0.0879 O.3     1  LIG1       -0.5012
     46 H          -9.7429   10.5658    0.2717 H       1  LIG1        0.2924
@<TRIPOS>BOND
     1    43    41    1
     2    42    41    1
     3    41    44    1
     4    41    40    1
     5    13    10    1
     6     6     1    1
     7     7     8    3
     8     1     2   ar
     9     1     5   ar
    10     8     2    1
    11     2     3   ar
    12     5     4   ar
    13    40    35    1
    14    30    26    1
    15     3     4   ar
    16     3     9    1
    17     4    14    1
    18    33    27    1
    19    18    14   ar
    20    18    17   ar
    21    10     9    1
    22    10    11    1
    23    10    12    1
    24    26    27   ar
    25    26    25   ar
    26    27    28   ar
    27    35    36   ar
    28    35    34   ar
    29    45    36    1
    30    45    46    1
    31    14    15   ar
    32    22    20    1
    33    25    17    1
    34    25    24   ar
    35    28    34    1
    36    28    29   ar
    37    36    37   ar
    38    34    38   ar
    39    17    16   ar
    40    24    29   ar
    41    24    31    1
    42    32    31    1
    43    15    16   ar
    44    15    19    1
    45    37    38   ar
    46    37    39    1
    47    16    20    1
    48    20    21    1
    49    20    23    1
