@<TRIPOS>MOLECULE
mol_data/opt/cam/geoms/mol2/12dl6le-12ee13ad-.out
 49 52 0 0 0
SMALL
GASTEIGER

@<TRIPOS>ATOM
      1 C           0.2393    1.5424    0.0235 C.ar    1  LIG1        0.1137
      2 C           1.6012    1.6162    0.0956 C.ar    1  LIG1        0.1316
      3 C           1.9050    3.0243    0.1355 C.ar    1  LIG1        0.1832
      4 C           0.7054    3.6846    0.0800 C.ar    1  LIG1        0.1826
      5 O          -0.3028    2.7588    0.0196 O.2     1  LIG1       -0.4576
      6 H          -0.4337    0.7013   -0.0277 H       1  LIG1        0.1044
      7 N           3.1772   -0.4223    0.1835 N.1     1  LIG1       -0.1906
      8 C           2.4744    0.4961    0.1426 C.1     1  LIG1        0.1060
      9 O           3.0922    3.6489    0.2466 O.3     1  LIG1       -0.4901
     10 C           4.2487    2.9822   -0.2528 C.3     1  LIG1        0.0790
     11 H           5.0454    3.7249   -0.2471 H       1  LIG1        0.0660
     12 H           4.5299    2.1411    0.3848 H       1  LIG1        0.0660
     13 H           4.0863    2.6283   -1.2752 H       1  LIG1        0.0660
     14 C          -0.8051    5.6583   -0.4175 C.ar    1  LIG1        0.2262
     15 C           0.3903    5.1044    0.1102 C.ar    1  LIG1        0.0836
     16 C           1.2843    6.0075    0.6592 C.ar    1  LIG1       -0.0282
     17 C           1.0204    7.3860    0.6710 C.ar    1  LIG1        0.0546
     18 C          -0.1771    7.8133    0.0879 C.ar    1  LIG1        0.1264
     19 N          -1.0662    6.9460   -0.4212 N.ar    1  LIG1       -0.2079
     20 H           2.2039    5.6471    1.1013 H       1  LIG1        0.0639
     21 O          -1.6975    4.8142   -0.9517 O.3     1  LIG1       -0.4792
     22 C          -2.8770    5.3809   -1.5117 C.3     1  LIG1        0.0804
     23 H          -3.4448    4.5375   -1.9022 H       1  LIG1        0.0660
     24 H          -3.4561    5.9096   -0.7514 H       1  LIG1        0.0660
     25 H          -2.6331    6.0825   -2.3122 H       1  LIG1        0.0660
     26 C           1.9278    8.2641    1.3374 C.1     1  LIG1       -0.0674
     27 C           2.7053    8.9628    1.9333 C.1     1  LIG1       -0.1138
     28 H           3.3834    9.6036    2.4482 H       1  LIG1        0.1232
     29 C          -0.5684    9.2212   -0.0016 C.ar    1  LIG1        0.1717
     30 C           0.0609   10.3726   -0.3911 C.ar    1  LIG1        0.0880
     31 C          -0.9322   11.4212   -0.3260 C.ar    1  LIG1        0.0879
     32 C          -2.0877   10.8165    0.0885 C.ar    1  LIG1        0.1684
     33 O          -1.8757    9.4919    0.2776 O.2     1  LIG1       -0.4492
     34 C           1.3890   10.5335   -0.8608 C.1     1  LIG1       -0.0646
     35 C           2.5024   10.6957   -1.2855 C.1     1  LIG1       -0.1138
     36 H           3.4912   10.8312   -1.6589 H       1  LIG1        0.1232
     37 C          -0.7496   12.7899   -0.6433 C.1     1  LIG1       -0.0646
     38 C          -0.5975   13.9536   -0.9115 C.1     1  LIG1       -0.1138
     39 H          -0.4533   14.9819   -1.1520 H       1  LIG1        0.1232
     40 C          -3.4208   11.2871    0.3568 C.ar    1  LIG1        0.0846
     41 C          -3.9844   12.5399    0.2859 C.ar    1  LIG1       -0.0159
     42 C          -5.3475   12.3986    0.6663 C.ar    1  LIG1        0.0697
     43 C          -5.5673   11.0650    0.9563 C.ar    1  LIG1        0.0197
     44 N          -4.3988   10.4073    0.7652 N.ar    1  LIG1       -0.3570
     45 H          -4.2405    9.4204    0.8961 H       1  LIG1        0.1655
     46 H          -6.4652   10.5625    1.2794 H       1  LIG1        0.0820
     47 H          -3.4814   13.4483   -0.0038 H       1  LIG1        0.0653
     48 N          -7.1180   14.2704    0.8017 N.1     1  LIG1       -0.1908
     49 C          -6.3246   13.4299    0.7415 C.1     1  LIG1        0.1007
@<TRIPOS>BOND
     1    25    22    1
     2    23    22    1
     3    36    35    1
     4    22    21    1
     5    22    24    1
     6    35    34    3
     7    13    10    1
     8    39    38    1
     9    21    14    1
    10    38    37    3
    11    34    30    1
    12    37    31    1
    13    19    14   ar
    14    19    18   ar
    15    14    15   ar
    16    30    31   ar
    17    30    29   ar
    18    31    32   ar
    19    10    11    1
    20    10     9    1
    21    10    12    1
    22     6     1    1
    23    47    41    1
    24    29    18    1
    25    29    33   ar
    26     5     1   ar
    27     5     4   ar
    28     1     2   ar
    29     4    15    1
    30     4     3   ar
    31    18    17   ar
    32    32    33   ar
    33    32    40    1
    34     2     3   ar
    35     2     8    1
    36    15    16   ar
    37     3     9    1
    38     8     7    3
    39    41    40   ar
    40    41    42   ar
    41    40    44   ar
    42    16    17   ar
    43    16    20    1
    44    42    49    1
    45    42    43   ar
    46    17    26    1
    47    49    48    3
    48    44    45    1
    49    44    43   ar
    50    43    46    1
    51    26    27    3
    52    27    28    1
