@<TRIPOS>MOLECULE
mol_data/opt/cam/geoms/mol2/12ea12hi13al-12la.out
 46 49 0 0 0
SMALL
GASTEIGER

@<TRIPOS>ATOM
      1 C           0.6133    1.6384   -0.8513 C.ar    1  LIG1        0.1081
      2 C           1.8262    1.6351   -0.2322 C.ar    1  LIG1        0.0630
      3 C           2.0513    2.9897    0.1930 C.ar    1  LIG1        0.0027
      4 C           0.9651    3.7045   -0.2164 C.ar    1  LIG1        0.1727
      5 O           0.0841    2.8827   -0.8566 O.2     1  LIG1       -0.4585
      6 H           0.0244    0.8610   -1.3098 H       1  LIG1        0.1042
      7 C           2.6772    0.5131   -0.0340 C.1     1  LIG1       -0.0665
      8 C           3.4041   -0.4307    0.1370 C.1     1  LIG1       -0.1138
      9 H           4.0443   -1.2687    0.2887 H       1  LIG1        0.1232
     10 H           2.8840    3.3522    0.7759 H       1  LIG1        0.0669
     11 C           0.6467    5.1011   -0.1371 C.ar    1  LIG1        0.1914
     12 C           1.4458    6.2047   -0.0135 C.ar    1  LIG1        0.0777
     13 C           0.5790    7.3425    0.0505 C.ar    1  LIG1        0.0182
     14 C          -0.6900    6.8441   -0.0646 C.ar    1  LIG1        0.1567
     15 O          -0.6685    5.4900   -0.1711 O.2     1  LIG1       -0.4481
     16 N           2.8331    6.2371    0.0881 N.pl3   1  LIG1       -0.3547
     17 H           3.2797    5.4109   -0.2905 H       1  LIG1        0.1424
     18 H           3.2429    7.0734   -0.3059 H       1  LIG1        0.1424
     19 C           1.0059    8.7629    0.2319 C.3     1  LIG1       -0.0343
     20 H           0.2668    9.3229    0.8095 H       1  LIG1        0.0279
     21 H           1.1451    9.2853   -0.7216 H       1  LIG1        0.0279
     22 H           1.9515    8.8123    0.7793 H       1  LIG1        0.0279
     23 C          -1.9977    7.4461   -0.0812 C.ar    1  LIG1        0.0865
     24 C          -2.4066    8.7692   -0.1777 C.ar    1  LIG1        0.0092
     25 C          -3.8190    8.7645   -0.1368 C.ar    1  LIG1        0.1491
     26 C          -4.2483    7.4493   -0.0328 C.ar    1  LIG1        0.1284
     27 N          -3.1158    6.6718    0.0037 N.ar    1  LIG1       -0.3463
     28 H          -3.1128    5.6674    0.0856 H       1  LIG1        0.1662
     29 H          -1.7608    9.6247   -0.2866 H       1  LIG1        0.0677
     30 O          -4.6709    9.8203   -0.1616 O.3     1  LIG1       -0.4929
     31 C          -4.0718   11.0884   -0.3067 C.3     1  LIG1        0.0789
     32 H          -4.8832   11.8162   -0.3171 H       1  LIG1        0.0660
     33 H          -3.3970   11.3126    0.5287 H       1  LIG1        0.0660
     34 H          -3.5113   11.1610   -1.2464 H       1  LIG1        0.0660
     35 C          -5.5558    6.8538    0.0600 C.ar    1  LIG1        0.1958
     36 C          -6.8241    7.2299   -0.2848 C.ar    1  LIG1        0.1672
     37 C          -7.6933    6.1482    0.0726 C.ar    1  LIG1        0.0187
     38 C          -6.8950    5.1852    0.5850 C.ar    1  LIG1        0.0963
     39 O          -5.5978    5.5904    0.5867 O.2     1  LIG1       -0.4575
     40 H          -7.0788    4.1952    0.9705 H       1  LIG1        0.1031
     41 O          -7.1829    8.3732   -0.9246 O.3     1  LIG1       -0.4913
     42 C          -7.7917    9.3479   -0.0913 C.3     1  LIG1        0.0790
     43 H          -8.0903   10.1712   -0.7419 H       1  LIG1        0.0660
     44 H          -8.6810    8.9465    0.4098 H       1  LIG1        0.0660
     45 H          -7.0815    9.7132    0.6561 H       1  LIG1        0.0660
     46 H          -8.7627    6.1038   -0.0687 H       1  LIG1        0.0686
@<TRIPOS>BOND
     1     6     1    1
     2    34    31    1
     3    41    36    1
     4    41    42    1
     5     5     1   ar
     6     5     4   ar
     7     1     2   ar
     8    43    42    1
     9    21    19    1
    10    32    31    1
    11    31    30    1
    12    31    33    1
    13    18    16    1
    14    17    16    1
    15    29    24    1
    16    36    35   ar
    17    36    37   ar
    18     2     7    1
    19     2     3   ar
    20     4    11    1
    21     4     3   ar
    22    24    25   ar
    23    24    23   ar
    24    15    11   ar
    25    15    14   ar
    26    30    25    1
    27    11    12   ar
    28    25    26   ar
    29    42    44    1
    30    42    45    1
    31    23    14    1
    32    23    27   ar
    33    46    37    1
    34    14    13   ar
    35     7     8    3
    36    26    27   ar
    37    26    35    1
    38    12    13   ar
    39    12    16    1
    40    27    28    1
    41    13    19    1
    42    35    39   ar
    43    37    38   ar
    44     8     9    1
    45     3    10    1
    46    19    22    1
    47    19    20    1
    48    38    39   ar
    49    38    40    1
