@<TRIPOS>MOLECULE
mol_data/opt/cam/geoms/mol2/12ea12ea12ea-12ea.out
 38 41 0 0 0
SMALL
GASTEIGER

@<TRIPOS>ATOM
      1 C           0.3743    1.6815   -0.0000 C.ar    1  LIG1        0.1081
      2 C           1.7347    1.7854    0.0000 C.ar    1  LIG1        0.0630
      3 C           2.0180    3.1907    0.0000 C.ar    1  LIG1        0.0027
      4 C           0.8099    3.8191   -0.0000 C.ar    1  LIG1        0.1721
      5 O          -0.1975    2.9018   -0.0001 O.2     1  LIG1       -0.4585
      6 H          -0.2934    0.8353   -0.0001 H       1  LIG1        0.1042
      7 C           2.6693    0.7134    0.0001 C.1     1  LIG1       -0.0665
      8 C           3.4647   -0.1894    0.0001 C.1     1  LIG1       -0.1138
      9 H           4.1679   -0.9899    0.0003 H       1  LIG1        0.1232
     10 H           2.9877    3.6616    0.0000 H       1  LIG1        0.0669
     11 C           0.4350    5.2071   -0.0001 C.ar    1  LIG1        0.1860
     12 C           1.1769    6.3672   -0.0001 C.ar    1  LIG1        0.0741
     13 C           0.2304    7.4377   -0.0001 C.ar    1  LIG1        0.0035
     14 C          -1.0006    6.8568   -0.0001 C.ar    1  LIG1        0.1732
     15 O          -0.8848    5.5014   -0.0001 O.2     1  LIG1       -0.4473
     16 C           2.5922    6.4712   -0.0000 C.1     1  LIG1       -0.0657
     17 C           3.7928    6.5648    0.0000 C.1     1  LIG1       -0.1138
     18 H           4.8548    6.6549    0.0002 H       1  LIG1        0.1232
     19 H           0.4384    8.4961   -0.0001 H       1  LIG1        0.0669
     20 C          -2.3189    7.4203   -0.0002 C.ar    1  LIG1        0.1860
     21 C          -3.5923    6.8998   -0.0002 C.ar    1  LIG1        0.0741
     22 C          -4.4726    8.0285   -0.0002 C.ar    1  LIG1        0.0035
     23 C          -3.6815    9.1352   -0.0002 C.ar    1  LIG1        0.1731
     24 O          -2.3706    8.7742   -0.0002 O.2     1  LIG1       -0.4473
     25 C          -3.9702    5.5317   -0.0002 C.1     1  LIG1       -0.0657
     26 C          -4.3153    4.3791   -0.0002 C.1     1  LIG1       -0.1138
     27 H          -4.6072    3.3545   -0.0002 H       1  LIG1        0.1232
     28 H          -5.5507    8.0059   -0.0003 H       1  LIG1        0.0669
     29 C          -3.9749   10.5409   -0.0002 C.ar    1  LIG1        0.1850
     30 C          -3.1985   11.6740   -0.0002 C.ar    1  LIG1        0.0734
     31 C          -4.1243   12.7744   -0.0003 C.ar    1  LIG1       -0.0077
     32 C          -5.3609   12.2332   -0.0003 C.ar    1  LIG1        0.0939
     33 O          -5.2879   10.8757   -0.0003 O.2     1  LIG1       -0.4586
     34 H          -6.3549   12.6500   -0.0004 H       1  LIG1        0.1030
     35 C          -1.7819   11.7652   -0.0002 C.1     1  LIG1       -0.0658
     36 C          -0.5839   11.8846   -0.0001 C.1     1  LIG1       -0.1138
     37 H           0.4766   11.9890   -0.0001 H       1  LIG1        0.1232
     38 H          -3.8685   13.8225   -0.0003 H       1  LIG1        0.0661
@<TRIPOS>BOND
     1    34    32    1
     2    32    33   ar
     3    32    31   ar
     4    33    29   ar
     5    31    38    1
     6    31    30   ar
     7    28    22    1
     8    27    26    1
     9    29    30   ar
    10    29    23    1
    11    22    23   ar
    12    22    21   ar
    13    30    35    1
    14    23    24   ar
    15    21    25    1
    16    21    20   ar
    17    26    25    3
    18    24    20   ar
    19    35    36    3
    20    20    14    1
    21    36    37    1
    22    14    15   ar
    23    14    13   ar
    24    15    11   ar
    25    19    13    1
    26    13    12   ar
    27    11    12   ar
    28    11     4    1
    29     5     4   ar
    30     5     1   ar
    31    12    16    1
    32     6     1    1
    33     4     3   ar
    34     1     2   ar
    35    16    17    3
    36     3    10    1
    37     3     2   ar
    38    17    18    1
    39     2     7    1
    40     7     8    3
    41     8     9    1
