@<TRIPOS>MOLECULE
mol_data/opt/cam/geoms/mol2/12ea12ea-12ea.out
 29 31 0 0 0
SMALL
GASTEIGER

@<TRIPOS>ATOM
      1 C           0.1941    1.7939   -0.0000 C.ar    1  LIG1        0.1081
      2 C           1.5584    1.8160    0.0000 C.ar    1  LIG1        0.0630
      3 C           1.9256    3.2022   -0.0000 C.ar    1  LIG1        0.0027
      4 C           0.7574    3.8997   -0.0001 C.ar    1  LIG1        0.1721
      5 O          -0.3030    3.0479   -0.0001 O.2     1  LIG1       -0.4585
      6 H          -0.5241    0.9904   -0.0000 H       1  LIG1        0.1042
      7 C           2.4261    0.6891    0.0000 C.1     1  LIG1       -0.0665
      8 C           3.1652   -0.2604    0.0001 C.1     1  LIG1       -0.1138
      9 H           3.8177   -1.1028    0.0005 H       1  LIG1        0.1232
     10 H           2.9205    3.6187   -0.0000 H       1  LIG1        0.0669
     11 C           0.4879    5.3103   -0.0001 C.ar    1  LIG1        0.1860
     12 C          -0.6549    6.0749   -0.0001 C.ar    1  LIG1        0.0741
     13 C          -0.2112    7.4364   -0.0001 C.ar    1  LIG1        0.0035
     14 C           1.1482    7.3988   -0.0001 C.ar    1  LIG1        0.1731
     15 O           1.5810    6.1096   -0.0001 O.2     1  LIG1       -0.4473
     16 C          -2.0020    5.6265   -0.0001 C.1     1  LIG1       -0.0657
     17 C          -3.1535    5.2774   -0.0001 C.1     1  LIG1       -0.1138
     18 H          -4.1700    4.9580   -0.0000 H       1  LIG1        0.1232
     19 H          -0.8327    8.3176   -0.0001 H       1  LIG1        0.0669
     20 C           2.1505    8.4275   -0.0001 C.ar    1  LIG1        0.1850
     21 C           3.5239    8.4164   -0.0001 C.ar    1  LIG1        0.0734
     22 C           3.9196    9.7990   -0.0001 C.ar    1  LIG1       -0.0077
     23 C           2.7799   10.5224   -0.0002 C.ar    1  LIG1        0.0939
     24 O           1.6947    9.7035   -0.0002 O.2     1  LIG1       -0.4586
     25 H           2.5704   11.5797   -0.0002 H       1  LIG1        0.1030
     26 C           4.3902    7.2919   -0.0001 C.1     1  LIG1       -0.0658
     27 C           5.1560    6.3629   -0.0001 C.1     1  LIG1       -0.1138
     28 H           5.8321    5.5393    0.0000 H       1  LIG1        0.1232
     29 H           4.9318   10.1722   -0.0001 H       1  LIG1        0.0661
@<TRIPOS>BOND
     1    25    23    1
     2    23    24   ar
     3    23    22   ar
     4    24    20   ar
     5    22    29    1
     6    22    21   ar
     7    19    13    1
     8    20    21   ar
     9    20    14    1
    10    13    14   ar
    11    13    12   ar
    12    21    26    1
    13    14    15   ar
    14    15    11   ar
    15    12    16    1
    16    12    11   ar
    17    16    17    3
    18    26    27    3
    19    11     4    1
    20    17    18    1
    21     5     4   ar
    22     5     1   ar
    23     4     3   ar
    24    27    28    1
    25    10     3    1
    26     3     2   ar
    27     6     1    1
    28     1     2   ar
    29     2     7    1
    30     7     8    3
    31     8     9    1
