@<TRIPOS>MOLECULE
mol_data/opt/cam/geoms/mol2/12ea12ea12ea12ea-.out
 38 41 0 0 0
SMALL
GASTEIGER

@<TRIPOS>ATOM
      1 C           0.5020    1.6778   -0.0001 C.ar    1  LIG1        0.1081
      2 C           1.8594    1.8104    0.0000 C.ar    1  LIG1        0.0630
      3 C           2.1129    3.2214    0.0000 C.ar    1  LIG1        0.0027
      4 C           0.8927    3.8254   -0.0000 C.ar    1  LIG1        0.1721
      5 O          -0.0965    2.8865   -0.0001 O.2     1  LIG1       -0.4585
      6 H          -0.1462    0.8167   -0.0001 H       1  LIG1        0.1042
      7 C           2.8162    0.7582    0.0001 C.1     1  LIG1       -0.0665
      8 C           3.6301   -0.1278    0.0002 C.1     1  LIG1       -0.1138
      9 H           4.3499   -0.9136    0.0002 H       1  LIG1        0.1232
     10 H           3.0724    3.7125    0.0001 H       1  LIG1        0.0669
     11 C           0.4946    5.2074   -0.0000 C.ar    1  LIG1        0.1860
     12 C           1.2190    6.3783   -0.0000 C.ar    1  LIG1        0.0741
     13 C           0.2569    7.4351   -0.0001 C.ar    1  LIG1        0.0035
     14 C          -0.9669    6.8372   -0.0001 C.ar    1  LIG1        0.1732
     15 O          -0.8277    5.4813   -0.0001 O.2     1  LIG1       -0.4473
     16 C           2.6324    6.5057    0.0000 C.1     1  LIG1       -0.0657
     17 C           3.8313    6.6192    0.0001 C.1     1  LIG1       -0.1138
     18 H           4.8915    6.7277    0.0001 H       1  LIG1        0.1232
     19 H           0.4540    8.4949   -0.0000 H       1  LIG1        0.0669
     20 C          -2.3071    7.3517   -0.0002 C.ar    1  LIG1        0.1860
     21 C          -2.8192    8.6300   -0.0002 C.ar    1  LIG1        0.0741
     22 C          -4.2418    8.4815   -0.0002 C.ar    1  LIG1        0.0035
     23 C          -4.4854    7.1422   -0.0003 C.ar    1  LIG1        0.1731
     24 O          -3.3145    6.4518   -0.0002 O.2     1  LIG1       -0.4473
     25 C          -2.0788    9.8403   -0.0002 C.1     1  LIG1       -0.0657
     26 C          -1.4518   10.8686   -0.0001 C.1     1  LIG1       -0.1138
     27 H          -0.9054   11.7837   -0.0001 H       1  LIG1        0.1232
     28 H          -4.9756    9.2716   -0.0003 H       1  LIG1        0.0669
     29 C          -5.6934    6.3656   -0.0003 C.ar    1  LIG1        0.1850
     30 C          -5.9413    5.0148   -0.0003 C.ar    1  LIG1        0.0734
     31 C          -7.3729    4.8874   -0.0004 C.ar    1  LIG1       -0.0077
     32 C          -7.8678    6.1440   -0.0004 C.ar    1  LIG1        0.0939
     33 O          -6.8594    7.0560   -0.0004 O.2     1  LIG1       -0.4586
     34 H          -8.8667    6.5490   -0.0004 H       1  LIG1        0.1030
     35 C          -4.9796    3.9714   -0.0003 C.1     1  LIG1       -0.0658
     36 C          -4.1559    3.0943   -0.0002 C.1     1  LIG1       -0.1138
     37 H          -3.3904    2.3533   -0.0004 H       1  LIG1        0.1232
     38 H          -7.9320    3.9647   -0.0004 H       1  LIG1        0.0661
@<TRIPOS>BOND
     1    34    32    1
     2    32    31   ar
     3    32    33   ar
     4    38    31    1
     5    37    36    1
     6    31    30   ar
     7    33    29   ar
     8    30    29   ar
     9    30    35    1
    10    29    23    1
    11    28    22    1
    12    35    36    3
    13    23    22   ar
    14    23    24   ar
    15    22    21   ar
    16    24    20   ar
    17    21    20   ar
    18    21    25    1
    19    20    14    1
    20    25    26    3
    21    26    27    1
    22     6     1    1
    23    14    15   ar
    24    14    13   ar
    25    15    11   ar
    26     5     1   ar
    27     5     4   ar
    28     1     2   ar
    29    13    19    1
    30    13    12   ar
    31    11     4    1
    32    11    12   ar
    33     4     3   ar
    34    12    16    1
    35     3     2   ar
    36     3    10    1
    37     2     7    1
    38    16    17    3
    39    17    18    1
    40     7     8    3
    41     8     9    1
