@<TRIPOS>MOLECULE
mol_data/opt/cam/geoms/mol2/12ea12lf4ea-4af.out
 46 49 0 0 0
SMALL
GASTEIGER

@<TRIPOS>ATOM
      1 C           0.2228    1.3647    0.2863 C.ar    1  LIG1        0.1081
      2 C           1.5544    1.3722   -0.0064 C.ar    1  LIG1        0.0630
      3 C           1.8962    2.7464   -0.2409 C.ar    1  LIG1        0.0028
      4 C           0.7471    3.4540   -0.0689 C.ar    1  LIG1        0.1747
      5 O          -0.2793    2.6180    0.2523 O.2     1  LIG1       -0.4585
      6 H          -0.4686    0.5741    0.5279 H       1  LIG1        0.1042
      7 C           2.4161    0.2422   -0.0665 C.1     1  LIG1       -0.0665
      8 C           3.1505   -0.7097   -0.1184 C.1     1  LIG1       -0.1138
      9 H           3.7994   -1.5534   -0.1652 H       1  LIG1        0.1232
     10 H           2.8594    3.1496   -0.5085 H       1  LIG1        0.0669
     11 C           0.4579    4.8596   -0.1589 C.ar    1  LIG1        0.2157
     12 C           1.2736    5.9303   -0.3861 C.ar    1  LIG1        0.2114
     13 C           0.4355    7.0891   -0.3757 C.ar    1  LIG1        0.2062
     14 C          -0.8433    6.6482   -0.1254 C.ar    1  LIG1        0.1820
     15 O          -0.8194    5.2791   -0.0063 O.2     1  LIG1       -0.4441
     16 O           2.6001    5.8470   -0.6449 O.3     1  LIG1       -0.4883
     17 C           3.4288    6.7314    0.1072 C.3     1  LIG1        0.0791
     18 H           4.4528    6.5236   -0.2027 H       1  LIG1        0.0660
     19 H           3.1809    7.7737   -0.1019 H       1  LIG1        0.0660
     20 H           3.3271    6.5378    1.1807 H       1  LIG1        0.0660
     21 O           0.9107    8.3204   -0.6513 O.3     1  LIG1       -0.5008
     22 H           0.3308    8.9931   -0.2547 H       1  LIG1        0.2924
     23 C          -2.4297    8.5738    0.3031 C.ar    1  LIG1        0.0360
     24 C          -3.7323    9.0829    0.2505 C.ar    1  LIG1       -0.0379
     25 C          -2.1689    7.2467   -0.0981 C.ar    1  LIG1        0.0364
     26 C          -4.8077    8.3039   -0.1600 C.ar    1  LIG1       -0.0166
     27 H          -3.9001   10.1016    0.5812 H       1  LIG1        0.0636
     28 C          -3.2638    6.4645   -0.4934 C.ar    1  LIG1       -0.0492
     29 C          -4.5461    6.9763   -0.5204 C.ar    1  LIG1       -0.0533
     30 H          -3.0831    5.4412   -0.7986 H       1  LIG1        0.0625
     31 C          -1.4102    9.4223    0.8411 C.1     1  LIG1       -0.0689
     32 C          -0.5759   10.1595    1.3072 C.1     1  LIG1       -0.1139
     33 H           0.1485   10.8012    1.7553 H       1  LIG1        0.1232
     34 H          -5.3603    6.3461   -0.8628 H       1  LIG1        0.0624
     35 C          -6.4093   10.1708   -0.6262 C.ar    1  LIG1       -0.0538
     36 C          -7.7038   10.6772   -0.6597 C.ar    1  LIG1       -0.0577
     37 C          -6.1809    8.8607   -0.2019 C.ar    1  LIG1       -0.0144
     38 C          -8.7844    9.8986   -0.2769 C.ar    1  LIG1       -0.0201
     39 H          -7.8733   11.6942   -0.9983 H       1  LIG1        0.0619
     40 C          -7.2706    8.0755    0.1843 C.ar    1  LIG1       -0.0125
     41 C          -8.5618    8.5903    0.1469 C.ar    1  LIG1        0.1174
     42 H          -7.1059    7.0633    0.5446 H       1  LIG1        0.0660
     43 H          -9.7991   10.2787   -0.2968 H       1  LIG1        0.0654
     44 H          -5.5775   10.7828   -0.9566 H       1  LIG1        0.0624
     45 O          -9.6473    7.8620    0.5233 O.3     1  LIG1       -0.5067
     46 H          -9.3643    6.9818    0.7975 H       1  LIG1        0.2921
@<TRIPOS>BOND
     1    39    36    1
     2    44    35    1
     3    34    29    1
     4    30    28    1
     5    36    35   ar
     6    36    38   ar
     7    21    13    1
     8    21    22    1
     9    16    12    1
    10    16    17    1
    11    35    37   ar
    12    29    28   ar
    13    29    26   ar
    14    10     3    1
    15    28    25   ar
    16    12    13   ar
    17    12    11   ar
    18    13    14   ar
    19    43    38    1
    20    38    41   ar
    21     3     4   ar
    22     3     2   ar
    23    18    17    1
    24    37    26    1
    25    37    40   ar
    26     9     8    1
    27    26    24   ar
    28    11     4    1
    29    11    15   ar
    30    14    25    1
    31    14    15   ar
    32     8     7    3
    33    19    17    1
    34    25    23   ar
    35     4     5   ar
    36     7     2    1
    37     2     1   ar
    38    17    20    1
    39    41    40   ar
    40    41    45    1
    41    40    42    1
    42    24    23   ar
    43    24    27    1
    44     5     1   ar
    45     1     6    1
    46    23    31    1
    47    45    46    1
    48    31    32    3
    49    32    33    1
