@<TRIPOS>MOLECULE
mol_data/opt/cam/geoms/mol2/12ea12ea12ea.out
 29 31 0 0 0
SMALL
GASTEIGER

@<TRIPOS>ATOM
      1 C           0.3199    1.7058   -0.0001 C.ar    1  LIG1        0.1081
      2 C           1.6804    1.8070    0.0000 C.ar    1  LIG1        0.0630
      3 C           1.9669    3.2119    0.0000 C.ar    1  LIG1        0.0027
      4 C           0.7602    3.8429   -0.0000 C.ar    1  LIG1        0.1721
      5 O          -0.2491    2.9275   -0.0001 O.2     1  LIG1       -0.4585
      6 H          -0.3500    0.8614   -0.0001 H       1  LIG1        0.1042
      7 C           2.6127    0.7330    0.0001 C.1     1  LIG1       -0.0665
      8 C           3.4063   -0.1714    0.0001 C.1     1  LIG1       -0.1138
      9 H           4.1077   -0.9735    0.0002 H       1  LIG1        0.1232
     10 H           2.9374    3.6808    0.0001 H       1  LIG1        0.0669
     11 C           0.3875    5.2319   -0.0001 C.ar    1  LIG1        0.1860
     12 C           1.1313    6.3896   -0.0000 C.ar    1  LIG1        0.0741
     13 C           0.1868    7.4629   -0.0001 C.ar    1  LIG1        0.0035
     14 C          -1.0464    6.8865   -0.0001 C.ar    1  LIG1        0.1731
     15 O          -0.9310    5.5287   -0.0001 O.2     1  LIG1       -0.4473
     16 C           2.5467    6.4920    0.0001 C.1     1  LIG1       -0.0657
     17 C           3.7474    6.5840    0.0001 C.1     1  LIG1       -0.1138
     18 H           4.8094    6.6731    0.0001 H       1  LIG1        0.1232
     19 H           0.4019    8.5191   -0.0000 H       1  LIG1        0.0669
     20 C          -2.3772    7.4318   -0.0002 C.ar    1  LIG1        0.1850
     21 C          -2.8456    8.7242   -0.0002 C.ar    1  LIG1        0.0734
     22 C          -4.2779    8.6176   -0.0003 C.ar    1  LIG1       -0.0077
     23 C          -4.5582    7.2963   -0.0003 C.ar    1  LIG1        0.0939
     24 O          -3.4141    6.5636   -0.0003 O.2     1  LIG1       -0.4586
     25 H          -5.4764    6.7318   -0.0004 H       1  LIG1        0.1030
     26 C          -2.0709    9.9124   -0.0002 C.1     1  LIG1       -0.0658
     27 C          -1.4186   10.9250   -0.0001 C.1     1  LIG1       -0.1138
     28 H          -0.8478   11.8250    0.0001 H       1  LIG1        0.1232
     29 H          -4.9806    9.4363   -0.0003 H       1  LIG1        0.0661
@<TRIPOS>BOND
     1    25    23    1
     2    23    22   ar
     3    23    24   ar
     4    29    22    1
     5    22    21   ar
     6    24    20   ar
     7    21    20   ar
     8    21    26    1
     9    20    14    1
    10    26    27    3
    11    14    15   ar
    12    14    13   ar
    13     6     1    1
    14    15    11   ar
    15    27    28    1
    16     5     1   ar
    17     5     4   ar
    18     1     2   ar
    19    13    19    1
    20    13    12   ar
    21    11     4    1
    22    11    12   ar
    23     4     3   ar
    24    12    16    1
    25     3     2   ar
    26     3    10    1
    27     2     7    1
    28    16    17    3
    29     7     8    3
    30    18    17    1
    31     8     9    1
