@<TRIPOS>MOLECULE
mol_data/opt/cam/geoms/mol2/12ea12ea-12ea-12ea.out
 38 41 0 0 0
SMALL
GASTEIGER

@<TRIPOS>ATOM
      1 C           0.0382    1.7560   -0.0000 C.ar    1  LIG1        0.1081
      2 C           1.4026    1.7346   -0.0000 C.ar    1  LIG1        0.0630
      3 C           1.8129    3.1083   -0.0001 C.ar    1  LIG1        0.0027
      4 C           0.6678    3.8429   -0.0000 C.ar    1  LIG1        0.1721
      5 O          -0.4188    3.0252    0.0000 O.2     1  LIG1       -0.4585
      6 H          -0.7052    0.9758    0.0000 H       1  LIG1        0.1042
      7 C           2.2359    0.5820   -0.0000 C.1     1  LIG1       -0.0665
      8 C           2.9476   -0.3881   -0.0001 C.1     1  LIG1       -0.1138
      9 H           3.5753   -1.2493   -0.0001 H       1  LIG1        0.1232
     10 H           2.8198    3.4943   -0.0002 H       1  LIG1        0.0669
     11 C           0.4464    5.2617   -0.0000 C.ar    1  LIG1        0.1860
     12 C          -0.6708    6.0640    0.0000 C.ar    1  LIG1        0.0741
     13 C          -0.1833    7.4093   -0.0000 C.ar    1  LIG1        0.0035
     14 C           1.1760    7.3276   -0.0001 C.ar    1  LIG1        0.1732
     15 O           1.5653    6.0223   -0.0001 O.2     1  LIG1       -0.4473
     16 C          -2.0319    5.6601    0.0001 C.1     1  LIG1       -0.0657
     17 C          -3.1940    5.3478    0.0001 C.1     1  LIG1       -0.1138
     18 H          -4.2202    5.0612    0.0002 H       1  LIG1        0.1232
     19 H          -0.7728    8.3119   -0.0000 H       1  LIG1        0.0669
     20 C           2.2175    8.3150   -0.0001 C.ar    1  LIG1        0.1860
     21 C           2.1938    9.6915   -0.0002 C.ar    1  LIG1        0.0741
     22 C           3.5617   10.1061   -0.0002 C.ar    1  LIG1        0.0035
     23 C           4.3063    8.9667   -0.0002 C.ar    1  LIG1        0.1731
     24 O           3.4966    7.8743   -0.0001 O.2     1  LIG1       -0.4473
     25 C           1.0425   10.5207   -0.0002 C.1     1  LIG1       -0.0657
     26 C           0.0670   11.2268   -0.0002 C.1     1  LIG1       -0.1138
     27 H          -0.7913   11.8588   -0.0003 H       1  LIG1        0.1232
     28 H           3.9323   11.1187   -0.0003 H       1  LIG1        0.0669
     29 C           5.7253    8.7438   -0.0002 C.ar    1  LIG1        0.1850
     30 C           6.5190    7.6230   -0.0001 C.ar    1  LIG1        0.0734
     31 C           7.8721    8.1101   -0.0001 C.ar    1  LIG1       -0.0077
     32 C           7.7937    9.4576   -0.0002 C.ar    1  LIG1        0.0939
     33 O           6.4955    9.8597   -0.0003 O.2     1  LIG1       -0.4586
     34 H           8.5296   10.2453   -0.0003 H       1  LIG1        0.1030
     35 C           6.1205    6.2607    0.0001 C.1     1  LIG1       -0.0658
     36 C           5.8307    5.0925    0.0002 C.1     1  LIG1       -0.1138
     37 H           5.5760    4.0577    0.0003 H       1  LIG1        0.1232
     38 H           8.7660    7.5061   -0.0001 H       1  LIG1        0.0661
@<TRIPOS>BOND
     1    34    32    1
     2    33    32   ar
     3    33    29   ar
     4    27    26    1
     5    28    22    1
     6    26    25    3
     7    32    31   ar
     8    25    21    1
     9    22    21   ar
    10    22    23   ar
    11    21    20   ar
    12    23    29    1
    13    23    24   ar
    14    29    30   ar
    15    10     3    1
    16    20    24   ar
    17    20    14    1
    18    31    38    1
    19    31    30   ar
    20     3     4   ar
    21     3     2   ar
    22    15    14   ar
    23    15    11   ar
    24     9     8    1
    25    14    13   ar
    26     8     7    3
    27    30    35    1
    28     7     2    1
    29     4    11    1
    30     4     5   ar
    31    11    12   ar
    32    13    19    1
    33    13    12   ar
    34     2     1   ar
    35     1     5   ar
    36     1     6    1
    37    12    16    1
    38    16    17    3
    39    17    18    1
    40    35    36    3
    41    36    37    1
