@<TRIPOS>MOLECULE
mol_data/opt/cam/geoms/mol2/12ea12ea-12ea12ea.out
 38 41 0 0 0
SMALL
GASTEIGER

@<TRIPOS>ATOM
      1 C           0.2284    1.7336   -0.0001 C.ar    1  LIG1        0.1081
      2 C           1.5923    1.7771   -0.0000 C.ar    1  LIG1        0.0630
      3 C           1.9376    3.1688   -0.0000 C.ar    1  LIG1        0.0027
      4 C           0.7584    3.8478   -0.0001 C.ar    1  LIG1        0.1721
      5 O          -0.2884    2.9794   -0.0001 O.2     1  LIG1       -0.4585
      6 H          -0.4769    0.9187   -0.0001 H       1  LIG1        0.1042
      7 C           2.4776    0.6640    0.0001 C.1     1  LIG1       -0.0665
      8 C           3.2316   -0.2737    0.0001 C.1     1  LIG1       -0.1138
      9 H           3.8977   -1.1054    0.0005 H       1  LIG1        0.1232
     10 H           2.9258    3.6008    0.0000 H       1  LIG1        0.0669
     11 C           0.4668    5.2538   -0.0001 C.ar    1  LIG1        0.1860
     12 C          -0.6888    6.0001   -0.0002 C.ar    1  LIG1        0.0741
     13 C          -0.2679    7.3679   -0.0002 C.ar    1  LIG1        0.0035
     14 C           1.0928    7.3526   -0.0001 C.ar    1  LIG1        0.1732
     15 O           1.5468    6.0704   -0.0001 O.2     1  LIG1       -0.4473
     16 C          -2.0282    5.5291   -0.0002 C.1     1  LIG1       -0.0657
     17 C          -3.1736    5.1605   -0.0002 C.1     1  LIG1       -0.1138
     18 H          -4.1846    4.8242    0.0002 H       1  LIG1        0.1232
     19 H          -0.9027    8.2398   -0.0002 H       1  LIG1        0.0669
     20 C           2.0749    8.3971   -0.0001 C.ar    1  LIG1        0.1860
     21 C           3.4506    8.4117   -0.0000 C.ar    1  LIG1        0.0741
     22 C           3.8244    9.7930   -0.0000 C.ar    1  LIG1        0.0035
     23 C           2.6660   10.5072   -0.0001 C.ar    1  LIG1        0.1731
     24 O           1.5956    9.6634   -0.0001 O.2     1  LIG1       -0.4473
     25 C           4.3348    7.3007    0.0000 C.1     1  LIG1       -0.0657
     26 C           5.1125    6.3820    0.0001 C.1     1  LIG1       -0.1138
     27 H           5.8011    5.5687   -0.0001 H       1  LIG1        0.1232
     28 H           4.8252   10.1934   -0.0000 H       1  LIG1        0.0669
     29 C           2.3879   11.9179   -0.0002 C.ar    1  LIG1        0.1850
     30 C           3.2073   13.0215   -0.0002 C.ar    1  LIG1        0.0734
     31 C           2.3284   14.1573   -0.0002 C.ar    1  LIG1       -0.0077
     32 C           1.0715   13.6626   -0.0003 C.ar    1  LIG1        0.0939
     33 O           1.0912   12.3039   -0.0002 O.2     1  LIG1       -0.4586
     34 H           0.0944   14.1175   -0.0003 H       1  LIG1        0.1030
     35 C           4.6257   13.0304   -0.0001 C.1     1  LIG1       -0.0658
     36 C           5.8301   13.0441   -0.0001 C.1     1  LIG1       -0.1138
     37 H           6.8957   13.0634   -0.0005 H       1  LIG1        0.1232
     38 H           2.6236   15.1950   -0.0002 H       1  LIG1        0.0661
@<TRIPOS>BOND
     1    37    36    1
     2    34    32    1
     3    32    33   ar
     4    32    31   ar
     5    38    31    1
     6    33    29   ar
     7    31    30   ar
     8    16    17    3
     9    16    12    1
    10    19    13    1
    11    17    18    1
    12    29    30   ar
    13    29    23    1
    14    30    35    1
    15    12    13   ar
    16    12    11   ar
    17    13    14   ar
    18    24    23   ar
    19    24    20   ar
    20     6     1    1
    21     5     1   ar
    22     5     4   ar
    23    23    22   ar
    24    14    20    1
    25    14    15   ar
    26    11    15   ar
    27    11     4    1
    28    20    21   ar
    29     1     2   ar
    30    35    36    3
    31     4     3   ar
    32    27    26    1
    33    22    21   ar
    34    22    28    1
    35    21    25    1
    36     3     2   ar
    37     3    10    1
    38     2     7    1
    39    25    26    3
    40     7     8    3
    41     8     9    1
