@<TRIPOS>MOLECULE
mol_data/opt/cam/geoms/mol2/12ea.out
 11 11 0 0 0
SMALL
GASTEIGER

@<TRIPOS>ATOM
      1 C           0.1799    1.9120   -0.0001 C.ar    1  LIG1        0.1070
      2 C           1.5423    1.9021    0.0001 C.ar    1  LIG1        0.0623
      3 C           1.9389    3.2867   -0.0001 C.ar    1  LIG1       -0.0085
      4 C           0.7939    4.0033   -0.0001 C.ar    1  LIG1        0.0929
      5 O          -0.2865    3.1784   -0.0000 O.2     1  LIG1       -0.4698
      6 H          -0.5562    1.1243   -0.0002 H       1  LIG1        0.1042
      7 H           0.5794    5.0598   -0.0001 H       1  LIG1        0.1029
      8 C           2.3875    0.7584    0.0003 C.1     1  LIG1       -0.0665
      9 C           3.1107   -0.2036    0.0004 C.1     1  LIG1       -0.1138
     10 H           3.7482   -1.0573    0.0001 H       1  LIG1        0.1232
     11 H           2.9487    3.6665   -0.0001 H       1  LIG1        0.0661
@<TRIPOS>BOND
     1     6     1    1
     2     7     4    1
     3     1     5   ar
     4     1     2   ar
     5    11     3    1
     6     4     3   ar
     7     4     5   ar
     8     3     2   ar
     9    10     9    1
    10     2     8    1
    11     8     9    3
