@<TRIPOS>MOLECULE
mol_data/opt/cam/geoms/mol2/12ea12ea.out
 20 21 0 0 0
SMALL
GASTEIGER

@<TRIPOS>ATOM
      1 C           0.1917    1.8267   -0.0000 C.ar    1  LIG1        0.1081
      2 C           1.5548    1.8697    0.0000 C.ar    1  LIG1        0.0630
      3 C           1.9013    3.2617    0.0000 C.ar    1  LIG1        0.0027
      4 C           0.7237    3.9435   -0.0000 C.ar    1  LIG1        0.1721
      5 O          -0.3242    3.0724   -0.0001 O.2     1  LIG1       -0.4585
      6 H          -0.5139    1.0120   -0.0000 H       1  LIG1        0.1042
      7 C           2.4405    0.7568    0.0001 C.1     1  LIG1       -0.0665
      8 C           3.1947   -0.1806    0.0001 C.1     1  LIG1       -0.1138
      9 H           3.8613   -1.0119    0.0002 H       1  LIG1        0.1232
     10 H           2.8911    3.6885    0.0001 H       1  LIG1        0.0669
     11 C           0.4087    5.3490   -0.0001 C.ar    1  LIG1        0.1850
     12 C           1.1982    6.4733   -0.0001 C.ar    1  LIG1        0.0734
     13 C           0.2896    7.5862   -0.0002 C.ar    1  LIG1       -0.0077
     14 C          -0.9534    7.0585   -0.0002 C.ar    1  LIG1        0.0939
     15 O          -0.8973    5.7006   -0.0002 O.2     1  LIG1       -0.4586
     16 H          -1.9424    7.4870   -0.0003 H       1  LIG1        0.1030
     17 C           2.6161    6.5204    0.0000 C.1     1  LIG1       -0.0658
     18 C           3.8197    6.5676    0.0001 C.1     1  LIG1       -0.1138
     19 H           4.8843    6.6155    0.0001 H       1  LIG1        0.1232
     20 H           0.5577    8.6312   -0.0002 H       1  LIG1        0.0661
@<TRIPOS>BOND
     1    16    14    1
     2    14    15   ar
     3    14    13   ar
     4    15    11   ar
     5    20    13    1
     6    13    12   ar
     7    11    12   ar
     8    11     4    1
     9     5     4   ar
    10     5     1   ar
    11    12    17    1
    12     4     3   ar
    13     6     1    1
    14     1     2   ar
    15    17    18    3
    16     2     3   ar
    17     2     7    1
    18     3    10    1
    19    18    19    1
    20     7     8    3
    21     8     9    1
