@<TRIPOS>MOLECULE
mol_data/opt/cam/geoms/mol2/12ea12ea12ea12ea.out
 38 41 0 0 0
SMALL
GASTEIGER

@<TRIPOS>ATOM
      1 C           0.6054    1.6406   -0.0001 C.ar    1  LIG1        0.1081
      2 C           1.9601    1.8029   -0.0000 C.ar    1  LIG1        0.0630
      3 C           2.1830    3.2191   -0.0000 C.ar    1  LIG1        0.0027
      4 C           0.9490    3.7950   -0.0000 C.ar    1  LIG1        0.1721
      5 O          -0.0180    2.8352   -0.0001 O.2     1  LIG1       -0.4585
      6 H          -0.0258    0.7669   -0.0002 H       1  LIG1        0.1042
      7 C           2.9400    0.7721    0.0000 C.1     1  LIG1       -0.0665
      8 C           3.7736   -0.0954    0.0001 C.1     1  LIG1       -0.1138
      9 H           4.5107   -0.8650    0.0001 H       1  LIG1        0.1232
     10 H           3.1314    3.7313    0.0000 H       1  LIG1        0.0669
     11 C           0.5146    5.1657   -0.0000 C.ar    1  LIG1        0.1860
     12 C           1.2070    6.3555    0.0000 C.ar    1  LIG1        0.0741
     13 C           0.2169    7.3856   -0.0000 C.ar    1  LIG1        0.0035
     14 C          -0.9907    6.7551   -0.0001 C.ar    1  LIG1        0.1732
     15 O          -0.8153    5.4037   -0.0001 O.2     1  LIG1       -0.4473
     16 C           2.6165    6.5205    0.0001 C.1     1  LIG1       -0.0657
     17 C           3.8119    6.6657    0.0001 C.1     1  LIG1       -0.1138
     18 H           4.8689    6.8020    0.0001 H       1  LIG1        0.1232
     19 H           0.3854    8.4503    0.0000 H       1  LIG1        0.0669
     20 C          -2.3412    7.2426   -0.0001 C.ar    1  LIG1        0.1860
     21 C          -2.8640    8.5165   -0.0001 C.ar    1  LIG1        0.0741
     22 C          -4.2841    8.3573   -0.0002 C.ar    1  LIG1        0.0035
     23 C          -4.5186    7.0160   -0.0002 C.ar    1  LIG1        0.1731
     24 O          -3.3400    6.3323   -0.0002 O.2     1  LIG1       -0.4473
     25 C          -2.1369    9.7348   -0.0001 C.1     1  LIG1       -0.0657
     26 C          -1.5235   10.7713   -0.0001 C.1     1  LIG1       -0.1138
     27 H          -0.9885   11.6931   -0.0001 H       1  LIG1        0.1232
     28 H          -5.0265    9.1389   -0.0002 H       1  LIG1        0.0669
     29 C          -5.7285    6.2388   -0.0003 C.ar    1  LIG1        0.1850
     30 C          -7.0558    6.5967   -0.0003 C.ar    1  LIG1        0.0734
     31 C          -7.7902    5.3626   -0.0003 C.ar    1  LIG1       -0.0077
     32 C          -6.8686    4.3749   -0.0003 C.ar    1  LIG1        0.0939
     33 O          -5.6123    4.8917   -0.0003 O.2     1  LIG1       -0.4586
     34 H          -6.9330    3.2990   -0.0003 H       1  LIG1        0.1030
     35 C          -7.5845    7.9129   -0.0003 C.1     1  LIG1       -0.0658
     36 C          -8.0396    9.0283   -0.0003 C.1     1  LIG1       -0.1138
     37 H          -8.4493   10.0121   -0.0004 H       1  LIG1        0.1232
     38 H          -8.8638    5.2566   -0.0004 H       1  LIG1        0.0661
@<TRIPOS>BOND
     1    37    36    1
     2    38    31    1
     3    31    32   ar
     4    31    30   ar
     5    36    35    3
     6    34    32    1
     7    35    30    1
     8    32    33   ar
     9    30    29   ar
    10    33    29   ar
    11    29    23    1
    12    23    22   ar
    13    23    24   ar
    14    28    22    1
    15    22    21   ar
    16    24    20   ar
    17     6     1    1
    18    21    20   ar
    19    21    25    1
    20    20    14    1
    21     5     1   ar
    22     5     4   ar
    23     1     2   ar
    24    15    14   ar
    25    15    11   ar
    26    25    26    3
    27    14    13   ar
    28    27    26    1
    29     4    11    1
    30     4     3   ar
    31    11    12   ar
    32    13    12   ar
    33    13    19    1
    34     2     3   ar
    35     2     7    1
    36     3    10    1
    37    12    16    1
    38     7     8    3
    39    18    17    1
    40    16    17    3
    41     8     9    1
