@<TRIPOS>MOLECULE
mol_data/opt/cam/geoms/mol2/12ea4ai-4ea-4ad.out
 47 50 0 0 0
SMALL
GASTEIGER

@<TRIPOS>ATOM
      1 C           0.5037    1.5862    0.2895 C.ar    1  LIG1        0.1079
      2 C           1.7043    1.6115   -0.3539 C.ar    1  LIG1        0.0629
      3 C           1.9626    2.9954   -0.6350 C.ar    1  LIG1       -0.0004
      4 C           0.9071    3.6986   -0.1445 C.ar    1  LIG1        0.1360
      5 O           0.0129    2.8354    0.4220 O.2     1  LIG1       -0.4617
      6 H          -0.0939    0.7842    0.6916 H       1  LIG1        0.1042
      7 C           2.5233    0.4941   -0.6751 C.1     1  LIG1       -0.0665
      8 C           3.2221   -0.4461   -0.9505 C.1     1  LIG1       -0.1138
      9 H           3.8389   -1.2803   -1.1933 H       1  LIG1        0.1232
     10 H           2.8315    3.3885   -1.1391 H       1  LIG1        0.0668
     11 C           1.4339    6.0643   -0.6713 C.ar    1  LIG1       -0.0505
     12 C           1.1034    7.4071   -0.6328 C.ar    1  LIG1       -0.0531
     13 C           0.5718    5.1186   -0.1131 C.ar    1  LIG1        0.0176
     14 C          -0.0871    7.8467   -0.0512 C.ar    1  LIG1       -0.0138
     15 H           1.7784    8.1379   -1.0656 H       1  LIG1        0.0624
     16 C          -0.6118    5.5592    0.4805 C.ar    1  LIG1       -0.0476
     17 C          -0.9589    6.9066    0.5211 C.ar    1  LIG1       -0.0420
     18 H          -1.2764    4.8287    0.9281 H       1  LIG1        0.0627
     19 H           2.3633    5.7521   -1.1351 H       1  LIG1        0.0625
     20 C          -2.2428    7.3214    1.1943 C.3     1  LIG1       -0.0391
     21 H          -2.6545    6.4961    1.7783 H       1  LIG1        0.0278
     22 H          -3.0042    7.6242    0.4694 H       1  LIG1        0.0278
     23 H          -2.0866    8.1697    1.8652 H       1  LIG1        0.0278
     24 C           0.3518   10.2381    0.6538 C.ar    1  LIG1        0.0330
     25 C           0.0294   11.5976    0.5893 C.ar    1  LIG1       -0.0380
     26 C          -0.4103    9.3007   -0.0685 C.ar    1  LIG1       -0.0022
     27 C          -1.0355   12.0584   -0.1798 C.ar    1  LIG1       -0.0167
     28 H           0.6153   12.2946    1.1779 H       1  LIG1        0.0636
     29 C          -1.4759    9.7730   -0.8345 C.ar    1  LIG1       -0.0523
     30 C          -1.7871   11.1221   -0.8945 C.ar    1  LIG1       -0.0534
     31 H          -2.0574    9.0636   -1.4141 H       1  LIG1        0.0624
     32 C           1.4485    9.8311    1.4827 C.1     1  LIG1       -0.0690
     33 C           2.3724    9.5246    2.1905 C.1     1  LIG1       -0.1139
     34 H           3.1864    9.2382    2.8159 H       1  LIG1        0.1232
     35 H          -2.6041   11.4555   -1.5259 H       1  LIG1        0.0624
     36 C          -0.3485   14.4692   -0.2799 C.ar    1  LIG1       -0.0540
     37 C          -0.6504   15.8237   -0.3334 C.ar    1  LIG1       -0.0600
     38 C          -1.3602   13.5048   -0.2373 C.ar    1  LIG1       -0.0166
     39 C          -1.9706   16.2478   -0.3493 C.ar    1  LIG1       -0.0443
     40 H           0.1506   16.5538   -0.3719 H       1  LIG1        0.0618
     41 C          -2.6867   13.9343   -0.2514 C.ar    1  LIG1       -0.0366
     42 C          -2.9907   15.2950   -0.3088 C.ar    1  LIG1        0.0523
     43 H          -3.4935   13.2125   -0.1962 H       1  LIG1        0.0636
     44 H          -2.2183   17.3019   -0.3930 H       1  LIG1        0.0630
     45 H           0.6883   14.1503   -0.2924 H       1  LIG1        0.0624
     46 N          -5.4702   16.0536   -0.3266 N.1     1  LIG1       -0.1909
     47 C          -4.3643   15.7154   -0.3177 C.1     1  LIG1        0.0992
@<TRIPOS>BOND
     1    35    30    1
     2    31    29    1
     3     9     8    1
     4    10     3    1
     5    19    11    1
     6    15    12    1
     7     8     7    3
     8    30    29   ar
     9    30    27   ar
    10    29    26   ar
    11     7     2    1
    12    11    12   ar
    13    11    13   ar
    14     3     2   ar
    15     3     4   ar
    16    12    14   ar
    17    44    39    1
    18    40    37    1
    19     2     1   ar
    20    39    37   ar
    21    39    42   ar
    22    37    36   ar
    23    46    47    3
    24    47    42    1
    25    42    41   ar
    26    45    36    1
    27    36    38   ar
    28    41    38   ar
    29    41    43    1
    30    38    27    1
    31    27    25   ar
    32     4    13    1
    33     4     5   ar
    34    13    16   ar
    35    26    14    1
    36    26    24   ar
    37    14    17   ar
    38     1     5   ar
    39     1     6    1
    40    22    20    1
    41    16    17   ar
    42    16    18    1
    43    17    20    1
    44    25    24   ar
    45    25    28    1
    46    24    32    1
    47    20    21    1
    48    20    23    1
    49    32    33    3
    50    33    34    1
