@<TRIPOS>MOLECULE
mol_data/opt/cam/geoms/mol2/12ea12ea-12ea12ea-.out
 38 41 0 0 0
SMALL
GASTEIGER

@<TRIPOS>ATOM
      1 C           0.1905    1.7454    0.0000 C.ar    1  LIG1        0.1081
      2 C           1.5549    1.7614    0.0000 C.ar    1  LIG1        0.0630
      3 C           1.9283    3.1458    0.0000 C.ar    1  LIG1        0.0027
      4 C           0.7631    3.8485   -0.0000 C.ar    1  LIG1        0.1721
      5 O          -0.3011    3.0015   -0.0000 O.2     1  LIG1       -0.4585
      6 H          -0.5313    0.9451    0.0001 H       1  LIG1        0.1042
      7 C           2.4175    0.6305    0.0001 C.1     1  LIG1       -0.0665
      8 C           3.1522   -0.3223    0.0001 C.1     1  LIG1       -0.1138
      9 H           3.8011   -1.1675    0.0001 H       1  LIG1        0.1232
     10 H           2.9250    3.5578    0.0000 H       1  LIG1        0.0669
     11 C           0.5002    5.2601   -0.0001 C.ar    1  LIG1        0.1860
     12 C          -0.6401    6.0298   -0.0001 C.ar    1  LIG1        0.0741
     13 C          -0.1917    7.3888   -0.0001 C.ar    1  LIG1        0.0035
     14 C           1.1682    7.3449   -0.0001 C.ar    1  LIG1        0.1732
     15 O           1.5970    6.0543   -0.0001 O.2     1  LIG1       -0.4473
     16 C          -1.9886    5.5855   -0.0001 C.1     1  LIG1       -0.0657
     17 C          -3.1410    5.2392   -0.0001 C.1     1  LIG1       -0.1138
     18 H          -4.1582    4.9220   -0.0001 H       1  LIG1        0.1232
     19 H          -0.8041    8.2767   -0.0001 H       1  LIG1        0.0669
     20 C           2.1645    8.3751   -0.0001 C.ar    1  LIG1        0.1860
     21 C           3.5404    8.3811   -0.0001 C.ar    1  LIG1        0.0741
     22 C           3.9219    9.7608   -0.0001 C.ar    1  LIG1        0.0035
     23 C           2.7675   10.4804   -0.0002 C.ar    1  LIG1        0.1731
     24 O           1.6944    9.6450   -0.0001 O.2     1  LIG1       -0.4473
     25 C           4.4158    7.2633   -0.0000 C.1     1  LIG1       -0.0657
     26 C           5.1856    6.3380   -0.0000 C.1     1  LIG1       -0.1138
     27 H           5.8667    5.5184    0.0000 H       1  LIG1        0.1232
     28 H           4.9265   10.1527   -0.0001 H       1  LIG1        0.0669
     29 C           2.5005   11.8914   -0.0002 C.ar    1  LIG1        0.1850
     30 C           1.3495   12.6407   -0.0002 C.ar    1  LIG1        0.0734
     31 C           1.7834   14.0117   -0.0002 C.ar    1  LIG1       -0.0077
     32 C           3.1331   13.9852   -0.0002 C.ar    1  LIG1        0.0939
     33 O           3.5854   12.7033   -0.0002 O.2     1  LIG1       -0.4586
     34 H           3.8917   14.7509   -0.0003 H       1  LIG1        0.1030
     35 C           0.0063   12.1817   -0.0002 C.1     1  LIG1       -0.0658
     36 C          -1.1452   11.8304   -0.0002 C.1     1  LIG1       -0.1138
     37 H          -2.1640   11.5180   -0.0001 H       1  LIG1        0.1232
     38 H           1.1458   14.8820   -0.0003 H       1  LIG1        0.0661
@<TRIPOS>BOND
     1    34    32    1
     2    38    31    1
     3    32    31   ar
     4    32    33   ar
     5    31    30   ar
     6    33    29   ar
     7    30    29   ar
     8    30    35    1
     9    29    23    1
    10    35    36    3
    11    36    37    1
    12    23    24   ar
    13    23    22   ar
    14    24    20   ar
    15    28    22    1
    16    19    13    1
    17    22    21   ar
    18    18    17    1
    19    13    14   ar
    20    13    12   ar
    21    20    14    1
    22    20    21   ar
    23    14    15   ar
    24    21    25    1
    25    17    16    3
    26    16    12    1
    27    12    11   ar
    28    15    11   ar
    29    11     4    1
    30    25    26    3
    31    26    27    1
    32     4     5   ar
    33     4     3   ar
    34     5     1   ar
    35     3     2   ar
    36     3    10    1
    37     2     1   ar
    38     2     7    1
    39     1     6    1
    40     7     8    3
    41     9     8    1
