@<TRIPOS>MOLECULE
mol_data/opt/cam/geoms/mol2/12ea12ea-.out
 20 21 0 0 0
SMALL
GASTEIGER

@<TRIPOS>ATOM
      1 C           0.2215    1.8312    0.0001 C.ar    1  LIG1        0.1081
      2 C           1.5854    1.8412   -0.0001 C.ar    1  LIG1        0.0630
      3 C           1.9645    3.2248   -0.0001 C.ar    1  LIG1        0.0027
      4 C           0.8036    3.9333   -0.0001 C.ar    1  LIG1        0.1721
      5 O          -0.2635    3.0901    0.0000 O.2     1  LIG1       -0.4585
      6 H          -0.5043    1.0345    0.0001 H       1  LIG1        0.1042
      7 C           2.4442    0.7076   -0.0001 C.1     1  LIG1       -0.0665
      8 C           3.1764   -0.2472   -0.0001 C.1     1  LIG1       -0.1138
      9 H           3.8236   -1.0937    0.0006 H       1  LIG1        0.1232
     10 H           2.9655    3.6257   -0.0001 H       1  LIG1        0.0669
     11 C           0.5357    5.3471   -0.0001 C.ar    1  LIG1        0.1850
     12 C          -0.6102    6.1025   -0.0001 C.ar    1  LIG1        0.0734
     13 C          -0.1694    7.4717   -0.0001 C.ar    1  LIG1       -0.0077
     14 C           1.1799    7.4383   -0.0002 C.ar    1  LIG1        0.0939
     15 O           1.6247    6.1537   -0.0002 O.2     1  LIG1       -0.4586
     16 H           1.9428    8.1997   -0.0002 H       1  LIG1        0.1030
     17 C          -1.9560    5.6511    0.0000 C.1     1  LIG1       -0.0658
     18 C          -3.1084    5.3041    0.0001 C.1     1  LIG1       -0.1138
     19 H          -4.1248    4.9845   -0.0002 H       1  LIG1        0.1232
     20 H          -0.8029    8.3450   -0.0001 H       1  LIG1        0.0661
@<TRIPOS>BOND
     1    16    14    1
     2    19    18    1
     3    14    15   ar
     4    14    13   ar
     5    15    11   ar
     6     7     8    3
     7     7     2    1
     8    13    20    1
     9    13    12   ar
    10    10     3    1
    11    11    12   ar
    12    11     4    1
    13     8     9    1
    14     2     3   ar
    15     2     1   ar
    16    12    17    1
    17     3     4   ar
    18     4     5   ar
    19    17    18    3
    20     5     1   ar
    21     1     6    1
