@<TRIPOS>MOLECULE
mol_data/opt/cam/geoms/mol2/12ea12ea-12ea-12ea-.out
 38 41 0 0 0
SMALL
GASTEIGER

@<TRIPOS>ATOM
      1 C          -0.0074    1.7323   -0.0000 C.ar    1  LIG1        0.1081
      2 C           1.3558    1.6753    0.0000 C.ar    1  LIG1        0.0630
      3 C           1.8026    3.0379   -0.0000 C.ar    1  LIG1        0.0027
      4 C           0.6769    3.8025   -0.0000 C.ar    1  LIG1        0.1721
      5 O          -0.4308    3.0127   -0.0000 O.2     1  LIG1       -0.4585
      6 H          -0.7710    0.9718   -0.0001 H       1  LIG1        0.1042
      7 C           2.1568    0.5001    0.0001 C.1     1  LIG1       -0.0665
      8 C           2.8395   -0.4906    0.0001 C.1     1  LIG1       -0.1138
      9 H           3.4430   -1.3688    0.0001 H       1  LIG1        0.1232
     10 H           2.8214    3.3914   -0.0000 H       1  LIG1        0.0669
     11 C           0.4822    5.2256   -0.0001 C.ar    1  LIG1        0.1860
     12 C          -0.6249    6.0419   -0.0001 C.ar    1  LIG1        0.0741
     13 C          -0.1210    7.3808   -0.0001 C.ar    1  LIG1        0.0035
     14 C           1.2371    7.2830   -0.0001 C.ar    1  LIG1        0.1732
     15 O           1.6110    5.9723   -0.0001 O.2     1  LIG1       -0.4473
     16 C          -1.9917    5.6573   -0.0000 C.1     1  LIG1       -0.0657
     17 C          -3.1586    5.3641   -0.0000 C.1     1  LIG1       -0.1138
     18 H          -4.1892    5.0937   -0.0001 H       1  LIG1        0.1232
     19 H          -0.6994    8.2904   -0.0001 H       1  LIG1        0.0669
     20 C           2.2863    8.2627   -0.0001 C.ar    1  LIG1        0.1860
     21 C           2.2682    9.6394   -0.0001 C.ar    1  LIG1        0.0741
     22 C           3.6372   10.0494   -0.0001 C.ar    1  LIG1        0.0035
     23 C           4.3788    8.9074   -0.0001 C.ar    1  LIG1        0.1731
     24 O           3.5624    7.8164   -0.0001 O.2     1  LIG1       -0.4473
     25 C           1.1213   10.4746   -0.0001 C.1     1  LIG1       -0.0657
     26 C           0.1500   11.1866   -0.0001 C.1     1  LIG1       -0.1138
     27 H          -0.7047   11.8234   -0.0001 H       1  LIG1        0.1232
     28 H           4.0139   11.0594   -0.0001 H       1  LIG1        0.0669
     29 C           5.7963    8.6656   -0.0001 C.ar    1  LIG1        0.1850
     30 C           6.8780    9.5138   -0.0001 C.ar    1  LIG1        0.0734
     31 C           8.0365    8.6649   -0.0001 C.ar    1  LIG1       -0.0077
     32 C           7.5746    7.3956   -0.0001 C.ar    1  LIG1        0.0939
     33 O           6.2160    7.3799   -0.0001 O.2     1  LIG1       -0.4586
     34 H           8.0547    6.4306   -0.0001 H       1  LIG1        0.1030
     35 C           6.8501   10.9320   -0.0002 C.1     1  LIG1       -0.0658
     36 C           6.8327   12.1364   -0.0002 C.1     1  LIG1       -0.1138
     37 H           6.8251   13.2021   -0.0002 H       1  LIG1        0.1232
     38 H           9.0661    8.9872   -0.0001 H       1  LIG1        0.0661
@<TRIPOS>BOND
     1    36    35    3
     2    36    37    1
     3    35    30    1
     4    28    22    1
     5    30    29   ar
     6    30    31   ar
     7    27    26    1
     8    22    23   ar
     9    22    21   ar
    10    26    25    3
    11    25    21    1
    12    38    31    1
    13    29    23    1
    14    29    33   ar
    15    31    32   ar
    16    23    24   ar
    17    21    20   ar
    18    32    33   ar
    19    32    34    1
    20    20    24   ar
    21    20    14    1
    22    19    13    1
    23    14    13   ar
    24    14    15   ar
    25    13    12   ar
    26    15    11   ar
    27    11    12   ar
    28    11     4    1
    29     6     1    1
    30    12    16    1
    31    18    17    1
    32     5     1   ar
    33     5     4   ar
    34     1     2   ar
    35     4     3   ar
    36    10     3    1
    37     3     2   ar
    38    16    17    3
    39     2     7    1
    40     7     8    3
    41     8     9    1
