@<TRIPOS>MOLECULE
mol_data/opt/cam/geoms/mol2/12ea12ea12ea-12ea-.out
 38 41 0 0 0
SMALL
GASTEIGER

@<TRIPOS>ATOM
      1 C           0.3497    1.6846   -0.0000 C.ar    1  LIG1        0.1081
      2 C           1.7116    1.7651    0.0000 C.ar    1  LIG1        0.0630
      3 C           2.0191    3.1653    0.0000 C.ar    1  LIG1        0.0027
      4 C           0.8219    3.8144   -0.0000 C.ar    1  LIG1        0.1721
      5 O          -0.2010    2.9145   -0.0001 O.2     1  LIG1       -0.4585
      6 H          -0.3325    0.8500   -0.0000 H       1  LIG1        0.1042
      7 C           2.6276    0.6771    0.0001 C.1     1  LIG1       -0.0665
      8 C           3.4073   -0.2393    0.0001 C.1     1  LIG1       -0.1138
      9 H           4.0966   -1.0519   -0.0002 H       1  LIG1        0.1232
     10 H           2.9966    3.6195    0.0001 H       1  LIG1        0.0669
     11 C           0.4716    5.2088   -0.0000 C.ar    1  LIG1        0.1860
     12 C           1.2340    6.3552   -0.0000 C.ar    1  LIG1        0.0741
     13 C           0.3067    7.4424   -0.0001 C.ar    1  LIG1        0.0035
     14 C          -0.9351    6.8845   -0.0001 C.ar    1  LIG1        0.1732
     15 O          -0.8424    5.5270   -0.0001 O.2     1  LIG1       -0.4473
     16 C           2.6508    6.4350    0.0001 C.1     1  LIG1       -0.0657
     17 C           3.8529    6.5081    0.0001 C.1     1  LIG1       -0.1138
     18 H           4.9161    6.5814    0.0002 H       1  LIG1        0.1232
     19 H           0.5395    8.4953   -0.0001 H       1  LIG1        0.0669
     20 C          -2.2470    7.4642   -0.0002 C.ar    1  LIG1        0.1860
     21 C          -3.5227    6.9497   -0.0002 C.ar    1  LIG1        0.0741
     22 C          -4.3981    8.0815   -0.0003 C.ar    1  LIG1        0.0035
     23 C          -3.6030    9.1860   -0.0003 C.ar    1  LIG1        0.1731
     24 O          -2.2909    8.8182   -0.0002 O.2     1  LIG1       -0.4473
     25 C          -3.9089    5.5839   -0.0003 C.1     1  LIG1       -0.0657
     26 C          -4.2619    4.4337   -0.0002 C.1     1  LIG1       -0.1138
     27 H          -4.5606    3.4111    0.0005 H       1  LIG1        0.1232
     28 H          -5.4760    8.0666   -0.0003 H       1  LIG1        0.0669
     29 C          -3.8873   10.5955   -0.0003 C.ar    1  LIG1        0.1850
     30 C          -5.0670   11.3010   -0.0004 C.ar    1  LIG1        0.0734
     31 C          -4.6904   12.6869   -0.0004 C.ar    1  LIG1       -0.0077
     32 C          -3.3399   12.7116   -0.0003 C.ar    1  LIG1        0.0939
     33 O          -2.8375   11.4490   -0.0003 O.2     1  LIG1       -0.4586
     34 H          -2.6117   13.5062   -0.0003 H       1  LIG1        0.1030
     35 C          -6.3806   10.7658   -0.0004 C.1     1  LIG1       -0.0658
     36 C          -7.4984   10.3170   -0.0004 C.1     1  LIG1       -0.1138
     37 H          -8.4896    9.9254    0.0003 H       1  LIG1        0.1232
     38 H          -5.3607   13.5322   -0.0004 H       1  LIG1        0.0661
@<TRIPOS>BOND
     1    35    36    3
     2    35    30    1
     3    36    37    1
     4    38    31    1
     5    31    30   ar
     6    31    32   ar
     7    30    29   ar
     8    28    22    1
     9    29    23    1
    10    29    33   ar
    11    22    23   ar
    12    22    21   ar
    13    32    34    1
    14    32    33   ar
    15    23    24   ar
    16    25    21    1
    17    25    26    3
    18    21    20   ar
    19    26    27    1
    20     9     8    1
    21    24    20   ar
    22    20    14    1
    23    14    15   ar
    24    14    13   ar
    25    15    11   ar
    26    13    19    1
    27    13    12   ar
    28     5     1   ar
    29     5     4   ar
    30     6     1    1
    31    11     4    1
    32    11    12   ar
    33     1     2   ar
    34     4     3   ar
    35    12    16    1
    36     2     3   ar
    37     2     7    1
    38     3    10    1
    39     7     8    3
    40    16    17    3
    41    17    18    1
