@<TRIPOS>MOLECULE
mol_data/opt/cam/geoms/mol2/12ed4ha-6ai-4ii.out
 52 55 0 0 0
SMALL
GASTEIGER

@<TRIPOS>ATOM
      1 C           0.2223    1.6467   -0.1589 C.ar    1  LIG1        0.1092
      2 C           1.5684    1.5132   -0.3345 C.ar    1  LIG1        0.0804
      3 C           2.0804    2.8738   -0.3683 C.ar    1  LIG1        0.1128
      4 C           1.0023    3.7257   -0.1950 C.ar    1  LIG1        0.1551
      5 O          -0.1243    2.9579   -0.0731 O.2     1  LIG1       -0.4603
      6 H          -0.5782    0.9297   -0.0742 H       1  LIG1        0.1042
      7 C           2.3128    0.3161   -0.4707 C.1     1  LIG1       -0.0652
      8 C           2.9592   -0.6987   -0.5884 C.1     1  LIG1       -0.1138
      9 H           3.5327   -1.5908   -0.6930 H       1  LIG1        0.1232
     10 N           4.5341    3.5489   -0.7915 N.1     1  LIG1       -0.1907
     11 C           3.4265    3.2323   -0.6132 C.1     1  LIG1        0.1042
     12 C           1.6666    6.1030    0.4479 C.ar    1  LIG1        0.0359
     13 C           1.3023    7.4632    0.4399 C.ar    1  LIG1       -0.0326
     14 C           0.7846    5.1689   -0.1655 C.ar    1  LIG1        0.0392
     15 C           0.1138    7.9258   -0.1250 C.ar    1  LIG1       -0.0147
     16 H           1.9936    8.1762    0.8811 H       1  LIG1        0.0642
     17 C          -0.4145    5.6496   -0.7316 C.ar    1  LIG1       -0.0487
     18 C          -0.7535    6.9903   -0.7219 C.ar    1  LIG1       -0.0532
     19 H          -1.0892    4.9321   -1.1855 H       1  LIG1        0.0625
     20 N           2.8144    5.7320    1.1273 N.pl3   1  LIG1       -0.3574
     21 H           3.3496    4.9492    0.7809 H       1  LIG1        0.1423
     22 H           3.4136    6.5030    1.3870 H       1  LIG1        0.1423
     23 H          -1.6953    7.3143   -1.1505 H       1  LIG1        0.0624
     24 C          -0.8595    9.9837   -1.1944 C.ar    1  LIG1        0.0360
     25 C          -0.2256    9.3672   -0.1046 C.ar    1  LIG1        0.0006
     26 C           0.0777   10.1952    0.9824 C.ar    1  LIG1       -0.0476
     27 C          -0.2607   11.5498    0.9797 C.ar    1  LIG1       -0.0239
     28 C          -0.9279   12.0482   -0.1629 C.ar    1  LIG1        0.0742
     29 N          -1.1969   11.2715   -1.2278 N.ar    1  LIG1       -0.2541
     30 H           0.5720    9.7755    1.8551 H       1  LIG1        0.0627
     31 H          -1.0817    9.4082   -2.0910 H       1  LIG1        0.0836
     32 C           0.0978   12.4186    2.1631 C.3     1  LIG1       -0.0377
     33 H          -0.7472   12.5407    2.8501 H       1  LIG1        0.0278
     34 H           0.3980   13.4212    1.8490 H       1  LIG1        0.0278
     35 H           0.9189   11.9728    2.7321 H       1  LIG1        0.0278
     36 C          -0.9280   14.3267   -1.2809 C.ar    1  LIG1       -0.0413
     37 C          -1.4276   15.6331   -1.3123 C.ar    1  LIG1       -0.0580
     38 C          -1.3907   13.4687   -0.2594 C.ar    1  LIG1        0.0038
     39 C          -2.3611   16.0880   -0.3822 C.ar    1  LIG1       -0.0586
     40 H          -1.0723   16.3113   -2.0842 H       1  LIG1        0.0620
     41 C          -2.3267   13.9403    0.6699 C.ar    1  LIG1       -0.0494
     42 C          -2.8337   15.2431    0.6261 C.ar    1  LIG1       -0.0498
     43 H          -2.6855   13.2620    1.4405 H       1  LIG1        0.0627
     44 H          -2.7241   17.1112   -0.4423 H       1  LIG1        0.0620
     45 C           0.0839   13.8774   -2.3086 C.3     1  LIG1       -0.0391
     46 H           0.3805   14.7115   -2.9502 H       1  LIG1        0.0278
     47 H          -0.3228   13.0797   -2.9362 H       1  LIG1        0.0278
     48 H           0.9884   13.4769   -1.8370 H       1  LIG1        0.0278
     49 C          -3.8764   15.7074    1.6159 C.3     1  LIG1       -0.0397
     50 H          -3.8007   15.1646    2.5629 H       1  LIG1        0.0278
     51 H          -4.8910   15.5474    1.2301 H       1  LIG1        0.0278
     52 H          -3.7768   16.7759    1.8300 H       1  LIG1        0.0278
@<TRIPOS>BOND
     1    46    45    1
     2    47    45    1
     3    45    48    1
     4    45    36    1
     5    31    24    1
     6    40    37    1
     7    37    36   ar
     8    37    39   ar
     9    36    38   ar
    10    29    24   ar
    11    29    28   ar
    12    24    25   ar
    13    19    17    1
    14    23    18    1
    15    10    11    3
    16    17    18   ar
    17    17    14   ar
    18    18    15   ar
    19     9     8    1
    20    11     3    1
    21     8     7    3
    22     7     2    1
    23    44    39    1
    24    39    42   ar
    25     3     2   ar
    26     3     4   ar
    27     2     1   ar
    28    38    28    1
    29    38    41   ar
    30     4    14    1
    31     4     5   ar
    32    14    12   ar
    33    28    27   ar
    34     1     6    1
    35     1     5   ar
    36    15    25    1
    37    15    13   ar
    38    25    26   ar
    39    13    12   ar
    40    13    16    1
    41    12    20    1
    42    42    41   ar
    43    42    49    1
    44    41    43    1
    45    21    20    1
    46    27    26   ar
    47    27    32    1
    48    26    30    1
    49    20    22    1
    50    51    49    1
    51    49    52    1
    52    49    50    1
    53    34    32    1
    54    32    35    1
    55    32    33    1
