@<TRIPOS>MOLECULE
mol_data/opt/cam/geoms/mol2/12ed4hh13ll4hf.out
 55 58 0 0 0
SMALL
GASTEIGER

@<TRIPOS>ATOM
      1 C          -0.0119    1.6077    0.8786 C.ar    1  LIG1        0.1092
      2 C           1.2594    1.3701    0.4726 C.ar    1  LIG1        0.0804
      3 C           1.7813    2.6650    0.0931 C.ar    1  LIG1        0.1128
      4 C           0.7872    3.5876    0.3152 C.ar    1  LIG1        0.1551
      5 O          -0.3026    2.9268    0.7887 O.2     1  LIG1       -0.4603
      6 H          -0.7929    0.9637    1.2482 H       1  LIG1        0.1042
      7 C           1.9354    0.1234    0.4130 C.1     1  LIG1       -0.0652
      8 C           2.5179   -0.9273    0.3575 C.1     1  LIG1       -0.1138
      9 H           3.0385   -1.8560    0.3071 H       1  LIG1        0.1232
     10 N           4.0947    3.1303   -0.9355 N.1     1  LIG1       -0.1907
     11 C           3.0540    2.9032   -0.4797 C.1     1  LIG1        0.1042
     12 C           1.6203    5.9831    0.3983 C.ar    1  LIG1        0.0361
     13 C           1.2843    7.3334    0.2547 C.ar    1  LIG1       -0.0294
     14 C           0.6217    5.0244    0.1297 C.ar    1  LIG1        0.0409
     15 C           0.0219    7.7745   -0.1312 C.ar    1  LIG1        0.0244
     16 H           2.0378    8.0798    0.4779 H       1  LIG1        0.0643
     17 C          -0.6407    5.4691   -0.2921 C.ar    1  LIG1       -0.0279
     18 C          -0.9607    6.8035   -0.4351 C.ar    1  LIG1        0.0347
     19 H          -1.3950    4.7224   -0.5192 H       1  LIG1        0.0644
     20 N           2.8710    5.6586    0.9050 N.pl3   1  LIG1       -0.3574
     21 H           3.3493    4.8650    0.5057 H       1  LIG1        0.1423
     22 H           3.4899    6.4522    0.9851 H       1  LIG1        0.1423
     23 N          -2.2647    7.1983   -0.8576 N.pl3   1  LIG1       -0.3574
     24 H          -2.2286    7.6996   -1.7411 H       1  LIG1        0.1423
     25 H          -2.8658    6.3910   -0.9756 H       1  LIG1        0.1423
     26 C          -0.2460    9.2096   -0.1918 C.ar    1  LIG1        0.0947
     27 C           0.6144   10.2947   -0.2237 C.ar    1  LIG1        0.1875
     28 C          -0.1637   11.4774   -0.1688 C.ar    1  LIG1        0.1875
     29 C          -1.5033   11.1120   -0.1172 C.ar    1  LIG1        0.0948
     30 N          -1.5121    9.7389   -0.1453 N.ar    1  LIG1       -0.3482
     31 H          -2.3234    9.1529   -0.0013 H       1  LIG1        0.1661
     32 O           1.9810   10.2473   -0.2986 O.3     1  LIG1       -0.4895
     33 C           2.4920   10.6430   -1.5689 C.3     1  LIG1        0.0791
     34 H           3.5795   10.5919   -1.5001 H       1  LIG1        0.0660
     35 H           2.1433    9.9647   -2.3549 H       1  LIG1        0.0660
     36 H           2.1857   11.6651   -1.8124 H       1  LIG1        0.0660
     37 O           0.3500   12.7492   -0.2494 O.3     1  LIG1       -0.4895
     38 C           1.2797   13.0561    0.7975 C.3     1  LIG1        0.0791
     39 H           1.6681   14.0521    0.5800 H       1  LIG1        0.0660
     40 H           0.7678   13.0590    1.7653 H       1  LIG1        0.0660
     41 H           2.0973   12.3334    0.8155 H       1  LIG1        0.0660
     42 C          -2.9789   13.0850    0.4983 C.ar    1  LIG1        0.0341
     43 C          -4.2716   13.6207    0.5288 C.ar    1  LIG1       -0.0370
     44 C          -2.7868   11.8308   -0.1134 C.ar    1  LIG1        0.0261
     45 C          -5.3574   12.9669   -0.0229 C.ar    1  LIG1       -0.0184
     46 H          -4.4207   14.5835    1.0100 H       1  LIG1        0.0637
     47 C          -3.8944   11.1951   -0.6984 C.ar    1  LIG1       -0.0092
     48 C          -5.1656   11.7427   -0.6540 C.ar    1  LIG1        0.1176
     49 H          -3.7466   10.2523   -1.2189 H       1  LIG1        0.0661
     50 H          -6.3515   13.3974    0.0107 H       1  LIG1        0.0655
     51 N          -1.9260   13.7642    1.1154 N.pl3   1  LIG1       -0.3575
     52 H          -1.0709   13.7360    0.5721 H       1  LIG1        0.1423
     53 H          -2.1703   14.7100    1.3743 H       1  LIG1        0.1423
     54 O          -6.2552   11.1381   -1.2182 O.3     1  LIG1       -0.5067
     55 H          -5.9835   10.3008   -1.6101 H       1  LIG1        0.2921
@<TRIPOS>BOND
     1    35    33    1
     2    36    33    1
     3    24    23    1
     4    55    54    1
     5    33    34    1
     6    33    32    1
     7    49    47    1
     8    54    48    1
     9    25    23    1
    10    10    11    3
    11    23    18    1
    12    47    48   ar
    13    47    44   ar
    14    48    45   ar
    15    19    17    1
    16    11     3    1
    17    18    17   ar
    18    18    15   ar
    19    32    27    1
    20    17    14   ar
    21    37    28    1
    22    37    38    1
    23    27    26   ar
    24    27    28   ar
    25    26    30   ar
    26    26    15    1
    27    28    29   ar
    28    30    29   ar
    29    30    31    1
    30    15    13   ar
    31    29    44    1
    32    44    42   ar
    33    45    50    1
    34    45    43   ar
    35     3     4   ar
    36     3     2   ar
    37    14     4    1
    38    14    12   ar
    39    13    12   ar
    40    13    16    1
    41     9     8    1
    42     4     5   ar
    43     8     7    3
    44    12    20    1
    45     7     2    1
    46     2     1   ar
    47    42    43   ar
    48    42    51    1
    49    21    20    1
    50    43    46    1
    51    52    51    1
    52    39    38    1
    53     5     1   ar
    54    38    41    1
    55    38    40    1
    56     1     6    1
    57    20    22    1
    58    51    53    1
