@<TRIPOS>MOLECULE
mol_data/opt/cam/geoms/mol2/12ee12ee.out
 24 25 0 0 0
SMALL
GASTEIGER

@<TRIPOS>ATOM
      1 C           0.2659    1.8600    0.5767 C.ar    1  LIG1        0.1093
      2 C           1.5685    1.8087    0.1914 C.ar    1  LIG1        0.0785
      3 C           1.9285    3.1668   -0.1562 C.ar    1  LIG1        0.0888
      4 C           0.8054    3.9179    0.0701 C.ar    1  LIG1        0.1874
      5 O          -0.2061    3.1210    0.5097 O.2     1  LIG1       -0.4573
      6 H          -0.4249    1.1022    0.9092 H       1  LIG1        0.1042
      7 C           2.3994    0.6591    0.1246 C.1     1  LIG1       -0.0653
      8 C           3.1043   -0.3137    0.0679 C.1     1  LIG1       -0.1138
      9 H           3.7314   -1.1738    0.0166 H       1  LIG1        0.1232
     10 C           3.1705    3.5916   -0.6899 C.1     1  LIG1       -0.0645
     11 C           4.2238    3.9322   -1.1601 C.1     1  LIG1       -0.1138
     12 H           5.1527    4.2431   -1.5795 H       1  LIG1        0.1232
     13 C           0.5019    5.3212   -0.0701 C.ar    1  LIG1        0.1874
     14 C           1.2142    6.4693    0.1561 C.ar    1  LIG1        0.0888
     15 C           0.3250    7.5572   -0.1915 C.ar    1  LIG1        0.0785
     16 C          -0.8400    6.9722   -0.5765 C.ar    1  LIG1        0.1093
     17 O          -0.7487    5.6288   -0.5096 O.2     1  LIG1       -0.4573
     18 H          -1.7822    7.3767   -0.9090 H       1  LIG1        0.1042
     19 C           2.5208    6.5957    0.6896 C.1     1  LIG1       -0.0645
     20 C           3.6207    6.7210    1.1598 C.1     1  LIG1       -0.1138
     21 H           4.5950    6.8217    1.5791 H       1  LIG1        0.1232
     22 C           0.6066    8.9474   -0.1247 C.1     1  LIG1       -0.0653
     23 C           0.8466   10.1246   -0.0679 C.1     1  LIG1       -0.1138
     24 H           1.0623   11.1669   -0.0166 H       1  LIG1        0.1232
@<TRIPOS>BOND
     1    12    11    1
     2    11    10    3
     3    18    16    1
     4    10     3    1
     5    16    17   ar
     6    16    15   ar
     7    17    13   ar
     8    15    22    1
     9    15    14   ar
    10     3     4   ar
    11     3     2   ar
    12    22    23    3
    13    13     4    1
    14    13    14   ar
    15    23    24    1
    16     9     8    1
    17     8     7    3
    18     4     5   ar
    19     7     2    1
    20    14    19    1
    21     2     1   ar
    22     5     1   ar
    23     1     6    1
    24    19    20    3
    25    20    21    1
