@<TRIPOS>MOLECULE
mol_data/opt/cam/geoms/mol2/12ee12ee12ee12ee-.out
 46 49 0 0 0
SMALL
GASTEIGER

@<TRIPOS>ATOM
      1 C           0.9640    2.2475   -2.0774 C.ar    1  LIG1        0.1093
      2 C           1.9463    1.9852   -1.1745 C.ar    1  LIG1        0.0785
      3 C           2.0224    3.1553   -0.3267 C.ar    1  LIG1        0.0888
      4 C           1.0825    4.0266   -0.8121 C.ar    1  LIG1        0.1875
      5 O           0.4359    3.4700   -1.8719 O.2     1  LIG1       -0.4573
      6 H           0.5512    1.6734   -2.8911 H       1  LIG1        0.1042
      7 C           2.7237    0.8014   -1.0710 C.1     1  LIG1       -0.0653
      8 C           3.3829   -0.2006   -0.9821 C.1     1  LIG1       -0.1138
      9 H           3.9690   -1.0869   -0.9010 H       1  LIG1        0.1232
     10 C           2.8519    3.3093    0.8116 C.1     1  LIG1       -0.0645
     11 C           3.5480    3.4150    1.7867 C.1     1  LIG1       -0.1138
     12 H           4.1587    3.5173    2.6539 H       1  LIG1        0.1232
     13 C           0.6602    5.3507   -0.4278 C.ar    1  LIG1        0.1885
     14 C           1.3246    6.4549    0.0385 C.ar    1  LIG1        0.0896
     15 C           0.3148    7.4654    0.2478 C.ar    1  LIG1        0.0896
     16 C          -0.8703    6.8988   -0.1448 C.ar    1  LIG1        0.1885
     17 O          -0.6644    5.6187   -0.5455 O.2     1  LIG1       -0.4460
     18 C           2.7185    6.6194    0.2323 C.1     1  LIG1       -0.0645
     19 C           3.9006    6.7822    0.3821 C.1     1  LIG1       -0.1138
     20 H           4.9499    6.9170    0.5091 H       1  LIG1        0.1232
     21 C           0.5289    8.7507    0.8037 C.1     1  LIG1       -0.0645
     22 C           0.7255    9.8295    1.2978 C.1     1  LIG1       -0.1138
     23 H           0.8884   10.7862    1.7377 H       1  LIG1        0.1232
     24 C          -2.2288    7.3740   -0.1957 C.ar    1  LIG1        0.1885
     25 C          -2.7999    8.5840   -0.4942 C.ar    1  LIG1        0.0896
     26 C          -4.2242    8.3967   -0.3580 C.ar    1  LIG1        0.0896
     27 C          -4.3944    7.0804   -0.0056 C.ar    1  LIG1        0.1885
     28 O          -3.1957    6.4638    0.0929 O.2     1  LIG1       -0.4460
     29 C          -2.1573    9.7695   -0.9288 C.1     1  LIG1       -0.0645
     30 C          -1.6300   10.7771   -1.3199 C.1     1  LIG1       -0.1138
     31 H          -1.1531   11.6639   -1.6686 H       1  LIG1        0.1232
     32 C          -5.2147    9.3868   -0.5739 C.1     1  LIG1       -0.0645
     33 C          -6.0321   10.2487   -0.7638 C.1     1  LIG1       -0.1138
     34 H          -6.7594   11.0092   -0.9314 H       1  LIG1        0.1232
     35 C          -5.5556    6.2818    0.2663 C.ar    1  LIG1        0.1875
     36 C          -5.7249    4.9666    0.6215 C.ar    1  LIG1        0.0888
     37 C          -7.1539    4.7820    0.7486 C.ar    1  LIG1        0.0785
     38 C          -7.7110    5.9888    0.4624 C.ar    1  LIG1        0.1093
     39 O          -6.7594    6.8994    0.1706 O.2     1  LIG1       -0.4573
     40 H          -8.7323    6.3313    0.4290 H       1  LIG1        0.1042
     41 C          -4.7324    3.9772    0.8281 C.1     1  LIG1       -0.0645
     42 C          -3.9073    3.1209    1.0095 C.1     1  LIG1       -0.1138
     43 H          -3.1684    2.3695    1.1675 H       1  LIG1        0.1232
     44 C          -7.8335    3.5858    1.1004 C.1     1  LIG1       -0.0653
     45 C          -8.4081    2.5722    1.3985 C.1     1  LIG1       -0.1138
     46 H          -8.9138    1.6723    1.6632 H       1  LIG1        0.1232
@<TRIPOS>BOND
     1     6     1    1
     2     1     5   ar
     3     1     2   ar
     4     5     4   ar
     5    31    30    1
     6    30    29    3
     7     2     7    1
     8     2     3   ar
     9     7     8    3
    10     8     9    1
    11    34    33    1
    12    29    25    1
    13     4    13    1
    14     4     3   ar
    15    33    32    3
    16    32    26    1
    17    17    13   ar
    18    17    16   ar
    19    25    26   ar
    20    25    24   ar
    21    13    14   ar
    22    26    27   ar
    23     3    10    1
    24    24    16    1
    25    24    28   ar
    26    16    15   ar
    27    27    28   ar
    28    27    35    1
    29    14    18    1
    30    14    15   ar
    31    39    35   ar
    32    39    38   ar
    33    18    19    3
    34    15    21    1
    35    35    36   ar
    36    19    20    1
    37    40    38    1
    38    38    37   ar
    39    36    37   ar
    40    36    41    1
    41    37    44    1
    42    21    22    3
    43    10    11    3
    44    41    42    3
    45    42    43    1
    46    44    45    3
    47    22    23    1
    48    45    46    1
    49    11    12    1
