@<TRIPOS>MOLECULE
mol_data/opt/cam/geoms/mol2/12ee4ih4ef-6fl-.out
 55 58 0 0 0
SMALL
GASTEIGER

@<TRIPOS>ATOM
      1 C           0.3769    1.6354    0.6482 C.ar    1  LIG1        0.1092
      2 C           1.6447    1.5586    0.1690 C.ar    1  LIG1        0.0783
      3 C           2.0412    2.9253   -0.1056 C.ar    1  LIG1        0.0857
      4 C           0.9769    3.7126    0.2465 C.ar    1  LIG1        0.1516
      5 O          -0.0373    2.9194    0.6958 O.2     1  LIG1       -0.4604
      6 H          -0.3214    0.8871    0.9866 H       1  LIG1        0.1042
      7 C           2.4171    0.3843   -0.0342 C.1     1  LIG1       -0.0653
      8 C           3.0728   -0.6092   -0.2069 C.1     1  LIG1       -0.1138
      9 H           3.6551   -1.4884   -0.3603 H       1  LIG1        0.1232
     10 C           3.2648    3.3191   -0.7066 C.1     1  LIG1       -0.0646
     11 C           4.3050    3.6208   -1.2318 C.1     1  LIG1       -0.1138
     12 H           5.2227    3.8846   -1.7045 H       1  LIG1        0.1232
     13 C           1.5549    6.1299    0.6753 C.ar    1  LIG1       -0.0391
     14 C           1.1545    7.4565    0.5476 C.ar    1  LIG1       -0.0486
     15 C           0.6829    5.1488    0.1759 C.ar    1  LIG1        0.0232
     16 C          -0.0532    7.8454   -0.0261 C.ar    1  LIG1        0.0043
     17 H           1.8075    8.2322    0.9344 H       1  LIG1        0.0627
     18 C          -0.5355    5.5189   -0.3940 C.ar    1  LIG1       -0.0295
     19 C          -0.9240    6.8506   -0.5084 C.ar    1  LIG1        0.0331
     20 H          -1.1965    4.7426   -0.7665 H       1  LIG1        0.0643
     21 C           2.8520    5.8080    1.3681 C.3     1  LIG1       -0.0390
     22 H           3.1621    6.6442    1.9987 H       1  LIG1        0.0278
     23 H           3.6554    5.6066    0.6552 H       1  LIG1        0.0278
     24 H           2.7615    4.9218    2.0009 H       1  LIG1        0.0278
     25 N          -2.1674    7.1696   -1.0590 N.pl3   1  LIG1       -0.3575
     26 H          -2.2101    8.0731   -1.5095 H       1  LIG1        0.1423
     27 H          -2.5539    6.4435   -1.6452 H       1  LIG1        0.1423
     28 C           0.4015   10.2590   -0.6730 C.ar    1  LIG1        0.0332
     29 C           0.0016   11.5989   -0.6536 C.ar    1  LIG1       -0.0344
     30 C          -0.4220    9.2846   -0.0769 C.ar    1  LIG1        0.0027
     31 C          -1.1848   12.0336   -0.0669 C.ar    1  LIG1        0.0299
     32 H           0.6371   12.3298   -1.1403 H       1  LIG1        0.0637
     33 C          -1.6172    9.7081    0.5022 C.ar    1  LIG1       -0.0106
     34 C          -1.9883   11.0441    0.5129 C.ar    1  LIG1        0.1254
     35 H          -2.2670    8.9688    0.9623 H       1  LIG1        0.0661
     36 C           1.6266    9.9225   -1.3353 C.1     1  LIG1       -0.0690
     37 C           2.6585    9.6841   -1.9076 C.1     1  LIG1       -0.1139
     38 H           3.5678    9.4567   -2.4144 H       1  LIG1        0.1232
     39 O          -3.1599   11.4406    1.1061 O.3     1  LIG1       -0.5061
     40 H          -3.6130   10.6769    1.4845 H       1  LIG1        0.2922
     41 C          -2.7537   14.0141   -0.4580 C.ar    1  LIG1        0.2205
     42 C          -1.5109   13.4834   -0.0643 C.ar    1  LIG1        0.0505
     43 C          -0.4991   14.3940    0.2587 C.ar    1  LIG1       -0.0055
     44 C          -0.7321   15.7567    0.1526 C.ar    1  LIG1        0.1389
     45 C          -1.9901   16.1643   -0.2894 C.ar    1  LIG1        0.0730
     46 N          -2.9669   15.3191   -0.5748 N.ar    1  LIG1       -0.2173
     47 H           0.4587   14.0129    0.5911 H       1  LIG1        0.0662
     48 H          -2.1921   17.2270   -0.3996 H       1  LIG1        0.0868
     49 O          -3.8043   13.2352   -0.7990 O.3     1  LIG1       -0.4920
     50 H          -3.8269   12.4687   -0.2033 H       1  LIG1        0.2937
     51 O           0.1624   16.7407    0.4401 O.3     1  LIG1       -0.4936
     52 C           1.4483   16.3521    0.8679 C.3     1  LIG1        0.0789
     53 H           2.0058   17.2729    1.0378 H       1  LIG1        0.0660
     54 H           1.4088   15.7795    1.8026 H       1  LIG1        0.0660
     55 H           1.9654   15.7554    0.1064 H       1  LIG1        0.0660
@<TRIPOS>BOND
     1    38    37    1
     2    37    36    3
     3    12    11    1
     4    27    25    1
     5    26    25    1
     6    36    28    1
     7    11    10    3
     8    32    29    1
     9    25    19    1
    10    49    41    1
    11    49    50    1
    12    20    18    1
    13    10     3    1
    14    28    29   ar
    15    28    30   ar
    16    29    31   ar
    17    46    41   ar
    18    46    45   ar
    19    19    18   ar
    20    19    16   ar
    21    41    42   ar
    22    48    45    1
    23    18    15   ar
    24     9     8    1
    25    45    44   ar
    26     8     7    3
    27     3     2   ar
    28     3     4   ar
    29    30    16    1
    30    30    33   ar
    31    31    42    1
    32    31    34   ar
    33    42    43   ar
    34     7     2    1
    35    16    14   ar
    36    55    52    1
    37    44    43   ar
    38    44    51    1
    39     2     1   ar
    40    15     4    1
    41    15    13   ar
    42     4     5   ar
    43    43    47    1
    44    51    52    1
    45    33    34   ar
    46    33    35    1
    47    34    39    1
    48    14    13   ar
    49    14    17    1
    50     1     5   ar
    51     1     6    1
    52    23    21    1
    53    13    21    1
    54    52    53    1
    55    52    54    1
    56    39    40    1
    57    21    22    1
    58    21    24    1
