@<TRIPOS>MOLECULE
mol_data/opt/cam/geoms/mol2/12ee12ee12ee.out
 35 37 0 0 0
SMALL
GASTEIGER

@<TRIPOS>ATOM
      1 C           0.4600    1.9454    1.1877 C.ar    1  LIG1        0.1093
      2 C           1.6497    1.8277    0.5401 C.ar    1  LIG1        0.0785
      3 C           1.9311    3.1383   -0.0048 C.ar    1  LIG1        0.0888
      4 C           0.8845    3.9335    0.3829 C.ar    1  LIG1        0.1875
      5 O          -0.0118    3.2047    1.1019 O.2     1  LIG1       -0.4573
      6 H          -0.1454    1.2384    1.7315 H       1  LIG1        0.1042
      7 C           2.4432    0.6576    0.4079 C.1     1  LIG1       -0.0653
      8 C           3.1164   -0.3327    0.2955 C.1     1  LIG1       -0.1138
      9 H           3.7150   -1.2085    0.1941 H       1  LIG1        0.1232
     10 C           3.0296    3.4802   -0.8315 C.1     1  LIG1       -0.0645
     11 C           3.9572    3.7477   -1.5489 C.1     1  LIG1       -0.1138
     12 H           4.7737    3.9938   -2.1878 H       1  LIG1        0.1232
     13 C           0.5607    5.3233    0.1767 C.ar    1  LIG1        0.1885
     14 C           1.3094    6.4700    0.1278 C.ar    1  LIG1        0.0896
     15 C           0.3760    7.5416   -0.1293 C.ar    1  LIG1        0.0896
     16 C          -0.8626    6.9575   -0.1773 C.ar    1  LIG1        0.1885
     17 O          -0.7525    5.6166   -0.0000 O.2     1  LIG1       -0.4460
     18 C           2.7031    6.6137    0.3383 C.1     1  LIG1       -0.0645
     19 C           3.8809    6.7559    0.5356 C.1     1  LIG1       -0.1138
     20 H           4.9250    6.8715    0.7142 H       1  LIG1        0.1232
     21 C           0.7097    8.9024   -0.3401 C.1     1  LIG1       -0.0645
     22 C           1.0119   10.0496   -0.5374 C.1     1  LIG1       -0.1138
     23 H           1.2696   11.0680   -0.7160 H       1  LIG1        0.1232
     24 C          -2.1948    7.4691   -0.3833 C.ar    1  LIG1        0.1875
     25 C          -2.8388    8.6148    0.0051 C.ar    1  LIG1        0.0888
     26 C          -4.1757    8.5163   -0.5397 C.ar    1  LIG1        0.0785
     27 C          -4.2225    7.3221   -1.1880 C.ar    1  LIG1        0.1093
     28 O          -3.0399    6.6818   -1.1027 O.2     1  LIG1       -0.4573
     29 H          -5.0060    6.8199   -1.7320 H       1  LIG1        0.1042
     30 C          -2.3489    9.6557    0.8320 C.1     1  LIG1       -0.0645
     31 C          -1.9560   10.5373    1.5496 C.1     1  LIG1       -0.1138
     32 H          -1.5995   11.3119    2.1885 H       1  LIG1        0.1232
     33 C          -5.2258    9.4629   -0.4069 C.1     1  LIG1       -0.0653
     34 C          -6.1143   10.2657   -0.2940 C.1     1  LIG1       -0.1138
     35 H          -6.8996   10.9787   -0.1922 H       1  LIG1        0.1232
@<TRIPOS>BOND
     1    12    11    1
     2    29    27    1
     3    11    10    3
     4    27    28   ar
     5    27    26   ar
     6    28    24   ar
     7    10     3    1
     8    23    22    1
     9    26    33    1
    10    26    25   ar
    11    22    21    3
    12    33    34    3
    13    24    16    1
    14    24    25   ar
    15    21    15    1
    16    34    35    1
    17    16    15   ar
    18    16    17   ar
    19    15    14   ar
    20     3     4   ar
    21     3     2   ar
    22    17    13   ar
    23    25    30    1
    24    14    13   ar
    25    14    18    1
    26    13     4    1
    27     9     8    1
    28     8     7    3
    29    18    19    3
    30     4     5   ar
    31     7     2    1
    32    19    20    1
    33     2     1   ar
    34    30    31    3
    35     5     1   ar
    36     1     6    1
    37    31    32    1
