@<TRIPOS>MOLECULE
mol_data/opt/cam/geoms/mol2/12ee12ee12ee12ee.out
 46 49 0 0 0
SMALL
GASTEIGER

@<TRIPOS>ATOM
      1 C           0.7581    2.2016    1.9541 C.ar    1  LIG1        0.1093
      2 C           1.8055    1.9486    1.1248 C.ar    1  LIG1        0.0785
      3 C           1.9635    3.1393    0.3180 C.ar    1  LIG1        0.0888
      4 C           0.9992    4.0113    0.7515 C.ar    1  LIG1        0.1875
      5 O           0.2636    3.4367    1.7414 O.2     1  LIG1       -0.4573
      6 H           0.2746    1.6120    2.7161 H       1  LIG1        0.1042
      7 C           2.5739    0.7568    1.0509 C.1     1  LIG1       -0.0653
      8 C           3.2259   -0.2519    0.9876 C.1     1  LIG1       -0.1138
      9 H           3.8052   -1.1444    0.9291 H       1  LIG1        0.1232
     10 C           2.8824    3.3100   -0.7467 C.1     1  LIG1       -0.0645
     11 C           3.6551    3.4298   -1.6606 C.1     1  LIG1       -0.1138
     12 H           4.3335    3.5444   -2.4742 H       1  LIG1        0.1232
     13 C           0.6250    5.3509    0.3714 C.ar    1  LIG1        0.1885
     14 C           1.3369    6.4555   -0.0176 C.ar    1  LIG1        0.0896
     15 C           0.3590    7.4864   -0.2746 C.ar    1  LIG1        0.0896
     16 C          -0.8590    6.9295    0.0170 C.ar    1  LIG1        0.1885
     17 O          -0.7007    5.6371    0.3995 O.2     1  LIG1       -0.4460
     18 C           2.7432    6.6041   -0.1040 C.1     1  LIG1       -0.0645
     19 C           3.9352    6.7536   -0.1616 C.1     1  LIG1       -0.1138
     20 H           4.9926    6.8766   -0.2071 H       1  LIG1        0.1232
     21 C           0.6312    8.7810   -0.7814 C.1     1  LIG1       -0.0645
     22 C           0.8787    9.8678   -1.2331 C.1     1  LIG1       -0.1138
     23 H           1.0867   10.8321   -1.6360 H       1  LIG1        0.1232
     24 C          -2.2120    7.4251   -0.0174 C.ar    1  LIG1        0.1885
     25 C          -2.7822    8.6369    0.2738 C.ar    1  LIG1        0.0896
     26 C          -4.1945    8.4815    0.0170 C.ar    1  LIG1        0.0896
     27 C          -4.3645    7.1783   -0.3717 C.ar    1  LIG1        0.1885
     28 O          -3.1676    6.5405   -0.3997 O.2     1  LIG1       -0.4460
     29 C          -2.1538    9.8013    0.7804 C.1     1  LIG1       -0.0645
     30 C          -1.6407   10.7909    1.2318 C.1     1  LIG1       -0.1138
     31 H          -1.1767   11.6615    1.6345 H       1  LIG1        0.1232
     32 C          -5.1722    9.5033    0.1031 C.1     1  LIG1       -0.0645
     33 C          -5.9855   10.3875    0.1604 C.1     1  LIG1       -0.1138
     34 H          -6.7133   11.1644    0.2058 H       1  LIG1        0.1232
     35 C          -5.5155    6.3972   -0.7514 C.ar    1  LIG1        0.1875
     36 C          -6.8148    6.3543   -0.3179 C.ar    1  LIG1        0.0888
     37 C          -7.4633    5.3431   -1.1245 C.ar    1  LIG1        0.0785
     38 C          -6.5003    4.8595   -1.9536 C.ar    1  LIG1        0.1093
     39 O          -5.3250    5.4831   -1.7411 O.2     1  LIG1       -0.4573
     40 H          -6.5120    4.0970   -2.7155 H       1  LIG1        0.1042
     41 C          -7.4061    7.0784    0.7467 C.1     1  LIG1       -0.0645
     42 C          -7.9187    7.6690    1.6605 C.1     1  LIG1       -0.1138
     43 H          -8.3626    8.1948    2.4740 H       1  LIG1        0.1232
     44 C          -8.8197    4.9295   -1.0504 C.1     1  LIG1       -0.0653
     45 C          -9.9689    4.5805   -0.9869 C.1     1  LIG1       -0.1138
     46 H         -10.9876    4.2732   -0.9284 H       1  LIG1        0.1232
@<TRIPOS>BOND
     1    40    38    1
     2    12    11    1
     3    38    39   ar
     4    38    37   ar
     5    39    35   ar
     6    11    10    3
     7    23    22    1
     8    22    21    3
     9    37    44    1
    10    37    36   ar
    11    44    45    3
    12    45    46    1
    13    21    15    1
    14    35    27    1
    15    35    36   ar
    16    10     3    1
    17    28    27   ar
    18    28    24   ar
    19    27    26   ar
    20    36    41    1
    21    15    14   ar
    22    15    16   ar
    23    20    19    1
    24    19    18    3
    25    18    14    1
    26    14    13   ar
    27    24    16    1
    28    24    25   ar
    29    16    17   ar
    30    26    32    1
    31    26    25   ar
    32    32    33    3
    33    33    34    1
    34    25    29    1
    35     3     4   ar
    36     3     2   ar
    37    13    17   ar
    38    13     4    1
    39    41    42    3
    40     4     5   ar
    41    29    30    3
    42     9     8    1
    43     8     7    3
    44     7     2    1
    45     2     1   ar
    46    30    31    1
    47    42    43    1
    48     5     1   ar
    49     1     6    1
