@<TRIPOS>MOLECULE
mol_data/opt/cam/geoms/mol2/12ee12ee12ee-12ee-.out
 46 49 0 0 0
SMALL
GASTEIGER

@<TRIPOS>ATOM
      1 C           0.4479    1.7823    0.9201 C.ar    1  LIG1        0.1093
      2 C           1.6720    1.7545    0.3291 C.ar    1  LIG1        0.0785
      3 C           1.9607    3.1235   -0.0395 C.ar    1  LIG1        0.0888
      4 C           0.8818    3.8564    0.3825 C.ar    1  LIG1        0.1875
      5 O          -0.0395    3.0379    0.9591 O.2     1  LIG1       -0.4573
      6 H          -0.1733    1.0093    1.3428 H       1  LIG1        0.1042
      7 C           2.4902    0.6164    0.1023 C.1     1  LIG1       -0.0653
      8 C           3.1843   -0.3468   -0.0900 C.1     1  LIG1       -0.1138
      9 H           3.8017   -1.1983   -0.2618 H       1  LIG1        0.1232
     10 C           3.0957    3.5726   -0.7585 C.1     1  LIG1       -0.0645
     11 C           4.0557    3.9329   -1.3873 C.1     1  LIG1       -0.1138
     12 H           4.9007    4.2615   -1.9470 H       1  LIG1        0.1232
     13 C           0.5494    5.2572    0.3272 C.ar    1  LIG1        0.1885
     14 C           1.2818    6.4091    0.4530 C.ar    1  LIG1        0.0896
     15 C           0.3463    7.4959    0.2938 C.ar    1  LIG1        0.0896
     16 C          -0.8792    6.9064    0.1024 C.ar    1  LIG1        0.1885
     17 O          -0.7588    5.5591    0.1212 O.2     1  LIG1       -0.4460
     18 C           2.6599    6.5381    0.7561 C.1     1  LIG1       -0.0645
     19 C           3.8232    6.6649    1.0335 C.1     1  LIG1       -0.1138
     20 H           4.8543    6.7667    1.2822 H       1  LIG1        0.1232
     21 C           0.6595    8.8763    0.3525 C.1     1  LIG1       -0.0645
     22 C           0.9527   10.0414    0.4069 C.1     1  LIG1       -0.1138
     23 H           1.2051   11.0755    0.4546 H       1  LIG1        0.1232
     24 C          -2.1963    7.4356   -0.1028 C.ar    1  LIG1        0.1885
     25 C          -3.4218    6.8462   -0.2943 C.ar    1  LIG1        0.0896
     26 C          -4.3574    7.9329   -0.4534 C.ar    1  LIG1        0.0896
     27 C          -3.6249    9.0848   -0.3275 C.ar    1  LIG1        0.1885
     28 O          -2.3167    8.7829   -0.1215 O.2     1  LIG1       -0.4460
     29 C          -3.7350    5.4658   -0.3532 C.1     1  LIG1       -0.0645
     30 C          -4.0282    4.3006   -0.4078 C.1     1  LIG1       -0.1138
     31 H          -4.2805    3.2665   -0.4556 H       1  LIG1        0.1232
     32 C          -5.7354    7.8039   -0.7566 C.1     1  LIG1       -0.0645
     33 C          -6.8987    7.6772   -1.0340 C.1     1  LIG1       -0.1138
     34 H          -7.9298    7.5754   -1.2829 H       1  LIG1        0.1232
     35 C          -3.9574   10.4857   -0.3826 C.ar    1  LIG1        0.1875
     36 C          -5.0363   11.2184    0.0395 C.ar    1  LIG1        0.0888
     37 C          -4.7476   12.5875   -0.3290 C.ar    1  LIG1        0.0785
     38 C          -3.5235   12.5598   -0.9200 C.ar    1  LIG1        0.1093
     39 O          -3.0360   11.3042   -0.9592 O.2     1  LIG1       -0.4573
     40 H          -2.9024   13.3329   -1.3426 H       1  LIG1        0.1042
     41 C          -6.1713   10.7692    0.7583 C.1     1  LIG1       -0.0645
     42 C          -7.1312   10.4088    1.3871 C.1     1  LIG1       -0.1138
     43 H          -7.9762   10.0801    1.9469 H       1  LIG1        0.1232
     44 C          -5.5659   13.7255   -0.1022 C.1     1  LIG1       -0.0653
     45 C          -6.2600   14.6887    0.0903 C.1     1  LIG1       -0.1138
     46 H          -6.8774   15.5401    0.2621 H       1  LIG1        0.1232
@<TRIPOS>BOND
     1    12    11    1
     2    11    10    3
     3    40    38    1
     4    34    33    1
     5    33    32    3
     6    39    38   ar
     7    39    35   ar
     8    38    37   ar
     9    10     3    1
    10    32    26    1
    11    31    30    1
    12    26    27   ar
    13    26    25   ar
    14    30    29    3
    15    35    27    1
    16    35    36   ar
    17    29    25    1
    18    37    44    1
    19    37    36   ar
    20    27    28   ar
    21    25    24   ar
    22     9     8    1
    23    28    24   ar
    24    24    16    1
    25    44    45    3
    26     8     7    3
    27     3     2   ar
    28     3     4   ar
    29    36    41    1
    30    45    46    1
    31     7     2    1
    32    16    17   ar
    33    16    15   ar
    34    17    13   ar
    35    15    21    1
    36    15    14   ar
    37    13     4    1
    38    13    14   ar
    39     2     1   ar
    40    21    22    3
    41     4     5   ar
    42    22    23    1
    43    14    18    1
    44    18    19    3
    45    41    42    3
    46     1     5   ar
    47     1     6    1
    48    19    20    1
    49    42    43    1
