@<TRIPOS>MOLECULE
mol_data/opt/cam/geoms/mol2/12ee12ee12ee-12ee.out
 46 49 0 0 0
SMALL
GASTEIGER

@<TRIPOS>ATOM
      1 C           0.4454    1.6971   -0.3715 C.ar    1  LIG1        0.1093
      2 C           1.6735    1.7658    0.2077 C.ar    1  LIG1        0.0785
      3 C           1.9634    3.1765    0.3465 C.ar    1  LIG1        0.0888
      4 C           0.8810    3.8310   -0.1821 C.ar    1  LIG1        0.1875
      5 O          -0.0435    2.9298   -0.6114 O.2     1  LIG1       -0.4573
      6 H          -0.1778    0.8655   -0.6580 H       1  LIG1        0.1042
      7 C           2.4944    0.6797    0.6113 C.1     1  LIG1       -0.0653
      8 C           3.1908   -0.2393    0.9531 C.1     1  LIG1       -0.1138
      9 H           3.8102   -1.0514    1.2573 H       1  LIG1        0.1232
     10 C           3.1027    3.7362    0.9754 C.1     1  LIG1       -0.0645
     11 C           4.0665    4.1934    1.5311 C.1     1  LIG1       -0.1138
     12 H           4.9151    4.6078    2.0246 H       1  LIG1        0.1232
     13 C           0.5471    5.2223   -0.3514 C.ar    1  LIG1        0.1885
     14 C           1.2781    6.3395   -0.6626 C.ar    1  LIG1        0.0896
     15 C           0.3417    7.4369   -0.6778 C.ar    1  LIG1        0.0896
     16 C          -0.8820    6.8865   -0.3847 C.ar    1  LIG1        0.1885
     17 O          -0.7602    5.5528   -0.1887 O.2     1  LIG1       -0.4460
     18 C           2.6536    6.4181   -0.9937 C.1     1  LIG1       -0.0645
     19 C           3.8144    6.4990   -1.2973 C.1     1  LIG1       -0.1138
     20 H           4.8432    6.5594   -1.5683 H       1  LIG1        0.1232
     21 C           0.6383    8.7826   -1.0035 C.1     1  LIG1       -0.0645
     22 C           0.9026    9.9183   -1.2997 C.1     1  LIG1       -0.1138
     23 H           1.1117   10.9277   -1.5688 H       1  LIG1        0.1232
     24 C          -2.2003    7.4386   -0.2673 C.ar    1  LIG1        0.1885
     25 C          -3.4507    6.8705   -0.2472 C.ar    1  LIG1        0.0896
     26 C          -4.3788    7.9660   -0.1271 C.ar    1  LIG1        0.0896
     27 C          -3.6122    9.1047   -0.0827 C.ar    1  LIG1        0.1885
     28 O          -2.2988    8.7863   -0.1679 O.2     1  LIG1       -0.4460
     29 C          -3.7896    5.4978   -0.3392 C.1     1  LIG1       -0.0645
     30 C          -4.1014    4.3390   -0.4187 C.1     1  LIG1       -0.1138
     31 H          -4.3705    3.3104   -0.4888 H       1  LIG1        0.1232
     32 C          -5.7900    7.8556   -0.0549 C.1     1  LIG1       -0.0645
     33 C          -6.9848    7.7319    0.0075 C.1     1  LIG1       -0.1138
     34 H          -8.0437    7.6264    0.0626 H       1  LIG1        0.1232
     35 C          -3.9399   10.4962    0.0466 C.ar    1  LIG1        0.1875
     36 C          -3.2037   11.6074    0.3756 C.ar    1  LIG1        0.0888
     37 C          -4.1344   12.7140    0.3352 C.ar    1  LIG1        0.0785
     38 C          -5.3361   12.1758   -0.0038 C.ar    1  LIG1        0.1093
     39 O          -5.2321   10.8425   -0.1809 O.2     1  LIG1       -0.4573
     40 H          -6.3130   12.6068   -0.1501 H       1  LIG1        0.1042
     41 C          -1.8353   11.6746    0.7331 C.1     1  LIG1       -0.0645
     42 C          -0.6788   11.7454    1.0571 C.1     1  LIG1       -0.1138
     43 H           0.3445   11.7836    1.3513 H       1  LIG1        0.1232
     44 C          -3.8514   14.0795    0.6033 C.1     1  LIG1       -0.0653
     45 C          -3.6104   15.2357    0.8304 C.1     1  LIG1       -0.1138
     46 H          -3.3938   16.2593    1.0330 H       1  LIG1        0.1232
@<TRIPOS>BOND
     1    23    22    1
     2    20    19    1
     3    22    21    3
     4    19    18    3
     5    21    15    1
     6    18    14    1
     7    15    14   ar
     8    15    16   ar
     9    14    13   ar
    10     6     1    1
    11     5     1   ar
    12     5     4   ar
    13    31    30    1
    14    30    29    3
    15    16    24    1
    16    16    17   ar
    17     1     2   ar
    18    13    17   ar
    19    13     4    1
    20    29    25    1
    21    24    25   ar
    22    24    28   ar
    23    25    26   ar
    24     4     3   ar
    25    39    38   ar
    26    39    35   ar
    27    28    27   ar
    28    40    38    1
    29    26    27   ar
    30    26    32    1
    31    27    35    1
    32    32    33    3
    33    38    37   ar
    34    33    34    1
    35    35    36   ar
    36     2     3   ar
    37     2     7    1
    38    37    36   ar
    39    37    44    1
    40     3    10    1
    41    36    41    1
    42    44    45    3
    43     7     8    3
    44    41    42    3
    45    45    46    1
    46     8     9    1
    47    10    11    3
    48    42    43    1
    49    11    12    1
