@<TRIPOS>MOLECULE
mol_data/opt/cam/geoms/mol2/12ee6de-4ae-12id4fh-12el12df-6la.out
 96 103 0 0 0
SMALL
GASTEIGER

@<TRIPOS>ATOM
      1 C           1.5023    1.7586    1.8868 C.ar    1  LIG1        0.1092
      2 C           2.5012    1.6271    0.9736 C.ar    1  LIG1        0.0783
      3 C           2.6017    2.9117    0.3183 C.ar    1  LIG1        0.0858
      4 C           1.6466    3.7088    0.8996 C.ar    1  LIG1        0.1541
      5 O           0.9871    3.0025    1.8511 O.2     1  LIG1       -0.4603
      6 H           1.0699    1.0775    2.6015 H       1  LIG1        0.1042
      7 C           3.2818    0.4706    0.7115 C.1     1  LIG1       -0.0653
      8 C           3.9447   -0.5076    0.4880 C.1     1  LIG1       -0.1138
      9 H           4.5318   -1.3746    0.2888 H       1  LIG1        0.1232
     10 C           3.5013    3.2368   -0.7290 C.1     1  LIG1       -0.0646
     11 C           4.2733    3.4943   -1.6158 C.1     1  LIG1       -0.1138
     12 H           4.9541    3.7125   -2.4066 H       1  LIG1        0.1232
     13 C          -0.0179    5.6062    1.0241 C.ar    1  LIG1        0.1514
     14 C           1.2482    5.0934    0.6894 C.ar    1  LIG1        0.0555
     15 C           2.1474    6.0057    0.1401 C.ar    1  LIG1       -0.0308
     16 C           1.7902    7.3336   -0.0750 C.ar    1  LIG1        0.0514
     17 C           0.4796    7.7385    0.2716 C.ar    1  LIG1        0.0878
     18 N          -0.3700    6.8729    0.8203 N.ar    1  LIG1       -0.2344
     19 H           3.1497    5.6854   -0.1132 H       1  LIG1        0.0638
     20 N          -1.9432    4.1752    2.0271 N.1     1  LIG1       -0.1893
     21 C          -1.0685    4.7909    1.5906 C.1     1  LIG1        0.1198
     22 C           2.7931    8.2224   -0.5757 C.1     1  LIG1       -0.0675
     23 C           3.6876    8.9165   -0.9837 C.1     1  LIG1       -0.1138
     24 H           4.4702    9.5475   -1.3391 H       1  LIG1        0.1232
     25 C           0.3023    9.9157   -1.0000 C.ar    1  LIG1       -0.0518
     26 C          -0.2546   11.1760   -1.1433 C.ar    1  LIG1       -0.0493
     27 C          -0.0462    9.1136    0.0874 C.ar    1  LIG1        0.0028
     28 C          -1.1540   11.6911   -0.2075 C.ar    1  LIG1        0.0330
     29 H          -0.0112   11.7677   -2.0180 H       1  LIG1        0.0625
     30 C          -0.9653    9.6062    1.0123 C.ar    1  LIG1       -0.0364
     31 C          -1.5131   10.8837    0.8943 C.ar    1  LIG1        0.0360
     32 H          -1.2576    8.9837    1.8486 H       1  LIG1        0.0636
     33 H           0.9839    9.5484   -1.7559 H       1  LIG1        0.0624
     34 C          -2.3974   11.3357    1.9268 C.1     1  LIG1       -0.0689
     35 C          -3.1196   11.6724    2.8282 C.1     1  LIG1       -0.1139
     36 H          -3.7663   11.9859    3.6153 H       1  LIG1        0.1232
     37 C          -1.6847   13.0393   -0.4036 C.ar    1  LIG1        0.1410
     38 C          -1.1204   14.1986   -0.8441 C.ar    1  LIG1        0.0134
     39 C          -2.1776   15.1740   -0.8207 C.ar    1  LIG1        0.1010
     40 C          -3.3088   14.5396   -0.3620 C.ar    1  LIG1        0.1568
     41 O          -3.0034   13.2481   -0.1167 O.2     1  LIG1       -0.4531
     42 C           0.2920   14.4699   -1.2476 C.3     1  LIG1       -0.0349
     43 H           0.6127   15.4476   -0.8805 H       1  LIG1        0.0279
     44 H           0.4019   14.4859   -2.3369 H       1  LIG1        0.0279
     45 H           0.9692   13.7125   -0.8498 H       1  LIG1        0.0279
     46 N          -1.7777   17.5512   -1.7292 N.1     1  LIG1       -0.1907
     47 C          -2.0081   16.5043   -1.2927 C.1     1  LIG1        0.1032
     48 C          -5.0950   16.2171    0.1635 C.ar    1  LIG1        0.1283
     49 C          -6.4348   16.5073    0.3167 C.ar    1  LIG1       -0.0070
     50 C          -4.7051   14.9064   -0.1512 C.ar    1  LIG1        0.0617
     51 C          -7.4310   15.5275    0.1946 C.ar    1  LIG1        0.0427
     52 H          -6.7273   17.5240    0.5527 H       1  LIG1        0.0662
     53 C          -5.6878   13.9266   -0.2497 C.ar    1  LIG1       -0.0261
     54 C          -7.0504   14.1910   -0.0851 C.ar    1  LIG1        0.0363
     55 H          -5.3793   12.9101   -0.4673 H       1  LIG1        0.0644
     56 O          -4.1147   17.1440    0.3365 O.3     1  LIG1       -0.5060
     57 H          -4.4837   18.0341    0.3146 H       1  LIG1        0.2922
     58 N          -7.9385   13.1287   -0.1466 N.pl3   1  LIG1       -0.3574
     59 H          -8.9018   13.3239   -0.3678 H       1  LIG1        0.1423
     60 H          -7.5763   12.3012   -0.5938 H       1  LIG1        0.1423
     61 C          -8.8167   15.9307    0.3775 C.ar    1  LIG1        0.1567
     62 C          -9.4320   17.0098    0.9836 C.ar    1  LIG1        0.1128
     63 C         -10.8464   16.7985    0.8270 C.ar    1  LIG1        0.1848
     64 C         -10.9988   15.6342    0.1308 C.ar    1  LIG1        0.2146
     65 O          -9.7650   15.1139   -0.1357 O.2     1  LIG1       -0.4465
     66 C          -8.8429   18.0747    1.7129 C.1     1  LIG1       -0.0621
     67 C          -8.3735   18.9920    2.3371 C.1     1  LIG1       -0.1137
     68 H          -7.9610   19.7895    2.9115 H       1  LIG1        0.1232
     69 O         -11.8557   17.5146    1.3485 O.3     1  LIG1       -0.4901
     70 C         -11.9945   18.8595    0.8835 C.3     1  LIG1        0.0790
     71 H         -12.8679   19.2611    1.3937 H       1  LIG1        0.0660
     72 H         -11.1086   19.4508    1.1269 H       1  LIG1        0.0660
     73 H         -12.1744   18.8727   -0.1951 H       1  LIG1        0.0660
     74 C         -12.1151   14.8392   -0.2850 C.ar    1  LIG1        0.1953
     75 C         -13.4747   15.0435   -0.3720 C.ar    1  LIG1        0.1426
     76 C         -14.0184   13.7981   -0.8245 C.ar    1  LIG1        0.1813
     77 C         -12.9749   12.9355   -1.0037 C.ar    1  LIG1        0.1834
     78 O         -11.8158   13.5858   -0.6633 O.2     1  LIG1       -0.4463
     79 N         -14.8234   17.1973    0.0424 N.1     1  LIG1       -0.1906
     80 C         -14.2081   16.2314   -0.1251 C.1     1  LIG1        0.1068
     81 O         -15.3414   13.6034   -1.0100 O.3     1  LIG1       -0.5023
     82 H         -15.5316   12.6566   -0.9941 H       1  LIG1        0.2923
     83 C         -11.9470   10.6261   -1.0328 C.ar    1  LIG1        0.2255
     84 C         -12.9229   11.5593   -1.4697 C.ar    1  LIG1        0.0824
     85 C         -13.8733   11.0789   -2.3645 C.ar    1  LIG1       -0.0444
     86 C         -13.8596    9.7436   -2.7616 C.ar    1  LIG1       -0.0427
     87 C         -12.8665    8.9290   -2.2550 C.ar    1  LIG1        0.0314
     88 N         -11.9231    9.3641   -1.4114 N.ar    1  LIG1       -0.2207
     89 H         -14.6116   11.7618   -2.7740 H       1  LIG1        0.0627
     90 H         -12.8085    7.8797   -2.5316 H       1  LIG1        0.0831
     91 O         -11.0026   11.0744   -0.1915 O.3     1  LIG1       -0.4792
     92 C         -10.0379   10.1356    0.2756 C.3     1  LIG1        0.0804
     93 H          -9.3505   10.7167    0.8899 H       1  LIG1        0.0660
     94 H         -10.5118    9.3486    0.8665 H       1  LIG1        0.0660
     95 H          -9.5101    9.6682   -0.5587 H       1  LIG1        0.0660
     96 H         -14.5949    9.3575   -3.4570 H       1  LIG1        0.0633
@<TRIPOS>BOND
     1    96    86    1
     2    89    85    1
     3    86    85   ar
     4    86    87   ar
     5    90    87    1
     6    12    11    1
     7    85    84   ar
     8    44    42    1
     9    87    88   ar
    10    29    26    1
    11    33    25    1
    12    46    47    3
    13    11    10    3
    14    84    83   ar
    15    84    77    1
    16    88    83   ar
    17    24    23    1
    18    47    39    1
    19    42    43    1
    20    42    45    1
    21    42    38    1
    22    26    25   ar
    23    26    28   ar
    24    83    91    1
    25    81    82    1
    26    81    76    1
    27    77    76   ar
    28    77    78   ar
    29    25    27   ar
    30    23    22    3
    31    38    39   ar
    32    38    37   ar
    33    76    75   ar
    34    39    40   ar
    35    10     3    1
    36    78    74   ar
    37    60    58    1
    38    22    16    1
    39    95    92    1
    40    55    53    1
    41    37    28    1
    42    37    41   ar
    43    75    74   ar
    44    75    80    1
    45    59    58    1
    46    40    50    1
    47    40    41   ar
    48    74    64    1
    49    53    50   ar
    50    53    54   ar
    51    28    31   ar
    52    73    70    1
    53    91    92    1
    54    50    48   ar
    55    58    54    1
    56    65    64   ar
    57    65    61   ar
    58    80    79    3
    59    19    15    1
    60    54    51   ar
    61    16    15   ar
    62    16    17   ar
    63    27    17    1
    64    27    30   ar
    65    64    63   ar
    66    15    14   ar
    67    48    49   ar
    68    48    56    1
    69    51    49   ar
    70    51    61    1
    71    17    18   ar
    72    92    94    1
    73    92    93    1
    74     9     8    1
    75    57    56    1
    76    49    52    1
    77     3     4   ar
    78     3     2   ar
    79    61    62   ar
    80     8     7    3
    81    14     4    1
    82    14    13   ar
    83     7     2    1
    84    18    13   ar
    85    63    62   ar
    86    63    69    1
    87    70    72    1
    88    70    69    1
    89    70    71    1
    90    31    30   ar
    91    31    34    1
    92     4     5   ar
    93     2     1   ar
    94    62    66    1
    95    30    32    1
    96    13    21    1
    97    21    20    3
    98    66    67    3
    99     5     1   ar
   100     1     6    1
   101    34    35    3
   102    67    68    1
   103    35    36    1
