@<TRIPOS>MOLECULE
mol_data/opt/cam/geoms/mol2/12ee12ee-12ee12ee-.out
 46 49 0 0 0
SMALL
GASTEIGER

@<TRIPOS>ATOM
      1 C           0.2294    1.7333    0.0172 C.ar    1  LIG1        0.1093
      2 C           1.5152    1.7560   -0.4240 C.ar    1  LIG1        0.0785
      3 C           1.9037    3.1493   -0.4366 C.ar    1  LIG1        0.0888
      4 C           0.8041    3.8410    0.0086 C.ar    1  LIG1        0.1875
      5 O          -0.2096    2.9812    0.2814 O.2     1  LIG1       -0.4573
      6 H          -0.4696    0.9306    0.1861 H       1  LIG1        0.1042
      7 C           2.3122    0.6429   -0.8015 C.1     1  LIG1       -0.0653
      8 C           2.9882   -0.2990   -1.1211 C.1     1  LIG1       -0.1138
      9 H           3.5897   -1.1314   -1.4058 H       1  LIG1        0.1232
     10 C           3.1505    3.6685   -0.8617 C.1     1  LIG1       -0.0645
     11 C           4.2100    4.0955   -1.2397 C.1     1  LIG1       -0.1138
     12 H           5.1371    4.4963   -1.5787 H       1  LIG1        0.1232
     13 C           0.5424    5.2360    0.2194 C.ar    1  LIG1        0.1885
     14 C          -0.6096    5.9453    0.4580 C.ar    1  LIG1        0.0896
     15 C          -0.2069    7.3247    0.5673 C.ar    1  LIG1        0.0896
     16 C           1.1540    7.3348    0.3815 C.ar    1  LIG1        0.1885
     17 O           1.6050    6.0735    0.1735 O.2     1  LIG1       -0.4460
     18 C          -1.9348    5.4560    0.5726 C.1     1  LIG1       -0.0645
     19 C          -3.0697    5.0700    0.6718 C.1     1  LIG1       -0.1138
     20 H          -4.0736    4.7237    0.7603 H       1  LIG1        0.1232
     21 C          -1.0524    8.4239    0.8548 C.1     1  LIG1       -0.0645
     22 C          -1.7782    9.3475    1.1145 C.1     1  LIG1       -0.1138
     23 H          -2.4021   10.1781    1.3516 H       1  LIG1        0.1232
     24 C           2.1319    8.3835    0.3886 C.ar    1  LIG1        0.1885
     25 C           3.4906    8.3930    0.5901 C.ar    1  LIG1        0.0896
     26 C           3.8946    9.7727    0.4892 C.ar    1  LIG1        0.0896
     27 C           2.7454   10.4826    0.2392 C.ar    1  LIG1        0.1885
     28 O           1.6834    9.6454    0.1788 O.2     1  LIG1       -0.4460
     29 C           4.3328    7.2930    0.8843 C.1     1  LIG1       -0.0645
     30 C           5.0555    6.3687    1.1499 C.1     1  LIG1       -0.1138
     31 H           5.6767    5.5375    1.3919 H       1  LIG1        0.1232
     32 C           5.2184   10.2617    0.6204 C.1     1  LIG1       -0.0645
     33 C           6.3521   10.6473    0.7337 C.1     1  LIG1       -0.1138
     34 H           7.3548   10.9933    0.8347 H       1  LIG1        0.1232
     35 C           2.4861   11.8783    0.0291 C.ar    1  LIG1        0.1875
     36 C           1.3917   12.5712   -0.4269 C.ar    1  LIG1        0.0888
     37 C           1.7801   13.9644   -0.4061 C.ar    1  LIG1        0.0785
     38 C           3.0607   13.9859    0.0500 C.ar    1  LIG1        0.1093
     39 O           3.4966   12.7372    0.3159 O.2     1  LIG1       -0.4573
     40 H           3.7577   14.7882    0.2291 H       1  LIG1        0.1042
     41 C           0.1499   12.0531   -0.8678 C.1     1  LIG1       -0.0645
     42 C          -0.9051   11.6273   -1.2592 C.1     1  LIG1       -0.1138
     43 H          -1.8282   11.2275   -1.6101 H       1  LIG1        0.1232
     44 C           0.9876   15.0785   -0.7898 C.1     1  LIG1       -0.0653
     45 C           0.3152   16.0213   -1.1147 C.1     1  LIG1       -0.1138
     46 H          -0.2829   16.8545   -1.4041 H       1  LIG1        0.1232
@<TRIPOS>BOND
     1    43    42    1
     2    12    11    1
     3     9     8    1
     4    46    45    1
     5    42    41    3
     6    11    10    3
     7     8     7    3
     8    45    44    3
     9    41    36    1
    10    10     3    1
    11     7     2    1
    12    44    37    1
    13     3     2   ar
    14     3     4   ar
    15    36    37   ar
    16    36    35   ar
    17     2     1   ar
    18    37    38   ar
    19     4    13    1
    20     4     5   ar
    21     1     6    1
    22     1     5   ar
    23    35    27    1
    24    35    39   ar
    25    38    40    1
    26    38    39   ar
    27    17    13   ar
    28    17    16   ar
    29    28    27   ar
    30    28    24   ar
    31    13    14   ar
    32    27    26   ar
    33    16    24    1
    34    16    15   ar
    35    24    25   ar
    36    14    15   ar
    37    14    18    1
    38    26    25   ar
    39    26    32    1
    40    15    21    1
    41    18    19    3
    42    25    29    1
    43    32    33    3
    44    19    20    1
    45    33    34    1
    46    21    22    3
    47    29    30    3
    48    22    23    1
    49    30    31    1
