@<TRIPOS>MOLECULE
mol_data/opt/cam/geoms/mol2/12ee13dh12il6if.out
 51 54 0 0 0
SMALL
GASTEIGER

@<TRIPOS>ATOM
      1 C           0.3406    1.8762    0.4880 C.ar    1  LIG1        0.1092
      2 C           1.6943    1.8172    0.5702 C.ar    1  LIG1        0.0784
      3 C           2.1719    3.1497    0.2612 C.ar    1  LIG1        0.0872
      4 C           1.0527    3.8965    0.0013 C.ar    1  LIG1        0.1687
      5 O          -0.0621    3.1215    0.1468 O.2     1  LIG1       -0.4589
      6 H          -0.4332    1.1405    0.6349 H       1  LIG1        0.1042
      7 C           2.4841    0.6857    0.9051 C.1     1  LIG1       -0.0653
      8 C           3.1545   -0.2715    1.1888 C.1     1  LIG1       -0.1138
      9 H           3.7529   -1.1174    1.4382 H       1  LIG1        0.1232
     10 C           3.5218    3.5755    0.2858 C.1     1  LIG1       -0.0646
     11 C           4.6702    3.9307    0.3212 C.1     1  LIG1       -0.1138
     12 H           5.6812    4.2679    0.3239 H       1  LIG1        0.1232
     13 C           0.7855    5.2734   -0.3309 C.ar    1  LIG1        0.1033
     14 C           1.5480    6.2921   -0.9061 C.ar    1  LIG1        0.1013
     15 C           0.7216    7.4517   -0.9997 C.ar    1  LIG1        0.0716
     16 C          -0.5111    7.1189   -0.4686 C.ar    1  LIG1        0.1052
     17 N          -0.4433    5.7930   -0.0899 N.ar    1  LIG1       -0.3468
     18 H          -1.2118    5.2728    0.3042 H       1  LIG1        0.1662
     19 N           3.8912    6.3399   -1.9638 N.1     1  LIG1       -0.1907
     20 C           2.8528    6.2551   -1.4565 C.1     1  LIG1        0.1033
     21 N           1.1144    8.6749   -1.5322 N.pl3   1  LIG1       -0.3552
     22 H           1.9954    8.6235   -2.0288 H       1  LIG1        0.1424
     23 H           0.4026    9.1150   -2.1013 H       1  LIG1        0.1424
     24 C          -1.7334    7.8693   -0.3071 C.ar    1  LIG1        0.1601
     25 C          -2.0355    9.1735   -0.0340 C.ar    1  LIG1        0.0392
     26 C          -3.4652    9.2213   -0.0164 C.ar    1  LIG1        0.1692
     27 C          -3.9477    7.9616   -0.2444 C.ar    1  LIG1        0.1792
     28 O          -2.8799    7.1314   -0.4278 O.2     1  LIG1       -0.4492
     29 C          -1.1347   10.3262    0.2720 C.3     1  LIG1       -0.0325
     30 H          -1.0417   10.4713    1.3536 H       1  LIG1        0.0280
     31 H          -1.5501   11.2478   -0.1437 H       1  LIG1        0.0280
     32 H          -0.1285   10.1769   -0.1222 H       1  LIG1        0.0280
     33 O          -4.1998   10.3543    0.1769 O.3     1  LIG1       -0.4910
     34 C          -4.4938   10.6341    1.5419 C.3     1  LIG1        0.0790
     35 H          -5.0546   11.5689    1.5552 H       1  LIG1        0.0660
     36 H          -5.1014    9.8371    1.9834 H       1  LIG1        0.0660
     37 H          -3.5765   10.7533    2.1283 H       1  LIG1        0.0660
     38 C          -5.6245    6.0632   -0.1590 C.ar    1  LIG1        0.0492
     39 C          -5.3014    7.4267   -0.3478 C.ar    1  LIG1        0.0454
     40 C          -6.3344    8.3192   -0.6375 C.ar    1  LIG1       -0.0062
     41 C          -7.6348    7.8502   -0.7334 C.ar    1  LIG1        0.1356
     42 C          -7.8581    6.4921   -0.5429 C.ar    1  LIG1        0.0693
     43 N          -6.8820    5.6356   -0.2638 N.ar    1  LIG1       -0.2558
     44 H          -6.1280    9.3713   -0.7909 H       1  LIG1        0.0662
     45 H          -8.8659    6.0821   -0.6144 H       1  LIG1        0.0867
     46 C          -4.6116    5.0028    0.1852 C.3     1  LIG1       -0.0217
     47 H          -4.0072    5.2895    1.0507 H       1  LIG1        0.0293
     48 H          -3.9247    4.8151   -0.6442 H       1  LIG1        0.0293
     49 H          -5.1489    4.0829    0.4136 H       1  LIG1        0.0293
     50 O          -8.6258    8.7366   -1.0139 O.3     1  LIG1       -0.5052
     51 H          -9.4673    8.2680   -1.0703 H       1  LIG1        0.2922
@<TRIPOS>BOND
     1    23    21    1
     2    22    21    1
     3    19    20    3
     4    21    15    1
     5    20    14    1
     6    51    50    1
     7    50    41    1
     8    15    14   ar
     9    15    16   ar
    10    14    13   ar
    11    44    40    1
    12    41    40   ar
    13    41    42   ar
    14    48    46    1
    15    40    39   ar
    16    45    42    1
    17    42    43   ar
    18    16    24    1
    19    16    17   ar
    20    28    24   ar
    21    28    27   ar
    22    39    27    1
    23    39    38   ar
    24    13    17   ar
    25    13     4    1
    26    24    25   ar
    27    43    38   ar
    28    27    26   ar
    29    38    46    1
    30    31    29    1
    31    32    29    1
    32    17    18    1
    33    25    26   ar
    34    25    29    1
    35    26    33    1
    36     4     5   ar
    37     4     3   ar
    38     5     1   ar
    39    33    34    1
    40    46    49    1
    41    46    47    1
    42     3    10    1
    43     3     2   ar
    44    29    30    1
    45    10    11    3
    46    11    12    1
    47     1     2   ar
    48     1     6    1
    49     2     7    1
    50     7     8    3
    51     8     9    1
    52    34    35    1
    53    34    36    1
    54    34    37    1
