@<TRIPOS>MOLECULE
mol_data/opt/cam/geoms/mol2/12ee12ee-12ee12ee.out
 46 49 0 0 0
SMALL
GASTEIGER

@<TRIPOS>ATOM
      1 C           0.2578    1.7317    0.0194 C.ar    1  LIG1        0.1093
      2 C           1.5743    1.7380   -0.3201 C.ar    1  LIG1        0.0785
      3 C           1.9639    3.1304   -0.3640 C.ar    1  LIG1        0.0888
      4 C           0.8340    3.8383   -0.0364 C.ar    1  LIG1        0.1875
      5 O          -0.1991    2.9890    0.1935 O.2     1  LIG1       -0.4573
      6 H          -0.4533    0.9355    0.1679 H       1  LIG1        0.1042
      7 C           2.3969    0.6113   -0.5856 C.1     1  LIG1       -0.0653
      8 C           3.0946   -0.3421   -0.8106 C.1     1  LIG1       -0.1138
      9 H           3.7151   -1.1849   -1.0113 H       1  LIG1        0.1232
     10 C           3.2373    3.6345   -0.7231 C.1     1  LIG1       -0.0645
     11 C           4.3195    4.0477   -1.0484 C.1     1  LIG1       -0.1138
     12 H           5.2669    4.4355   -1.3436 H       1  LIG1        0.1232
     13 C           0.5567    5.2410    0.0896 C.ar    1  LIG1        0.1885
     14 C          -0.6123    5.9606    0.1326 C.ar    1  LIG1        0.0896
     15 C          -0.2205    7.3423    0.2491 C.ar    1  LIG1        0.0896
     16 C           1.1529    7.3424    0.2689 C.ar    1  LIG1        0.1885
     17 O           1.6207    6.0745    0.1725 O.2     1  LIG1       -0.4460
     18 C          -1.9428    5.4772    0.0619 C.1     1  LIG1       -0.0645
     19 C          -3.0817    5.0953    0.0007 C.1     1  LIG1       -0.1138
     20 H          -4.0894    4.7532   -0.0532 H       1  LIG1        0.1232
     21 C          -1.0969    8.4520    0.3386 C.1     1  LIG1       -0.0645
     22 C          -1.8602    9.3782    0.4161 C.1     1  LIG1       -0.1138
     23 H          -2.5307   10.2034    0.4844 H       1  LIG1        0.1232
     24 C           2.1247    8.3907    0.3835 C.ar    1  LIG1        0.1885
     25 C           3.4666    8.3966    0.6761 C.ar    1  LIG1        0.0896
     26 C           3.8651    9.7831    0.6574 C.ar    1  LIG1        0.0896
     27 C           2.7373   10.4970    0.3447 C.ar    1  LIG1        0.1885
     28 O           1.6838    9.6549    0.1845 O.2     1  LIG1       -0.4460
     29 C           4.2935    7.2950    1.0042 C.1     1  LIG1       -0.0645
     30 C           5.0039    6.3711    1.3025 C.1     1  LIG1       -0.1138
     31 H           5.6120    5.5393    1.5737 H       1  LIG1        0.1232
     32 C           5.1500   10.2813    0.9870 C.1     1  LIG1       -0.0645
     33 C           6.2403   10.6887    1.2893 C.1     1  LIG1       -0.1138
     34 H           7.2020   11.0599    1.5591 H       1  LIG1        0.1232
     35 C           2.4657   11.9013    0.1721 C.ar    1  LIG1        0.1875
     36 C           3.1801   12.9437   -0.3592 C.ar    1  LIG1        0.0888
     37 C           2.3326   14.1084   -0.2230 C.ar    1  LIG1        0.0785
     38 C           1.1863   13.6643    0.3576 C.ar    1  LIG1        0.1093
     39 O           1.2513   12.3404    0.6007 O.2     1  LIG1       -0.4573
     40 H           0.2750   14.1642    0.6431 H       1  LIG1        0.1042
     41 C           4.4488   12.9040   -0.9884 C.1     1  LIG1       -0.0645
     42 C           5.5152   12.8850   -1.5443 C.1     1  LIG1       -0.1138
     43 H           6.4590   12.8576   -2.0381 H       1  LIG1        0.1232
     44 C           2.6305   15.4358   -0.6299 C.1     1  LIG1       -0.0653
     45 C           2.8842   16.5598   -0.9746 C.1     1  LIG1       -0.1138
     46 H           3.1121   17.5546   -1.2812 H       1  LIG1        0.1232
@<TRIPOS>BOND
     1    43    42    1
     2    42    41    3
     3    12    11    1
     4    46    45    1
     5    11    10    3
     6     9     8    1
     7    41    36    1
     8    45    44    3
     9     8     7    3
    10    10     3    1
    11    44    37    1
    12     7     2    1
    13     3     2   ar
    14     3     4   ar
    15    36    37   ar
    16    36    35   ar
    17     2     1   ar
    18    37    38   ar
    19    20    19    1
    20     4    13    1
    21     4     5   ar
    22    19    18    3
    23     1     6    1
    24     1     5   ar
    25    18    14    1
    26    13    14   ar
    27    13    17   ar
    28    14    15   ar
    29    35    27    1
    30    35    39   ar
    31    17    16   ar
    32    28    27   ar
    33    28    24   ar
    34    15    16   ar
    35    15    21    1
    36    16    24    1
    37    21    22    3
    38    27    26   ar
    39    38    39   ar
    40    38    40    1
    41    24    25   ar
    42    22    23    1
    43    26    25   ar
    44    26    32    1
    45    25    29    1
    46    32    33    3
    47    29    30    3
    48    33    34    1
    49    30    31    1
