@<TRIPOS>MOLECULE
mol_data/opt/cam/geoms/mol2/12ee6eh13ih12lf.out
 51 54 0 0 0
SMALL
GASTEIGER

@<TRIPOS>ATOM
      1 C           0.7060    1.7214    1.4737 C.ar    1  LIG1        0.1092
      2 C           1.6165    1.5213    0.4849 C.ar    1  LIG1        0.0783
      3 C           1.7824    2.8081   -0.1552 C.ar    1  LIG1        0.0858
      4 C           0.9499    3.6741    0.5087 C.ar    1  LIG1        0.1540
      5 O           0.3035    3.0073    1.4977 O.2     1  LIG1       -0.4603
      6 H           0.2711    1.0642    2.2090 H       1  LIG1        0.1042
      7 C           2.2656    0.3044    0.1470 C.1     1  LIG1       -0.0653
      8 C           2.8169   -0.7254   -0.1405 C.1     1  LIG1       -0.1138
      9 H           3.3059   -1.6367   -0.3969 H       1  LIG1        0.1232
     10 C           2.6247    3.0789   -1.2645 C.1     1  LIG1       -0.0646
     11 C           3.3481    3.2869   -2.2041 C.1     1  LIG1       -0.1138
     12 H           3.9816    3.4564   -3.0440 H       1  LIG1        0.1232
     13 C          -0.5800    5.6808    0.5815 C.ar    1  LIG1        0.1247
     14 C           0.6847    5.1013    0.3560 C.ar    1  LIG1        0.0541
     15 C           1.7109    5.9434   -0.0612 C.ar    1  LIG1       -0.0255
     16 C           1.4995    7.3082   -0.2216 C.ar    1  LIG1        0.0531
     17 C           0.2263    7.8131    0.1319 C.ar    1  LIG1        0.1094
     18 N          -0.7702    6.9976    0.4766 N.ar    1  LIG1       -0.2344
     19 H           2.6858    5.5253   -0.2860 H       1  LIG1        0.0644
     20 C          -1.7480    4.9052    0.8940 C.1     1  LIG1       -0.0491
     21 C          -2.7507    4.2843    1.1306 C.1     1  LIG1       -0.1124
     22 H          -3.6357    3.7323    1.3479 H       1  LIG1        0.1232
     23 N           2.5045    8.1315   -0.6940 N.pl3   1  LIG1       -0.3563
     24 H           3.2122    7.6730   -1.2483 H       1  LIG1        0.1424
     25 H           2.1844    9.0041   -1.0903 H       1  LIG1        0.1424
     26 C          -0.1287    9.2328    0.0435 C.ar    1  LIG1        0.0721
     27 C           0.5425   10.4243    0.3107 C.ar    1  LIG1       -0.0023
     28 C          -0.3807   11.4782    0.0706 C.ar    1  LIG1        0.0570
     29 C          -1.5869   10.9063   -0.3157 C.ar    1  LIG1        0.1075
     30 N          -1.4048    9.5453   -0.3191 N.ar    1  LIG1       -0.3487
     31 H          -2.1237    8.8523   -0.4565 H       1  LIG1        0.1661
     32 C           1.8982   10.6538    0.9078 C.3     1  LIG1       -0.0359
     33 H           1.8268   11.4478    1.6576 H       1  LIG1        0.0279
     34 H           2.6484   10.9752    0.1737 H       1  LIG1        0.0279
     35 H           2.2895    9.7588    1.3907 H       1  LIG1        0.0279
     36 N          -0.1002   12.8284    0.2866 N.pl3   1  LIG1       -0.3560
     37 H           0.8080   13.1071   -0.0593 H       1  LIG1        0.1424
     38 H          -0.8310   13.4456   -0.0491 H       1  LIG1        0.1424
     39 C          -2.8636   11.4675   -0.6741 C.ar    1  LIG1        0.1979
     40 C          -3.3957   12.7272   -0.7041 C.ar    1  LIG1        0.2092
     41 C          -4.7418   12.5944   -1.1750 C.ar    1  LIG1        0.1979
     42 C          -4.9467   11.2737   -1.3995 C.ar    1  LIG1        0.1378
     43 O          -3.8032   10.5806   -1.1054 O.2     1  LIG1       -0.4538
     44 H          -5.7860   10.6965   -1.7504 H       1  LIG1        0.1069
     45 O          -2.7644   13.8970   -0.3892 O.3     1  LIG1       -0.4884
     46 C          -3.3190   14.5685    0.7431 C.3     1  LIG1        0.0791
     47 H          -2.7417   15.4844    0.8725 H       1  LIG1        0.0660
     48 H          -4.3684   14.8175    0.5663 H       1  LIG1        0.0660
     49 H          -3.2298   13.9486    1.6410 H       1  LIG1        0.0660
     50 O          -5.5699   13.6606   -1.3217 O.3     1  LIG1       -0.5012
     51 H          -6.4281   13.3590   -1.6411 H       1  LIG1        0.2924
@<TRIPOS>BOND
     1    12    11    1
     2    11    10    3
     3    44    42    1
     4    51    50    1
     5    42    41   ar
     6    42    43   ar
     7    50    41    1
     8    10     3    1
     9    24    23    1
    10    41    40   ar
    11    43    39   ar
    12    25    23    1
    13    40    39   ar
    14    40    45    1
    15    23    16    1
    16    39    29    1
    17    31    30    1
    18     9     8    1
    19    45    46    1
    20    30    29   ar
    21    30    26   ar
    22    29    28   ar
    23    19    15    1
    24    16    15   ar
    25    16    17   ar
    26     3     2   ar
    27     3     4   ar
    28     8     7    3
    29    15    14   ar
    30    37    36    1
    31    38    36    1
    32    26    17    1
    33    26    27   ar
    34    28    36    1
    35    28    27   ar
    36    17    18   ar
    37     7     2    1
    38    34    32    1
    39    27    32    1
    40    14     4    1
    41    14    13   ar
    42    18    13   ar
    43     2     1   ar
    44     4     5   ar
    45    48    46    1
    46    13    20    1
    47    46    47    1
    48    46    49    1
    49    20    21    3
    50    32    35    1
    51    32    33    1
    52    21    22    1
    53     1     5   ar
    54     1     6    1
