@<TRIPOS>MOLECULE
mol_data/opt/cam/geoms/mol2/12ee12ee-.out
 24 25 0 0 0
SMALL
GASTEIGER

@<TRIPOS>ATOM
      1 C           0.2059    1.8218   -0.0000 C.ar    1  LIG1        0.1093
      2 C           1.5650    1.8036    0.0000 C.ar    1  LIG1        0.0785
      3 C           1.9787    3.1903   -0.0000 C.ar    1  LIG1        0.0888
      4 C           0.8162    3.9199   -0.0001 C.ar    1  LIG1        0.1874
      5 O          -0.2559    3.0900   -0.0001 O.2     1  LIG1       -0.4573
      6 H          -0.5347    1.0390   -0.0000 H       1  LIG1        0.1042
      7 C           2.4072    0.6603    0.0001 C.1     1  LIG1       -0.0653
      8 C           3.1215   -0.3073    0.0002 C.1     1  LIG1       -0.1138
      9 H           3.7572   -1.1626    0.0002 H       1  LIG1        0.1232
     10 C           3.3154    3.6605   -0.0000 C.1     1  LIG1       -0.0645
     11 C           4.4607    4.0287   -0.0000 C.1     1  LIG1       -0.1138
     12 H           5.4738    4.3588   -0.0000 H       1  LIG1        0.1232
     13 C           0.5420    5.3301   -0.0001 C.ar    1  LIG1        0.1874
     14 C          -0.6205    6.0597   -0.0001 C.ar    1  LIG1        0.0888
     15 C          -0.2067    7.4464   -0.0001 C.ar    1  LIG1        0.0785
     16 C           1.1523    7.4282   -0.0002 C.ar    1  LIG1        0.1093
     17 O           1.6142    6.1600   -0.0001 O.2     1  LIG1       -0.4573
     18 H           1.8930    8.2110   -0.0002 H       1  LIG1        0.1042
     19 C          -1.9572    5.5895   -0.0001 C.1     1  LIG1       -0.0645
     20 C          -3.1025    5.2213   -0.0000 C.1     1  LIG1       -0.1138
     21 H          -4.1156    4.8913    0.0000 H       1  LIG1        0.1232
     22 C          -1.0489    8.5897   -0.0002 C.1     1  LIG1       -0.0653
     23 C          -1.7633    9.5573   -0.0002 C.1     1  LIG1       -0.1138
     24 H          -2.3990   10.4126   -0.0001 H       1  LIG1        0.1232
@<TRIPOS>BOND
     1    18    16    1
     2    23    22    3
     3    23    24    1
     4    22    15    1
     5    16    15   ar
     6    16    17   ar
     7    15    14   ar
     8    17    13   ar
     9    13    14   ar
    10    13     4    1
    11    14    19    1
    12     5     4   ar
    13     5     1   ar
    14     4     3   ar
    15    19    20    3
    16     3    10    1
    17     3     2   ar
    18    10    11    3
    19     1     6    1
    20     1     2   ar
    21    11    12    1
    22    20    21    1
    23     2     7    1
    24     7     8    3
    25     8     9    1
