@<TRIPOS>MOLECULE
mol_data/opt/cam/geoms/mol2/12ee12ee-12ee.out
 35 37 0 0 0
SMALL
GASTEIGER

@<TRIPOS>ATOM
      1 C           0.2115    1.7974    0.4487 C.ar    1  LIG1        0.1093
      2 C           1.5190    1.7399    0.0806 C.ar    1  LIG1        0.0785
      3 C           1.9240    3.1090   -0.1524 C.ar    1  LIG1        0.0888
      4 C           0.8113    3.8703    0.1072 C.ar    1  LIG1        0.1875
      5 O          -0.2257    3.0735    0.4695 O.2     1  LIG1       -0.4573
      6 H          -0.5050    1.0379    0.7157 H       1  LIG1        0.1042
      7 C           2.3212    0.5761   -0.0558 C.1     1  LIG1       -0.0653
      8 C           3.0017   -0.4088   -0.1714 C.1     1  LIG1       -0.1138
      9 H           3.6071   -1.2796   -0.2753 H       1  LIG1        0.1232
     10 C           3.1941    3.5435   -0.6029 C.1     1  LIG1       -0.0645
     11 C           4.2725    3.8959   -1.0032 C.1     1  LIG1       -0.1138
     12 H           5.2168    4.2292   -1.3671 H       1  LIG1        0.1232
     13 C           0.5539    5.2816    0.0567 C.ar    1  LIG1        0.1885
     14 C          -0.6044    6.0187    0.0377 C.ar    1  LIG1        0.0896
     15 C          -0.1924    7.3981   -0.0374 C.ar    1  LIG1        0.0896
     16 C           1.1804    7.3793   -0.0568 C.ar    1  LIG1        0.1885
     17 O           1.6296    6.1027   -0.0001 O.2     1  LIG1       -0.4460
     18 C          -1.9421    5.5514    0.0680 C.1     1  LIG1       -0.0645
     19 C          -3.0868    5.1828    0.0891 C.1     1  LIG1       -0.1138
     20 H          -4.0997    4.8522    0.1088 H       1  LIG1        0.1232
     21 C          -1.0547    8.5226   -0.0673 C.1     1  LIG1       -0.0645
     22 C          -1.8098    9.4586   -0.0882 C.1     1  LIG1       -0.1138
     23 H          -2.4754   10.2905   -0.1076 H       1  LIG1        0.1232
     24 C           2.1696    8.4182   -0.1075 C.ar    1  LIG1        0.1875
     25 C           3.5175    8.4446    0.1521 C.ar    1  LIG1        0.0888
     26 C           3.9298    9.8115   -0.0810 C.ar    1  LIG1        0.0785
     27 C           2.8049   10.4805   -0.4492 C.ar    1  LIG1        0.1093
     28 O           1.7395    9.6532   -0.4698 O.2     1  LIG1       -0.4573
     29 H           2.6222   11.5085   -0.7162 H       1  LIG1        0.1042
     30 C           4.3413    7.3848    0.6027 C.1     1  LIG1       -0.0645
     31 C           5.0499    6.4987    1.0031 C.1     1  LIG1       -0.1138
     32 H           5.6567    5.7021    1.3669 H       1  LIG1        0.1232
     33 C           5.2388   10.3447    0.0552 C.1     1  LIG1       -0.0653
     34 C           6.3480   10.7951    0.1707 C.1     1  LIG1       -0.1138
     35 H           7.3318   11.1913    0.2745 H       1  LIG1        0.1232
@<TRIPOS>BOND
     1    12    11    1
     2    11    10    3
     3    29    27    1
     4    10     3    1
     5    28    27   ar
     6    28    24   ar
     7    27    26   ar
     8     9     8    1
     9     8     7    3
    10     3     2   ar
    11     3     4   ar
    12    23    22    1
    13    24    16    1
    14    24    25   ar
    15    22    21    3
    16    26    33    1
    17    26    25   ar
    18    21    15    1
    19    16    15   ar
    20    16    17   ar
    21     7     2    1
    22    15    14   ar
    23    17    13   ar
    24    14    13   ar
    25    14    18    1
    26    33    34    3
    27    13     4    1
    28    18    19    3
    29     2     1   ar
    30    19    20    1
    31     4     5   ar
    32    25    30    1
    33    34    35    1
    34     1     5   ar
    35     1     6    1
    36    30    31    3
    37    31    32    1
