@<TRIPOS>MOLECULE
mol_data/opt/cam/geoms/mol2/12ee4hf-4fa13he-.out
 49 52 0 0 0
SMALL
GASTEIGER

@<TRIPOS>ATOM
      1 C           0.1545    1.6400   -0.0242 C.ar    1  LIG1        0.1092
      2 C           1.5028    1.5328   -0.1275 C.ar    1  LIG1        0.0783
      3 C           2.0009    2.8934   -0.1314 C.ar    1  LIG1        0.0858
      4 C           0.9054    3.7117   -0.0131 C.ar    1  LIG1        0.1532
      5 O          -0.2158    2.9371    0.0440 O.2     1  LIG1       -0.4604
      6 H          -0.6348    0.9071    0.0158 H       1  LIG1        0.1042
      7 C           2.2669    0.3400   -0.2271 C.1     1  LIG1       -0.0653
      8 C           2.9167   -0.6688   -0.3118 C.1     1  LIG1       -0.1138
      9 H           3.4941   -1.5613   -0.3858 H       1  LIG1        0.1232
     10 C           3.3571    3.2692   -0.3043 C.1     1  LIG1       -0.0646
     11 C           4.5117    3.5829   -0.4455 C.1     1  LIG1       -0.1138
     12 H           5.5318    3.8518   -0.5968 H       1  LIG1        0.1232
     13 C           1.4684    6.0610    0.7379 C.ar    1  LIG1        0.0362
     14 C           1.1040    7.4121    0.7153 C.ar    1  LIG1       -0.0290
     15 C           0.6735    5.1546    0.0138 C.ar    1  LIG1        0.0426
     16 C          -0.0021    7.9011    0.0319 C.ar    1  LIG1        0.0288
     17 H           1.7178    8.1167    1.2647 H       1  LIG1        0.0643
     18 C          -0.4452    5.6395   -0.6783 C.ar    1  LIG1       -0.0071
     19 C          -0.7880    6.9765   -0.6790 C.ar    1  LIG1        0.1254
     20 H          -1.0557    4.9317   -1.2316 H       1  LIG1        0.0662
     21 N           2.5269    5.6573    1.5475 N.pl3   1  LIG1       -0.3574
     22 H           3.1117    4.9175    1.1846 H       1  LIG1        0.1423
     23 H           3.0838    6.4277    1.8878 H       1  LIG1        0.1423
     24 O          -1.8760    7.4373   -1.3719 O.3     1  LIG1       -0.5061
     25 H          -2.2767    6.6988   -1.8443 H       1  LIG1        0.2922
     26 C           0.6155   10.3497   -0.1047 C.ar    1  LIG1        0.1253
     27 C           0.2727   11.6955   -0.0437 C.ar    1  LIG1       -0.0104
     28 C          -0.3479    9.3440    0.0730 C.ar    1  LIG1        0.0271
     29 C          -1.0447   12.0959    0.1959 C.ar    1  LIG1        0.0036
     30 H           1.0469   12.4502   -0.1531 H       1  LIG1        0.0661
     31 C          -1.6595    9.7625    0.3098 C.ar    1  LIG1       -0.0498
     32 C          -2.0122   11.1001    0.3711 C.ar    1  LIG1       -0.0518
     33 H          -2.4246    9.0057    0.4308 H       1  LIG1        0.0625
     34 O           1.9070    9.9778   -0.3363 O.3     1  LIG1       -0.5061
     35 H           2.4380   10.7720   -0.4688 H       1  LIG1        0.2922
     36 H          -3.0530   11.3684    0.5211 H       1  LIG1        0.0624
     37 C          -1.3812   13.5124    0.2719 C.ar    1  LIG1        0.0687
     38 C          -0.7922   14.6212   -0.3044 C.ar    1  LIG1        0.0658
     39 C          -1.5381   15.7713    0.1047 C.ar    1  LIG1        0.0632
     40 C          -2.5565   15.3224    0.9239 C.ar    1  LIG1        0.0195
     41 N          -2.4681   13.9743    1.0004 N.ar    1  LIG1       -0.3580
     42 H          -3.0226   13.3919    1.6050 H       1  LIG1        0.1654
     43 H          -3.3211   15.8789    1.4425 H       1  LIG1        0.0820
     44 N           0.3341   14.6557   -1.1334 N.pl3   1  LIG1       -0.3554
     45 H           0.3386   13.9166   -1.8259 H       1  LIG1        0.1424
     46 H           0.4333   15.5584   -1.5827 H       1  LIG1        0.1424
     47 C          -1.2662   17.1048   -0.2984 C.1     1  LIG1       -0.0663
     48 C          -0.9985   18.2182   -0.6757 C.1     1  LIG1       -0.1138
     49 H          -0.7740   19.2105   -0.9917 H       1  LIG1        0.1232
@<TRIPOS>BOND
     1    25    24    1
     2    45    44    1
     3    46    44    1
     4    24    19    1
     5    20    18    1
     6    44    38    1
     7    49    48    1
     8    19    18   ar
     9    19    16   ar
    10    18    15   ar
    11    48    47    3
    12    12    11    1
    13    35    34    1
    14    11    10    3
    15     9     8    1
    16    34    26    1
    17     8     7    3
    18    38    39   ar
    19    38    37   ar
    20    10     3    1
    21    47    39    1
    22     7     2    1
    23    30    27    1
    24     3     2   ar
    25     3     4   ar
    26     2     1   ar
    27    26    27   ar
    28    26    28   ar
    29    27    29   ar
    30     1     6    1
    31     1     5   ar
    32     4    15    1
    33     4     5   ar
    34    15    13   ar
    35    16    28    1
    36    16    14   ar
    37    28    31   ar
    38    39    40   ar
    39    29    37    1
    40    29    32   ar
    41    37    41   ar
    42    31    32   ar
    43    31    33    1
    44    32    36    1
    45    14    13   ar
    46    14    17    1
    47    13    21    1
    48    40    41   ar
    49    40    43    1
    50    41    42    1
    51    22    21    1
    52    21    23    1
