@<TRIPOS>MOLECULE
mol_data/opt/cam/geoms/mol2/12ee13fe6ff-4fd12ha-12ae12aa-6le-.out
 87 94 0 0 0
SMALL
GASTEIGER

@<TRIPOS>ATOM
      1 C           1.5506    3.1170   -2.5642 C.ar    1  LIG1        0.1092
      2 C           2.6399    2.6842   -1.8827 C.ar    1  LIG1        0.0784
      3 C           2.8579    3.6438   -0.8162 C.ar    1  LIG1        0.0873
      4 C           1.8763    4.5903   -0.9611 C.ar    1  LIG1        0.1710
      5 O           1.0794    4.2664   -2.0222 O.2     1  LIG1       -0.4588
      6 H           1.0178    2.7301   -3.4172 H       1  LIG1        0.1042
      7 C           3.4068    1.5190   -2.1496 C.1     1  LIG1       -0.0653
      8 C           4.0568    0.5325   -2.3754 C.1     1  LIG1       -0.1138
      9 H           4.6349   -0.3407   -2.5721 H       1  LIG1        0.1232
     10 C           3.8640    3.5461    0.1766 C.1     1  LIG1       -0.0646
     11 C           4.7228    3.4158    1.0088 C.1     1  LIG1       -0.1138
     12 H           5.4810    3.3137    1.7499 H       1  LIG1        0.1232
     13 C           1.4829    5.7900   -0.2726 C.ar    1  LIG1        0.1270
     14 C           2.1110    6.6297    0.6244 C.ar    1  LIG1        0.1611
     15 C           1.2113    7.6842    0.9507 C.ar    1  LIG1        0.0922
     16 C           0.0393    7.4691    0.2282 C.ar    1  LIG1        0.0714
     17 N           0.2341    6.3405   -0.5131 N.ar    1  LIG1       -0.3477
     18 H          -0.4900    5.8665   -1.0326 H       1  LIG1        0.1661
     19 O           3.3707    6.5044    1.0788 O.3     1  LIG1       -0.5034
     20 H           3.5460    7.2418    1.6806 H       1  LIG1        0.2923
     21 C           1.5592    8.7452    1.8240 C.1     1  LIG1       -0.0638
     22 C           1.9381    9.6046    2.5809 C.1     1  LIG1       -0.1137
     23 H           2.2475   10.3800    3.2434 H       1  LIG1        0.1232
     24 C          -2.0592    8.2461   -0.9243 C.ar    1  LIG1        0.2225
     25 C          -1.2159    8.2148    0.2078 C.ar    1  LIG1        0.0644
     26 C          -1.6553    8.9245    1.3160 C.ar    1  LIG1       -0.0038
     27 C          -2.8787    9.5902    1.3055 C.ar    1  LIG1        0.1437
     28 C          -3.6590    9.5197    0.1415 C.ar    1  LIG1        0.1196
     29 N          -3.2163    8.8559   -0.9386 N.ar    1  LIG1       -0.2087
     30 H          -1.0698    8.9505    2.2269 H       1  LIG1        0.0663
     31 O          -1.7277    7.6005   -2.0824 O.3     1  LIG1       -0.4919
     32 H          -0.7671    7.6167   -2.1893 H       1  LIG1        0.2937
     33 O          -3.2582   10.1872    2.4596 O.3     1  LIG1       -0.5046
     34 H          -3.7968   10.9696    2.2513 H       1  LIG1        0.2922
     35 C          -5.4929   11.2887    0.4971 C.ar    1  LIG1        0.1269
     36 C          -6.7961   11.7220    0.3021 C.ar    1  LIG1       -0.0076
     37 C          -5.0373   10.0631   -0.0020 C.ar    1  LIG1        0.0467
     38 C          -7.7181   10.9639   -0.4229 C.ar    1  LIG1        0.0399
     39 H          -7.1188   12.6582    0.7490 H       1  LIG1        0.0662
     40 C          -5.9563    9.3221   -0.7434 C.ar    1  LIG1       -0.0308
     41 C          -7.2673    9.7390   -0.9601 C.ar    1  LIG1        0.0633
     42 H          -5.6149    8.3939   -1.1844 H       1  LIG1        0.0638
     43 O          -4.6088   12.0767    1.1893 O.3     1  LIG1       -0.5061
     44 H          -5.0467   12.8840    1.4867 H       1  LIG1        0.2922
     45 N          -8.6942    8.2145   -2.4906 N.1     1  LIG1       -0.1908
     46 C          -8.0943    8.9113   -1.7891 C.1     1  LIG1        0.0999
     47 C          -9.0638   11.4725   -0.5916 C.ar    1  LIG1        0.1577
     48 C          -9.5581   12.7540   -0.6568 C.ar    1  LIG1        0.0717
     49 C         -10.9694   12.6347   -0.7805 C.ar    1  LIG1        0.0086
     50 C         -11.2404   11.2954   -0.7912 C.ar    1  LIG1        0.1725
     51 O         -10.1036   10.5825   -0.6865 O.2     1  LIG1       -0.4498
     52 N          -8.8377   13.9457   -0.5823 N.pl3   1  LIG1       -0.3550
     53 H          -7.9260   13.8914   -1.0189 H       1  LIG1        0.1424
     54 H          -9.3510   14.7382   -0.9437 H       1  LIG1        0.1424
     55 H         -11.6880   13.4386   -0.8401 H       1  LIG1        0.0675
     56 C         -12.4909   10.5874   -0.8883 C.ar    1  LIG1        0.1720
     57 C         -13.7472   11.0109   -1.1938 C.ar    1  LIG1        0.0034
     58 C         -14.5957    9.8666   -1.0937 C.ar    1  LIG1        0.0741
     59 C         -13.7741    8.8198   -0.7332 C.ar    1  LIG1        0.1860
     60 O         -12.5010    9.2555   -0.6079 O.2     1  LIG1       -0.4474
     61 H         -14.0494   12.0094   -1.4691 H       1  LIG1        0.0669
     62 C         -15.9945    9.8194   -1.3250 C.1     1  LIG1       -0.0657
     63 C         -17.1823    9.7920   -1.5228 C.1     1  LIG1       -0.1138
     64 H         -18.2327    9.7724   -1.7017 H       1  LIG1        0.1232
     65 C         -14.0475    7.4334   -0.4761 C.ar    1  LIG1        0.1718
     66 C         -15.2080    6.7114   -0.4913 C.ar    1  LIG1       -0.0121
     67 C         -14.8439    5.3825   -0.1528 C.ar    1  LIG1       -0.0150
     68 C         -13.4923    5.3832    0.0466 C.ar    1  LIG1        0.1410
     69 O         -13.0018    6.6340   -0.1473 O.2     1  LIG1       -0.4515
     70 H         -16.1883    7.0937   -0.7274 H       1  LIG1        0.0657
     71 H         -15.4945    4.5233   -0.0904 H       1  LIG1        0.0656
     72 C         -11.2651    4.1886   -0.0767 C.ar    1  LIG1        0.2255
     73 C         -12.5800    4.3133    0.4396 C.ar    1  LIG1        0.0798
     74 C         -13.0000    3.3297    1.3170 C.ar    1  LIG1       -0.0291
     75 C         -12.1500    2.2698    1.6632 C.ar    1  LIG1        0.0437
     76 C         -10.8783    2.2680    1.0978 C.ar    1  LIG1        0.0468
     77 N         -10.4481    3.2012    0.2510 N.ar    1  LIG1       -0.2195
     78 H         -13.9914    3.3869    1.7524 H       1  LIG1        0.0639
     79 H         -10.1776    1.4741    1.3417 H       1  LIG1        0.0843
     80 O         -10.8613    5.1153   -0.9431 O.3     1  LIG1       -0.4792
     81 C          -9.5426    5.0025   -1.4783 C.3     1  LIG1        0.0804
     82 H          -9.4087    5.8846   -2.1012 H       1  LIG1        0.0660
     83 H          -8.8024    4.9850   -0.6759 H       1  LIG1        0.0660
     84 H          -9.4427    4.0850   -2.0632 H       1  LIG1        0.0660
     85 C         -12.5604    1.2422    2.5673 C.1     1  LIG1       -0.0681
     86 C         -12.9061    0.3754    3.3279 C.1     1  LIG1       -0.1139
     87 H         -13.2095   -0.3923    4.0016 H       1  LIG1        0.1232
@<TRIPOS>BOND
     1     6     1    1
     2     9     8    1
     3     1     5   ar
     4     1     2   ar
     5    45    46    3
     6     8     7    3
     7    32    31    1
     8     7     2    1
     9    82    81    1
    10    31    24    1
    11    84    81    1
    12     5     4   ar
    13     2     3   ar
    14    46    41    1
    15    64    63    1
    16    63    62    3
    17    81    80    1
    18    81    83    1
    19    61    57    1
    20    62    58    1
    21    57    58   ar
    22    57    56   ar
    23    42    40    1
    24    58    59   ar
    25    18    17    1
    26    53    52    1
    27     4     3   ar
    28     4    13    1
    29    41    40   ar
    30    41    38   ar
    31    54    52    1
    32    80    72    1
    33    29    24   ar
    34    29    28   ar
    35    24    25   ar
    36    56    50    1
    37    56    60   ar
    38    55    49    1
    39     3    10    1
    40    50    49   ar
    41    50    51   ar
    42    49    48   ar
    43    40    37   ar
    44    59    60   ar
    45    59    65    1
    46    70    66    1
    47    51    47   ar
    48    48    47   ar
    49    48    52    1
    50    47    38    1
    51    17    13   ar
    52    17    16   ar
    53    66    65   ar
    54    66    67   ar
    55    65    69   ar
    56    38    36   ar
    57    13    14   ar
    58    67    71    1
    59    67    68   ar
    60    69    68   ar
    61    72    77   ar
    62    72    73   ar
    63    37    28    1
    64    37    35   ar
    65    68    73    1
    66    28    27   ar
    67    10    11    3
    68    25    16    1
    69    25    26   ar
    70    16    15   ar
    71    77    76   ar
    72    36    35   ar
    73    36    39    1
    74    73    74   ar
    75    35    43    1
    76    14    15   ar
    77    14    19    1
    78    15    21    1
    79    11    12    1
    80    19    20    1
    81    76    79    1
    82    76    75   ar
    83    43    44    1
    84    27    26   ar
    85    27    33    1
    86    26    30    1
    87    74    75   ar
    88    74    78    1
    89    75    85    1
    90    21    22    3
    91    34    33    1
    92    85    86    3
    93    22    23    1
    94    86    87    1
