@<TRIPOS>MOLECULE
mol_data/opt/cam/geoms/mol2/12ee12ee-12ee-12ee-.out
 46 49 0 0 0
SMALL
GASTEIGER

@<TRIPOS>ATOM
      1 C           0.0692    1.7745    0.4530 C.ar    1  LIG1        0.1093
      2 C           1.3983    1.7605    0.7394 C.ar    1  LIG1        0.0785
      3 C           1.8437    3.1310    0.6147 C.ar    1  LIG1        0.0888
      4 C           0.7278    3.8480    0.2604 C.ar    1  LIG1        0.1875
      5 O          -0.3459    3.0250    0.1632 O.2     1  LIG1       -0.4573
      6 H          -0.6777    0.9984    0.4181 H       1  LIG1        0.1042
      7 C           2.1880    0.6335    1.0896 C.1     1  LIG1       -0.0653
      8 C           2.8577   -0.3204    1.3863 C.1     1  LIG1       -0.1138
      9 H           3.4543   -1.1632    1.6498 H       1  LIG1        0.1232
     10 C           3.1628    3.6038    0.8224 C.1     1  LIG1       -0.0645
     11 C           4.2899    3.9824    1.0046 C.1     1  LIG1       -0.1138
     12 H           5.2854    4.3279    1.1634 H       1  LIG1        0.1232
     13 C           0.5036    5.2398   -0.0092 C.ar    1  LIG1        0.1885
     14 C          -0.6128    5.9580   -0.3607 C.ar    1  LIG1        0.0896
     15 C          -0.1719    7.3254   -0.4945 C.ar    1  LIG1        0.0896
     16 C           1.1660    7.3227   -0.1957 C.ar    1  LIG1        0.1885
     17 O           1.5743    6.0587    0.0909 O.2     1  LIG1       -0.4460
     18 C          -1.9317    5.4874   -0.5777 C.1     1  LIG1       -0.0645
     19 C          -3.0606    5.1183   -0.7683 C.1     1  LIG1       -0.1138
     20 H          -4.0592    4.7869   -0.9366 H       1  LIG1        0.1232
     21 C          -0.9678    8.4147   -0.9275 C.1     1  LIG1       -0.0645
     22 C          -1.6523    9.3234   -1.3172 C.1     1  LIG1       -0.1138
     23 H          -2.2493   10.1346   -1.6651 H       1  LIG1        0.1232
     24 C           2.1773    8.3467   -0.1429 C.ar    1  LIG1        0.1885
     25 C           2.1728    9.6596    0.2519 C.ar    1  LIG1        0.0896
     26 C           3.5185   10.1396    0.0437 C.ar    1  LIG1        0.0896
     27 C           4.2319    9.0670   -0.4242 C.ar    1  LIG1        0.1885
     28 O           3.4223    7.9851   -0.5439 O.2     1  LIG1       -0.4460
     29 C           1.1030   10.4027    0.8088 C.1     1  LIG1       -0.0645
     30 C           0.2122   11.0415    1.3038 C.1     1  LIG1       -0.1138
     31 H          -0.5827   11.5978    1.7442 H       1  LIG1        0.1232
     32 C           3.9669   11.4692    0.2398 C.1     1  LIG1       -0.0645
     33 C           4.3262   12.6069    0.3916 C.1     1  LIG1       -0.1138
     34 H           4.6536   13.6126    0.5208 H       1  LIG1        0.1232
     35 C           5.6093    8.8821   -0.8085 C.ar    1  LIG1        0.1875
     36 C           6.7991    9.3575   -0.3220 C.ar    1  LIG1        0.0888
     37 C           7.8240    8.7889   -1.1706 C.ar    1  LIG1        0.0785
     38 C           7.1664    8.0152   -2.0749 C.ar    1  LIG1        0.1093
     39 O           5.8356    8.0612   -1.8696 O.2     1  LIG1       -0.4573
     40 H           7.5086    7.3976   -2.8896 H       1  LIG1        0.1042
     41 C           7.0150   10.1711    0.8176 C.1     1  LIG1       -0.0645
     42 C           7.2173   10.8437    1.7939 C.1     1  LIG1       -0.1138
     43 H           7.3861   11.4377    2.6623 H       1  LIG1        0.1232
     44 C           9.2266    8.9842   -1.0665 C.1     1  LIG1       -0.0653
     45 C          10.4144    9.1506   -0.9770 C.1     1  LIG1       -0.1138
     46 H          11.4664    9.3004   -0.8956 H       1  LIG1        0.1232
@<TRIPOS>BOND
     1    40    38    1
     2    38    39   ar
     3    38    37   ar
     4    39    35   ar
     5    23    22    1
     6    22    21    3
     7    37    44    1
     8    37    36   ar
     9    44    45    3
    10    45    46    1
    11    20    19    1
    12    21    15    1
    13    35    27    1
    14    35    36   ar
    15    19    18    3
    16    18    14    1
    17    28    27   ar
    18    28    24   ar
    19    15    14   ar
    20    15    16   ar
    21    27    26   ar
    22    14    13   ar
    23    36    41    1
    24    16    24    1
    25    16    17   ar
    26    24    25   ar
    27    13    17   ar
    28    13     4    1
    29    26    32    1
    30    26    25   ar
    31     5     4   ar
    32     5     1   ar
    33    32    33    3
    34    25    29    1
    35     4     3   ar
    36    33    34    1
    37     6     1    1
    38     1     2   ar
    39     3     2   ar
    40     3    10    1
    41     2     7    1
    42    29    30    3
    43    41    42    3
    44    10    11    3
    45    11    12    1
    46     7     8    3
    47    30    31    1
    48     8     9    1
    49    42    43    1
