@<TRIPOS>MOLECULE
mol_data/opt/cam/geoms/mol2/12ef12ef12ef12ef-.out
 42 45 0 0 0
SMALL
GASTEIGER

@<TRIPOS>ATOM
      1 C           0.5050    1.7161   -0.0000 C.ar    1  LIG1        0.1118
      2 C           1.8665    1.7802    0.0000 C.ar    1  LIG1        0.1045
      3 C           2.1815    3.1814    0.0000 C.ar    1  LIG1        0.1815
      4 C           0.9813    3.8532   -0.0000 C.ar    1  LIG1        0.2134
      5 O          -0.0441    2.9372   -0.0001 O.2     1  LIG1       -0.4547
      6 H          -0.1742    0.8785   -0.0001 H       1  LIG1        0.1043
      7 C           2.7886    0.7011    0.0001 C.1     1  LIG1       -0.0628
      8 C           3.5678   -0.2152    0.0001 C.1     1  LIG1       -0.1137
      9 H           4.2630   -1.0227   -0.0000 H       1  LIG1        0.1232
     10 O           3.4420    3.6203    0.0001 O.3     1  LIG1       -0.5023
     11 H           3.4790    4.5930    0.0001 H       1  LIG1        0.2923
     12 C           0.6031    5.2356   -0.0000 C.ar    1  LIG1        0.1934
     13 C           1.3229    6.4142   -0.0000 C.ar    1  LIG1        0.1157
     14 C           0.3520    7.4655   -0.0001 C.ar    1  LIG1        0.1823
     15 C          -0.8839    6.8655   -0.0001 C.ar    1  LIG1        0.2144
     16 O          -0.7128    5.4986   -0.0001 O.2     1  LIG1       -0.4434
     17 C           2.7269    6.6021    0.0001 C.1     1  LIG1       -0.0621
     18 C           3.9184    6.7920    0.0001 C.1     1  LIG1       -0.1137
     19 H           4.9688    6.9760    0.0003 H       1  LIG1        0.1232
     20 O           0.7140    8.7498   -0.0000 O.3     1  LIG1       -0.5023
     21 H          -0.0627    9.3374   -0.0001 H       1  LIG1        0.2923
     22 C          -2.2324    7.3413   -0.0002 C.ar    1  LIG1        0.1934
     23 C          -2.7916    8.6076   -0.0002 C.ar    1  LIG1        0.1157
     24 C          -4.2066    8.4001   -0.0003 C.ar    1  LIG1        0.1823
     25 C          -4.4105    7.0486   -0.0003 C.ar    1  LIG1        0.2144
     26 O          -3.2004    6.4048   -0.0002 O.2     1  LIG1       -0.4434
     27 C          -2.1415    9.8655   -0.0002 C.1     1  LIG1       -0.0621
     28 C          -1.6144   10.9512   -0.0002 C.1     1  LIG1       -0.1137
     29 H          -1.1659   11.9187   -0.0001 H       1  LIG1        0.1232
     30 O          -5.1099    9.3905   -0.0003 O.3     1  LIG1       -0.5023
     31 H          -5.9949    8.9952   -0.0003 H       1  LIG1        0.2923
     32 C          -5.6230    6.2977   -0.0003 C.ar    1  LIG1        0.1924
     33 C          -5.9409    4.9642   -0.0003 C.ar    1  LIG1        0.1149
     34 C          -7.3824    4.9125   -0.0004 C.ar    1  LIG1        0.1709
     35 C          -7.8368    6.1851   -0.0004 C.ar    1  LIG1        0.1353
     36 O          -6.7557    7.0451   -0.0004 O.2     1  LIG1       -0.4547
     37 H          -8.8149    6.6317   -0.0005 H       1  LIG1        0.1068
     38 C          -5.1086    3.8203   -0.0003 C.1     1  LIG1       -0.0621
     39 C          -4.4751    2.7949   -0.0002 C.1     1  LIG1       -0.1137
     40 H          -3.8774    1.9130    0.0000 H       1  LIG1        0.1232
     41 O          -8.1224    3.7866   -0.0004 O.3     1  LIG1       -0.5028
     42 H          -7.5168    3.0320   -0.0004 H       1  LIG1        0.2923
@<TRIPOS>BOND
     1    37    35    1
     2    35    34   ar
     3    35    36   ar
     4    41    34    1
     5    41    42    1
     6    34    33   ar
     7    36    32   ar
     8    31    30    1
     9    33    32   ar
    10    33    38    1
    11    32    25    1
    12    30    24    1
    13    38    39    3
    14    25    24   ar
    15    25    26   ar
    16    24    23   ar
    17    39    40    1
    18    26    22   ar
    19    23    27    1
    20    23    22   ar
    21    27    28    3
    22    22    15    1
    23    28    29    1
    24    15    16   ar
    25    15    14   ar
    26    16    12   ar
    27    21    20    1
    28     6     1    1
    29     5     1   ar
    30     5     4   ar
    31    14    20    1
    32    14    13   ar
    33     9     8    1
    34    12     4    1
    35    12    13   ar
    36     1     2   ar
    37     4     3   ar
    38    13    17    1
    39     2     3   ar
    40     2     7    1
    41     3    10    1
    42    17    18    3
    43     7     8    3
    44    10    11    1
    45    18    19    1
