@<TRIPOS>MOLECULE
mol_data/opt/cam/geoms/mol2/12ef13al-4if6ff.out
 49 52 0 0 0
SMALL
GASTEIGER

@<TRIPOS>ATOM
      1 C           0.4001    1.6839    0.6545 C.ar    1  LIG1        0.1117
      2 C           1.7446    1.7978    0.8499 C.ar    1  LIG1        0.1045
      3 C           2.0489    3.1735    0.5692 C.ar    1  LIG1        0.1798
      4 C           0.8808    3.7778    0.2146 C.ar    1  LIG1        0.1934
      5 O          -0.1395    2.8610    0.2769 O.2     1  LIG1       -0.4564
      6 H          -0.2746    0.8483    0.7474 H       1  LIG1        0.1043
      7 C           2.6495    0.7816    1.2558 C.1     1  LIG1       -0.0628
      8 C           3.4160   -0.0788    1.6010 C.1     1  LIG1       -0.1137
      9 H           4.0995   -0.8374    1.9054 H       1  LIG1        0.1232
     10 O           3.2802    3.7171    0.6775 O.3     1  LIG1       -0.5024
     11 H           3.1877    4.6796    0.7071 H       1  LIG1        0.2923
     12 C           0.5808    5.1366   -0.1533 C.ar    1  LIG1        0.0898
     13 C           1.4120    6.1124   -0.6801 C.ar    1  LIG1        0.0092
     14 C           0.6393    7.2985   -0.7713 C.ar    1  LIG1        0.1459
     15 C          -0.6367    7.0349   -0.3039 C.ar    1  LIG1        0.0896
     16 N          -0.6423    5.6977    0.0514 N.ar    1  LIG1       -0.3487
     17 H          -1.4036    5.2395    0.5259 H       1  LIG1        0.1661
     18 H           2.4168    5.9552   -1.0419 H       1  LIG1        0.0677
     19 O           1.0046    8.4997   -1.2854 O.3     1  LIG1       -0.4930
     20 C           2.3102    8.5760   -1.8179 C.3     1  LIG1        0.0789
     21 H           2.4344    9.5932   -2.1883 H       1  LIG1        0.0660
     22 H           3.0690    8.3769   -1.0515 H       1  LIG1        0.0660
     23 H           2.4451    7.8711   -2.6464 H       1  LIG1        0.0660
     24 C          -1.9187    9.1214    0.3067 C.ar    1  LIG1       -0.0404
     25 C          -3.1444    9.7798    0.3180 C.ar    1  LIG1       -0.0468
     26 C          -1.8656    7.8334   -0.2544 C.ar    1  LIG1        0.0083
     27 C          -4.3319    9.2358   -0.1786 C.ar    1  LIG1        0.0290
     28 H          -3.1864   10.7797    0.7380 H       1  LIG1        0.0628
     29 C          -3.0413    7.2681   -0.7580 C.ar    1  LIG1       -0.0101
     30 C          -4.2457    7.9503   -0.7189 C.ar    1  LIG1        0.1253
     31 H          -3.0026    6.2825   -1.2160 H       1  LIG1        0.0661
     32 C          -0.7095    9.7806    0.9119 C.3     1  LIG1       -0.0391
     33 H          -0.9978   10.6675    1.4796 H       1  LIG1        0.0278
     34 H           0.0100   10.0744    0.1448 H       1  LIG1        0.0278
     35 H          -0.1873    9.0959    1.5866 H       1  LIG1        0.0278
     36 O          -5.3963    7.3837   -1.2198 O.3     1  LIG1       -0.5061
     37 H          -5.2013    6.5101   -1.5799 H       1  LIG1        0.2922
     38 C          -6.4987   10.2160   -1.1406 C.ar    1  LIG1        0.2205
     39 C          -5.5942   10.0135   -0.0700 C.ar    1  LIG1        0.0504
     40 C          -5.8786   10.6641    1.1260 C.ar    1  LIG1       -0.0058
     41 C          -6.9871   11.4944    1.2261 C.ar    1  LIG1        0.1357
     42 C          -7.7803   11.6503    0.0997 C.ar    1  LIG1        0.0728
     43 N          -7.5441   11.0191   -1.0463 N.ar    1  LIG1       -0.2173
     44 H          -5.2389   10.5320    1.9916 H       1  LIG1        0.0662
     45 H          -8.6506   12.3074    0.1248 H       1  LIG1        0.0868
     46 O          -6.3261    9.6427   -2.3514 O.3     1  LIG1       -0.4920
     47 H          -5.9740    8.7467   -2.2210 H       1  LIG1        0.2937
     48 O          -7.2348   12.1133    2.4159 O.3     1  LIG1       -0.5052
     49 H          -8.0329   12.6485    2.3331 H       1  LIG1        0.2922
@<TRIPOS>BOND
     1    23    20    1
     2    46    47    1
     3    46    38    1
     4    21    20    1
     5    20    19    1
     6    20    22    1
     7    37    36    1
     8    19    14    1
     9    36    30    1
    10    31    29    1
    11    38    43   ar
    12    38    39   ar
    13    43    42   ar
    14    18    13    1
    15    14    13   ar
    16    14    15   ar
    17    29    30   ar
    18    29    26   ar
    19    30    27   ar
    20    13    12   ar
    21    15    26    1
    22    15    16   ar
    23    26    24   ar
    24    27    39    1
    25    27    25   ar
    26    12    16   ar
    27    12     4    1
    28    39    40   ar
    29    16    17    1
    30    42    45    1
    31    42    41   ar
    32    34    32    1
    33     4     5   ar
    34     4     3   ar
    35     5     1   ar
    36    24    25   ar
    37    24    32    1
    38    25    28    1
    39     3    10    1
    40     3     2   ar
    41     1     6    1
    42     1     2   ar
    43    10    11    1
    44     2     7    1
    45    32    33    1
    46    32    35    1
    47    40    41   ar
    48    40    44    1
    49    41    48    1
    50     7     8    3
    51     8     9    1
    52    49    48    1
