@<TRIPOS>MOLECULE
mol_data/opt/cam/geoms/mol2/12ef12ef12ef12ef.out
 42 45 0 0 0
SMALL
GASTEIGER

@<TRIPOS>ATOM
      1 C           0.4402    1.6904    0.0000 C.ar    1  LIG1        0.1118
      2 C           1.8026    1.7430    0.0001 C.ar    1  LIG1        0.1045
      3 C           2.1297    3.1414    0.0001 C.ar    1  LIG1        0.1815
      4 C           0.9352    3.8231    0.0000 C.ar    1  LIG1        0.2134
      5 O          -0.0974    2.9160    0.0000 O.2     1  LIG1       -0.4547
      6 H          -0.2479    0.8600    0.0001 H       1  LIG1        0.1043
      7 C           2.7154    0.6559    0.0001 C.1     1  LIG1       -0.0628
      8 C           3.4867   -0.2670    0.0001 C.1     1  LIG1       -0.1137
      9 H           4.1749   -1.0805   -0.0006 H       1  LIG1        0.1232
     10 O           3.3938    3.5709    0.0001 O.3     1  LIG1       -0.5023
     11 H           3.4372    4.5433    0.0001 H       1  LIG1        0.2923
     12 C           0.5657    5.2078   -0.0000 C.ar    1  LIG1        0.1934
     13 C           1.2909    6.3830   -0.0000 C.ar    1  LIG1        0.1157
     14 C           0.3243    7.4388   -0.0001 C.ar    1  LIG1        0.1823
     15 C          -0.9139    6.8443   -0.0001 C.ar    1  LIG1        0.2144
     16 O          -0.7487    5.4767   -0.0001 O.2     1  LIG1       -0.4434
     17 C           2.6959    6.5624    0.0000 C.1     1  LIG1       -0.0621
     18 C           3.8888    6.7434    0.0001 C.1     1  LIG1       -0.1137
     19 H           4.9403    6.9205    0.0004 H       1  LIG1        0.1232
     20 O           0.6912    8.7218   -0.0001 O.3     1  LIG1       -0.5023
     21 H          -0.0838    9.3119   -0.0001 H       1  LIG1        0.2923
     22 C          -2.2612    7.3252   -0.0001 C.ar    1  LIG1        0.1934
     23 C          -2.8153    8.5907   -0.0002 C.ar    1  LIG1        0.1157
     24 C          -4.2341    8.3958   -0.0002 C.ar    1  LIG1        0.1823
     25 C          -4.4496    7.0411   -0.0002 C.ar    1  LIG1        0.2144
     26 O          -3.2315    6.3976   -0.0002 O.2     1  LIG1       -0.4434
     27 C          -2.1622    9.8470   -0.0002 C.1     1  LIG1       -0.0621
     28 C          -1.6289   10.9297   -0.0001 C.1     1  LIG1       -0.1137
     29 H          -1.1749   11.8945   -0.0001 H       1  LIG1        0.1232
     30 O          -5.0816    9.4285   -0.0003 O.3     1  LIG1       -0.5023
     31 H          -6.0069    9.1252   -0.0003 H       1  LIG1        0.2923
     32 C          -5.6137    6.2039   -0.0003 C.ar    1  LIG1        0.1924
     33 C          -6.9690    6.4645   -0.0003 C.ar    1  LIG1        0.1149
     34 C          -7.6043    5.1750   -0.0003 C.ar    1  LIG1        0.1709
     35 C          -6.6191    4.2469   -0.0003 C.ar    1  LIG1        0.1353
     36 O          -5.4004    4.8757   -0.0003 O.2     1  LIG1       -0.4547
     37 H          -6.6037    3.1701   -0.0003 H       1  LIG1        0.1068
     38 C          -7.6334    7.7145   -0.0003 C.1     1  LIG1       -0.0621
     39 C          -8.2231    8.7680   -0.0003 C.1     1  LIG1       -0.1137
     40 H          -8.7606    9.6887   -0.0002 H       1  LIG1        0.1232
     41 O          -8.9484    5.0391   -0.0004 O.3     1  LIG1       -0.5028
     42 H          -9.1795    4.1031   -0.0004 H       1  LIG1        0.2923
@<TRIPOS>BOND
     1     9     8    1
     2    42    41    1
     3    41    34    1
     4    37    35    1
     5    34    35   ar
     6    34    33   ar
     7    35    36   ar
     8    33    38    1
     9    33    32   ar
    10    38    39    3
    11    31    30    1
    12    39    40    1
    13    36    32   ar
    14    30    24    1
    15    32    25    1
    16    24    25   ar
    17    24    23   ar
    18    25    26   ar
    19    26    22   ar
    20    23    27    1
    21    23    22   ar
    22    27    28    3
    23    22    15    1
    24    29    28    1
    25    21    20    1
    26    15    14   ar
    27    15    16   ar
    28    20    14    1
    29    14    13   ar
    30    16    12   ar
    31    12    13   ar
    32    12     4    1
    33    13    17    1
    34     5     4   ar
    35     5     1   ar
    36     4     3   ar
    37    17    18    3
    38     1     6    1
    39     1     2   ar
    40     3    10    1
    41     3     2   ar
    42    11    10    1
    43     2     7    1
    44     8     7    3
    45    18    19    1
