@<TRIPOS>MOLECULE
mol_data/opt/cam/geoms/mol2/12ef12ef-12ef12ef-.out
 42 45 0 0 0
SMALL
GASTEIGER

@<TRIPOS>ATOM
      1 C           0.3465    1.6309    0.0001 C.ar    1  LIG1        0.1118
      2 C           1.7069    1.7435    0.0000 C.ar    1  LIG1        0.1045
      3 C           1.9695    3.1552    0.0000 C.ar    1  LIG1        0.1815
      4 C           0.7453    3.7751    0.0000 C.ar    1  LIG1        0.2134
      5 O          -0.2493    2.8345    0.0000 O.2     1  LIG1       -0.4547
      6 H          -0.3033    0.7705    0.0001 H       1  LIG1        0.1043
      7 C           2.6633    0.6944    0.0001 C.1     1  LIG1       -0.0628
      8 C           3.4725   -0.1954    0.0000 C.1     1  LIG1       -0.1137
      9 H           4.1930   -0.9805   -0.0003 H       1  LIG1        0.1232
     10 O           3.1978    3.6798    0.0000 O.3     1  LIG1       -0.5023
     11 H           3.1619    4.6514   -0.0000 H       1  LIG1        0.2923
     12 C           0.4109    5.1594   -0.0000 C.ar    1  LIG1        0.1934
     13 C          -0.7558    5.8863   -0.0000 C.ar    1  LIG1        0.1157
     14 C          -0.3527    7.2642   -0.0001 C.ar    1  LIG1        0.1823
     15 C           1.0138    7.2931   -0.0001 C.ar    1  LIG1        0.2144
     16 O           1.4741    5.9925   -0.0000 O.2     1  LIG1       -0.4434
     17 C          -2.1077    5.4672   -0.0000 C.1     1  LIG1       -0.0621
     18 C          -3.2850    5.2092   -0.0000 C.1     1  LIG1       -0.1137
     19 H          -4.3177    4.9449   -0.0001 H       1  LIG1        0.1232
     20 O          -1.1777    8.3202   -0.0001 O.3     1  LIG1       -0.5023
     21 H          -2.0873    7.9877   -0.0001 H       1  LIG1        0.2923
     22 C           1.9969    8.3257   -0.0001 C.ar    1  LIG1        0.1934
     23 C           3.3776    8.2891   -0.0000 C.ar    1  LIG1        0.1157
     24 C           3.7860    9.6601   -0.0001 C.ar    1  LIG1        0.1823
     25 C           2.6469   10.4187   -0.0001 C.ar    1  LIG1        0.2144
     26 O           1.5502    9.5966   -0.0001 O.2     1  LIG1       -0.4434
     27 C           4.2400    7.1636    0.0001 C.1     1  LIG1       -0.0621
     28 C           5.0113    6.2375    0.0001 C.1     1  LIG1       -0.1137
     29 H           5.6976    5.4213   -0.0000 H       1  LIG1        0.1232
     30 O           5.0643   10.0638   -0.0000 O.3     1  LIG1       -0.5023
     31 H           5.0776   11.0328   -0.0001 H       1  LIG1        0.2923
     32 C           2.4795   11.8347   -0.0002 C.ar    1  LIG1        0.1924
     33 C           1.4055   12.6874   -0.0003 C.ar    1  LIG1        0.1149
     34 C           1.9686   14.0154   -0.0003 C.ar    1  LIG1        0.1709
     35 C           3.3138   13.8889   -0.0002 C.ar    1  LIG1        0.1353
     36 O           3.6354   12.5455   -0.0002 O.2     1  LIG1       -0.4547
     37 H           4.1325   14.5860   -0.0002 H       1  LIG1        0.1068
     38 C           0.0160   12.4216   -0.0003 C.1     1  LIG1       -0.0621
     39 C          -1.1823   12.2913   -0.0003 C.1     1  LIG1       -0.1137
     40 H          -2.2364   12.1363   -0.0002 H       1  LIG1        0.1232
     41 O           1.2606   15.1620   -0.0004 O.3     1  LIG1       -0.5028
     42 H           0.3210   14.9308   -0.0004 H       1  LIG1        0.2923
@<TRIPOS>BOND
     1    42    41    1
     2    41    34    1
     3     9     8    1
     4    39    38    3
     5    39    40    1
     6    38    33    1
     7    34    33   ar
     8    34    35   ar
     9    33    32   ar
    10    37    35    1
    11    35    36   ar
    12    32    36   ar
    13    32    25    1
    14    26    25   ar
    15    26    22   ar
    16    25    24   ar
    17    19    18    1
    18    20    21    1
    19    20    14    1
    20    31    30    1
    21    22    15    1
    22    22    23   ar
    23    24    30    1
    24    24    23   ar
    25    14    15   ar
    26    14    13   ar
    27    15    16   ar
    28    29    28    1
    29    18    17    3
    30    13    17    1
    31    13    12   ar
    32    16    12   ar
    33    23    27    1
    34    12     4    1
    35    11    10    1
    36    10     3    1
    37     4     3   ar
    38     4     5   ar
    39     3     2   ar
    40     5     1   ar
    41     2     1   ar
    42     2     7    1
    43     8     7    3
    44     1     6    1
    45    27    28    3
