@<TRIPOS>MOLECULE
mol_data/opt/cam/geoms/mol2/12ef12ef12ef-12ef.out
 42 45 0 0 0
SMALL
GASTEIGER

@<TRIPOS>ATOM
      1 C           0.4215    1.6836    0.0000 C.ar    1  LIG1        0.1118
      2 C           1.7820    1.7686    0.0000 C.ar    1  LIG1        0.1045
      3 C           2.0762    3.1743    0.0000 C.ar    1  LIG1        0.1815
      4 C           0.8659    3.8278   -0.0000 C.ar    1  LIG1        0.2134
      5 O          -0.1453    2.8965   -0.0000 O.2     1  LIG1       -0.4547
      6 H          -0.2465    0.8369    0.0000 H       1  LIG1        0.1043
      7 C           2.7204    0.7035    0.0000 C.1     1  LIG1       -0.0628
      8 C           3.5134   -0.2009    0.0001 C.1     1  LIG1       -0.1137
      9 H           4.2208   -0.9977    0.0008 H       1  LIG1        0.1232
     10 O           3.3299    3.6328    0.0000 O.3     1  LIG1       -0.5023
     11 H           3.3513    4.6059    0.0000 H       1  LIG1        0.2923
     12 C           0.4635    5.2029   -0.0000 C.ar    1  LIG1        0.1934
     13 C           1.1610    6.3970    0.0000 C.ar    1  LIG1        0.1157
     14 C           0.1670    7.4269   -0.0001 C.ar    1  LIG1        0.1823
     15 C          -1.0497    6.7964   -0.0001 C.ar    1  LIG1        0.2144
     16 O          -0.8619    5.4379   -0.0001 O.2     1  LIG1       -0.4434
     17 C           2.5619    6.6068    0.0001 C.1     1  LIG1       -0.0621
     18 C           3.7503    6.8158    0.0001 C.1     1  LIG1       -0.1137
     19 H           4.7975    7.0170   -0.0007 H       1  LIG1        0.1232
     20 O           0.4613    8.7291   -0.0000 O.3     1  LIG1       -0.5023
     21 H          -0.3477    9.2695   -0.0001 H       1  LIG1        0.2923
     22 C          -2.3664    7.3333   -0.0002 C.ar    1  LIG1        0.1934
     23 C          -3.6405    6.8170   -0.0002 C.ar    1  LIG1        0.1157
     24 C          -4.5178    7.9547   -0.0003 C.ar    1  LIG1        0.1823
     25 C          -3.7393    9.0758   -0.0002 C.ar    1  LIG1        0.2144
     26 O          -2.4164    8.6847   -0.0002 O.2     1  LIG1       -0.4434
     27 C          -4.0968    5.4777   -0.0002 C.1     1  LIG1       -0.0621
     28 C          -4.5801    4.3735   -0.0003 C.1     1  LIG1       -0.1137
     29 H          -4.9718    3.3823   -0.0007 H       1  LIG1        0.1232
     30 O          -5.8588    7.9078   -0.0003 O.3     1  LIG1       -0.5023
     31 H          -6.1245    6.9766   -0.0003 H       1  LIG1        0.2923
     32 C          -3.9968   10.4819   -0.0002 C.ar    1  LIG1        0.1924
     33 C          -3.1602   11.5758   -0.0001 C.ar    1  LIG1        0.1149
     34 C          -4.0385   12.7144   -0.0002 C.ar    1  LIG1        0.1709
     35 C          -5.3080   12.2414   -0.0003 C.ar    1  LIG1        0.1353
     36 O          -5.2853   10.8704   -0.0003 O.2     1  LIG1       -0.4547
     37 H          -6.2799   12.7054   -0.0004 H       1  LIG1        0.1068
     38 C          -1.7432   11.6176    0.0000 C.1     1  LIG1       -0.0621
     39 C          -0.5404   11.7004    0.0001 C.1     1  LIG1       -0.1137
     40 H           0.5227   11.7807   -0.0001 H       1  LIG1        0.1232
     41 O          -3.5718   13.9824   -0.0001 O.3     1  LIG1       -0.5028
     42 H          -4.3127   14.5993   -0.0002 H       1  LIG1        0.2923
@<TRIPOS>BOND
     1    29    28    1
     2    19    18    1
     3    37    35    1
     4    31    30    1
     5    36    35   ar
     6    36    32   ar
     7    30    24    1
     8    28    27    3
     9    35    34   ar
    10    24    23   ar
    11    24    25   ar
    12    27    23    1
    13    23    22   ar
    14    32    25    1
    15    32    33   ar
    16    25    26   ar
    17    34    41    1
    18    34    33   ar
    19    42    41    1
    20    22    26   ar
    21    22    15    1
    22    33    38    1
    23    15    16   ar
    24    15    14   ar
    25    40    39    1
    26    16    12   ar
    27    21    20    1
    28    14    20    1
    29    14    13   ar
    30    12     4    1
    31    12    13   ar
    32     5     4   ar
    33     5     1   ar
    34     4     3   ar
    35    13    17    1
    36    38    39    3
    37    11    10    1
    38    10     3    1
    39     3     2   ar
    40     1     6    1
    41     1     2   ar
    42     2     7    1
    43     7     8    3
    44    18    17    3
    45     8     9    1
