@<TRIPOS>MOLECULE
mol_data/opt/cam/geoms/mol2/12ef6lh-13fl-4af-13ah-12hi-6ah-12lf.out
 96 103 0 0 0
SMALL
GASTEIGER

@<TRIPOS>ATOM
      1 C           0.2581    1.5163    0.1804 C.ar    1  LIG1        0.1116
      2 C           1.3382    1.5526   -0.6524 C.ar    1  LIG1        0.1044
      3 C           1.5579    2.9478   -0.9059 C.ar    1  LIG1        0.1785
      4 C           0.6116    3.6432   -0.2128 C.ar    1  LIG1        0.1824
      5 O          -0.1920    2.7518    0.4507 O.2     1  LIG1       -0.4577
      6 H          -0.2749    0.6958    0.6333 H       1  LIG1        0.1043
      7 C           2.0767    0.4547   -1.1671 C.1     1  LIG1       -0.0628
      8 C           2.7023   -0.4759   -1.6030 C.1     1  LIG1       -0.1137
      9 H           3.2586   -1.2971   -1.9922 H       1  LIG1        0.1232
     10 O           2.5435    3.4182   -1.7089 O.3     1  LIG1       -0.5024
     11 H           2.3182    4.3180   -1.9779 H       1  LIG1        0.2923
     12 C          -0.8829    5.6805   -0.1058 C.ar    1  LIG1        0.2262
     13 C           0.3935    5.0754   -0.0702 C.ar    1  LIG1        0.0841
     14 C           1.4648    5.9538    0.0465 C.ar    1  LIG1       -0.0230
     15 C           1.2782    7.3264    0.1597 C.ar    1  LIG1        0.0534
     16 C          -0.0361    7.8154    0.2081 C.ar    1  LIG1        0.1152
     17 N          -1.0797    6.9717    0.0321 N.ar    1  LIG1       -0.2088
     18 H           2.4754    5.5522    0.0574 H       1  LIG1        0.0645
     19 O          -1.9345    4.8657   -0.2892 O.3     1  LIG1       -0.4792
     20 C          -3.2261    5.4539   -0.3075 C.3     1  LIG1        0.0804
     21 H          -3.9221    4.6252   -0.4311 H       1  LIG1        0.0660
     22 H          -3.4303    5.9837    0.6262 H       1  LIG1        0.0660
     23 H          -3.3283    6.1551   -1.1405 H       1  LIG1        0.0660
     24 N           2.3911    8.2267    0.2227 N.pl3   1  LIG1       -0.3563
     25 H           3.2468    7.7394    0.4666 H       1  LIG1        0.1424
     26 H           2.5391    8.6878   -0.6727 H       1  LIG1        0.1424
     27 C          -0.4038    9.2021    0.4063 C.ar    1  LIG1        0.1131
     28 C           0.2508   10.3499    0.8642 C.ar    1  LIG1        0.1866
     29 C          -0.6894   11.4063    0.8406 C.ar    1  LIG1        0.1873
     30 C          -1.9060   10.8998    0.3992 C.ar    1  LIG1        0.0931
     31 N          -1.7100    9.5747    0.1513 N.ar    1  LIG1       -0.3470
     32 H          -2.3630    8.9283   -0.2588 H       1  LIG1        0.1662
     33 O           1.5051   10.5050    1.3227 O.3     1  LIG1       -0.5019
     34 H           1.9936    9.6678    1.1283 H       1  LIG1        0.2924
     35 O          -0.4486   12.7034    1.1855 O.3     1  LIG1       -0.4895
     36 C          -0.0801   12.8909    2.5477 C.3     1  LIG1        0.0791
     37 H           0.0877   13.9608    2.6791 H       1  LIG1        0.0660
     38 H          -0.8847   12.5650    3.2171 H       1  LIG1        0.0660
     39 H           0.8354   12.3428    2.7842 H       1  LIG1        0.0660
     40 C          -3.2874   12.9446    0.0616 C.ar    1  LIG1       -0.0517
     41 C          -4.5184   13.5418   -0.1323 C.ar    1  LIG1       -0.0485
     42 C          -3.1946   11.5559    0.2094 C.ar    1  LIG1        0.0055
     43 C          -5.7161   12.8169   -0.1935 C.ar    1  LIG1        0.0398
     44 H          -4.5615   14.6184   -0.2496 H       1  LIG1        0.0625
     45 C          -4.3777   10.8133    0.1641 C.ar    1  LIG1       -0.0103
     46 C          -5.6064   11.4240   -0.0355 C.ar    1  LIG1        0.1266
     47 H          -4.3547    9.7371    0.3199 H       1  LIG1        0.0661
     48 H          -2.3863   13.5424    0.1008 H       1  LIG1        0.0624
     49 O          -6.7531   10.6729   -0.0725 O.3     1  LIG1       -0.5061
     50 H          -6.5387    9.7433    0.0631 H       1  LIG1        0.2922
     51 C          -6.9834   13.5111   -0.4067 C.ar    1  LIG1        0.0523
     52 C          -7.2309   14.8709   -0.5587 C.ar    1  LIG1       -0.0149
     53 C          -8.6184   15.0508   -0.7461 C.ar    1  LIG1        0.0539
     54 C          -9.1981   13.7811   -0.7105 C.ar    1  LIG1        0.1053
     55 N          -8.1813   12.8741   -0.4948 N.ar    1  LIG1       -0.3501
     56 H          -8.2978   11.8765   -0.4236 H       1  LIG1        0.1661
     57 H          -6.4997   15.6648   -0.5235 H       1  LIG1        0.0657
     58 N          -9.2761   16.2668   -0.8648 N.pl3   1  LIG1       -0.3562
     59 H          -8.7244   16.9860   -1.3090 H       1  LIG1        0.1424
     60 H         -10.2148   16.1816   -1.2484 H       1  LIG1        0.1424
     61 C         -10.5465   13.3080   -0.8424 C.ar    1  LIG1        0.1743
     62 C         -11.7624   13.8493   -1.1788 C.ar    1  LIG1        0.0761
     63 C         -12.7252   12.7865   -1.1359 C.ar    1  LIG1        0.0167
     64 C         -12.0360   11.6597   -0.7874 C.ar    1  LIG1        0.1420
     65 O         -10.7141   11.9801   -0.6024 O.2     1  LIG1       -0.4511
     66 N         -11.9972   15.2148   -1.5121 N.pl3   1  LIG1       -0.3548
     67 H         -12.4173   15.3062   -2.4319 H       1  LIG1        0.1424
     68 H         -12.6197   15.6611   -0.8446 H       1  LIG1        0.1424
     69 C         -14.1874   12.9463   -1.4047 C.3     1  LIG1       -0.0343
     70 H         -14.7933   12.3603   -0.7092 H       1  LIG1        0.0279
     71 H         -14.4585   12.6383   -2.4208 H       1  LIG1        0.0279
     72 H         -14.4797   13.9945   -1.2996 H       1  LIG1        0.0279
     73 C         -11.5332    9.4362    0.1859 C.ar    1  LIG1        0.0392
     74 C         -12.3888   10.2720   -0.5494 C.ar    1  LIG1        0.0375
     75 C         -13.5670    9.7031   -1.0219 C.ar    1  LIG1       -0.0267
     76 C         -13.8759    8.3650   -0.7670 C.ar    1  LIG1        0.0547
     77 C         -12.9316    7.6122   -0.0281 C.ar    1  LIG1        0.1303
     78 N         -11.8014    8.1674    0.4298 N.ar    1  LIG1       -0.2492
     79 H         -14.2614   10.2882   -1.6147 H       1  LIG1        0.0644
     80 H         -10.6047    9.8281    0.5877 H       1  LIG1        0.0837
     81 N         -15.0734    7.8481   -1.2166 N.pl3   1  LIG1       -0.3562
     82 H         -15.4921    8.3142   -2.0053 H       1  LIG1        0.1424
     83 H         -15.1838    6.8478   -1.1914 H       1  LIG1        0.1424
     84 C         -13.0732    6.1884    0.2638 C.ar    1  LIG1        0.1999
     85 C         -12.1758    5.2414    0.6839 C.ar    1  LIG1        0.2092
     86 C         -12.9010    4.0103    0.7963 C.ar    1  LIG1        0.1979
     87 C         -14.1785    4.2714    0.4273 C.ar    1  LIG1        0.1378
     88 O         -14.2949    5.5952    0.1024 O.2     1  LIG1       -0.4538
     89 H         -15.0737    3.6761    0.3523 H       1  LIG1        0.1069
     90 O         -10.8440    5.3488    0.8988 O.3     1  LIG1       -0.4884
     91 C         -10.4874    5.8155    2.1955 C.3     1  LIG1        0.0791
     92 H          -9.3983    5.7757    2.2465 H       1  LIG1        0.0660
     93 H         -10.8265    6.8453    2.3310 H       1  LIG1        0.0660
     94 H         -10.9067    5.1679    2.9736 H       1  LIG1        0.0660
     95 O         -12.3131    2.8612    1.2053 O.3     1  LIG1       -0.5012
     96 H         -12.9615    2.1481    1.1954 H       1  LIG1        0.2924
@<TRIPOS>BOND
     1    67    66    1
     2    71    69    1
     3    82    81    1
     4     9     8    1
     5    11    10    1
     6    10     3    1
     7    79    75    1
     8     8     7    3
     9    66    62    1
    10    66    68    1
    11    69    72    1
    12    69    63    1
    13    69    70    1
    14    59    58    1
    15    60    58    1
    16    81    83    1
    17    81    76    1
    18    62    63   ar
    19    62    61   ar
    20     7     2    1
    21    23    20    1
    22    63    64   ar
    23    75    76   ar
    24    75    74   ar
    25     3     2   ar
    26     3     4   ar
    27    58    53    1
    28    61    54    1
    29    61    65   ar
    30    64    65   ar
    31    64    74    1
    32    76    77   ar
    33    53    54   ar
    34    53    52   ar
    35    54    55   ar
    36    26    24    1
    37     2     1   ar
    38    52    57    1
    39    52    51   ar
    40    74    73   ar
    41    55    56    1
    42    55    51   ar
    43    21    20    1
    44    51    43    1
    45    20    19    1
    46    20    22    1
    47    19    12    1
    48    32    31    1
    49    44    41    1
    50     4    13    1
    51     4     5   ar
    52    43    41   ar
    53    43    46   ar
    54    41    40   ar
    55    12    13   ar
    56    12    17   ar
    57    49    46    1
    58    49    50    1
    59    13    14   ar
    60    46    45   ar
    61    77    84    1
    62    77    78   ar
    63    17    16   ar
    64    14    18    1
    65    14    15   ar
    66    40    48    1
    67    40    42   ar
    68    88    84   ar
    69    88    87   ar
    70    31    30   ar
    71    31    27   ar
    72    15    16   ar
    73    15    24    1
    74    45    42   ar
    75    45    47    1
    76     1     5   ar
    77     1     6    1
    78    73    78   ar
    79    73    80    1
    80    16    27    1
    81    42    30    1
    82    24    25    1
    83    84    85   ar
    84    89    87    1
    85    30    29   ar
    86    27    28   ar
    87    87    86   ar
    88    85    86   ar
    89    85    90    1
    90    86    95    1
    91    29    28   ar
    92    29    35    1
    93    28    33    1
    94    90    91    1
    95    34    33    1
    96    35    36    1
    97    96    95    1
    98    91    92    1
    99    91    93    1
   100    91    94    1
   101    36    37    1
   102    36    39    1
   103    36    38    1
