@<TRIPOS>MOLECULE
mol_data/opt/cam/geoms/mol2/12ef12ef-.out
 22 23 0 0 0
SMALL
GASTEIGER

@<TRIPOS>ATOM
      1 C           0.2413    1.7445    0.0002 C.ar    1  LIG1        0.1118
      2 C           1.6058    1.7881    0.0002 C.ar    1  LIG1        0.1045
      3 C           1.9351    3.1850    0.0001 C.ar    1  LIG1        0.1815
      4 C           0.7484    3.8664    0.0000 C.ar    1  LIG1        0.2134
      5 O          -0.2917    2.9786    0.0000 O.2     1  LIG1       -0.4547
      6 H          -0.4520    0.9190    0.0002 H       1  LIG1        0.1043
      7 C           2.5084    0.6923    0.0003 C.1     1  LIG1       -0.0628
      8 C           3.2731   -0.2361    0.0003 C.1     1  LIG1       -0.1137
      9 H           3.9555   -1.0545   -0.0007 H       1  LIG1        0.1232
     10 O           3.1865    3.6680    0.0002 O.3     1  LIG1       -0.5023
     11 H           3.1402    4.6357    0.0001 H       1  LIG1        0.2923
     12 C           0.4892    5.2720   -0.0001 C.ar    1  LIG1        0.1923
     13 C          -0.6375    6.0521   -0.0002 C.ar    1  LIG1        0.1149
     14 C          -0.1626    7.4144   -0.0002 C.ar    1  LIG1        0.1709
     15 C           1.1881    7.3748   -0.0002 C.ar    1  LIG1        0.1353
     16 O           1.5954    6.0557   -0.0001 O.2     1  LIG1       -0.4547
     17 H           1.9598    8.1236   -0.0002 H       1  LIG1        0.1068
     18 C          -2.0076    5.6974   -0.0002 C.1     1  LIG1       -0.0621
     19 C          -3.1962    5.4964   -0.0002 C.1     1  LIG1       -0.1137
     20 H          -4.2404    5.2829    0.0002 H       1  LIG1        0.1232
     21 O          -0.9420    8.5132   -0.0003 O.3     1  LIG1       -0.5028
     22 H          -1.8654    8.2244   -0.0003 H       1  LIG1        0.2923
@<TRIPOS>BOND
     1     9     8    1
     2    22    21    1
     3    21    14    1
     4    14    15   ar
     5    14    13   ar
     6    19    18    3
     7    19    20    1
     8    18    13    1
     9    17    15    1
    10    15    16   ar
    11    13    12   ar
    12    16    12   ar
    13    12     4    1
    14     4     5   ar
    15     4     3   ar
    16     5     1   ar
    17    11    10    1
    18     3    10    1
    19     3     2   ar
    20     1     6    1
    21     1     2   ar
    22     2     7    1
    23     8     7    3
