@<TRIPOS>MOLECULE
mol_data/opt/cam/geoms/mol2/12ef12ef12ef-12ef-.out
 42 45 0 0 0
SMALL
GASTEIGER

@<TRIPOS>ATOM
      1 C           0.4957    1.6315   -0.0001 C.ar    1  LIG1        0.1118
      2 C           1.8554    1.7289   -0.0001 C.ar    1  LIG1        0.1045
      3 C           2.1368    3.1372   -0.0001 C.ar    1  LIG1        0.1815
      4 C           0.9203    3.7796   -0.0001 C.ar    1  LIG1        0.2134
      5 O          -0.0823    2.8391   -0.0001 O.2     1  LIG1       -0.4547
      6 H          -0.1644    0.7787   -0.0001 H       1  LIG1        0.1043
      7 C           2.8036    0.6725   -0.0001 C.1     1  LIG1       -0.0628
      8 C           3.6049   -0.2244   -0.0000 C.1     1  LIG1       -0.1137
      9 H           4.3193   -1.0151    0.0005 H       1  LIG1        0.1232
     10 O           3.3860    3.6071   -0.0001 O.3     1  LIG1       -0.5023
     11 H           3.3988    4.5803   -0.0001 H       1  LIG1        0.2923
     12 C           0.5056    5.1507   -0.0001 C.ar    1  LIG1        0.1934
     13 C           1.1936    6.3511   -0.0001 C.ar    1  LIG1        0.1157
     14 C           0.1898    7.3695   -0.0001 C.ar    1  LIG1        0.1823
     15 C          -1.0211    6.7295   -0.0001 C.ar    1  LIG1        0.2144
     16 O          -0.8228    5.3735   -0.0001 O.2     1  LIG1       -0.4434
     17 C           2.5927    6.5733   -0.0000 C.1     1  LIG1       -0.0621
     18 C           3.7786    6.7949    0.0000 C.1     1  LIG1       -0.1137
     19 H           4.8237    7.0074   -0.0002 H       1  LIG1        0.1232
     20 O           0.4559    8.6799   -0.0001 O.3     1  LIG1       -0.5023
     21 H          -0.3800    9.1732   -0.0001 H       1  LIG1        0.2923
     22 C          -2.3349    7.2730   -0.0001 C.ar    1  LIG1        0.1934
     23 C          -3.6142    6.7731   -0.0002 C.ar    1  LIG1        0.1157
     24 C          -4.4775    7.9214   -0.0002 C.ar    1  LIG1        0.1823
     25 C          -3.6904    9.0364   -0.0002 C.ar    1  LIG1        0.2144
     26 O          -2.3695    8.6262   -0.0001 O.2     1  LIG1       -0.4434
     27 C          -4.0867    5.4394   -0.0002 C.1     1  LIG1       -0.0621
     28 C          -4.5811    4.3402   -0.0001 C.1     1  LIG1       -0.1137
     29 H          -4.9833    3.3532    0.0003 H       1  LIG1        0.1232
     30 O          -5.8183    7.8850   -0.0002 O.3     1  LIG1       -0.5023
     31 H          -6.0944    6.9569   -0.0002 H       1  LIG1        0.2923
     32 C          -3.9036   10.4535   -0.0002 C.ar    1  LIG1        0.1924
     33 C          -5.0168   11.2619   -0.0002 C.ar    1  LIG1        0.1149
     34 C          -4.5097   12.6104   -0.0002 C.ar    1  LIG1        0.1709
     35 C          -3.1600   12.5328   -0.0001 C.ar    1  LIG1        0.1353
     36 O          -2.7858   11.2113   -0.0001 O.2     1  LIG1       -0.4547
     37 H          -2.3699   13.2626   -0.0001 H       1  LIG1        0.1068
     38 C          -6.4034   10.9776   -0.0003 C.1     1  LIG1       -0.0621
     39 C          -7.6049   10.8764   -0.0004 C.1     1  LIG1       -0.1137
     40 H          -8.6612   10.7363   -0.0010 H       1  LIG1        0.1232
     41 O          -5.2646   13.7274   -0.0002 O.3     1  LIG1       -0.5028
     42 H          -6.1936   13.4552   -0.0003 H       1  LIG1        0.2923
@<TRIPOS>BOND
     1    40    39    1
     2    39    38    3
     3    38    33    1
     4    42    41    1
     5    33    34   ar
     6    33    32   ar
     7    41    34    1
     8    31    30    1
     9    30    24    1
    10    34    35   ar
    11    19    18    1
    12    24    25   ar
    13    24    23   ar
    14    32    25    1
    15    32    36   ar
    16    27    23    1
    17    27    28    3
    18    25    26   ar
    19    23    22   ar
    20    28    29    1
    21    26    22   ar
    22    22    15    1
    23    35    36   ar
    24    35    37    1
    25    15    16   ar
    26    15    14   ar
    27    16    12   ar
    28    21    20    1
    29    10    11    1
    30    10     3    1
    31    14    20    1
    32    14    13   ar
    33     7     2    1
    34     7     8    3
    35    12     4    1
    36    12    13   ar
    37     3     4   ar
    38     3     2   ar
    39     4     5   ar
    40     2     1   ar
    41     5     1   ar
    42     1     6    1
    43    13    17    1
    44     8     9    1
    45    17    18    3
