@<TRIPOS>MOLECULE
mol_data/opt/cam/geoms/mol2/12ef6hh-13ea-13ha-.out
 45 48 0 0 0
SMALL
GASTEIGER

@<TRIPOS>ATOM
      1 C           0.5463    1.8045   -1.2411 C.ar    1  LIG1        0.1116
      2 C           1.4157    1.6784   -0.2006 C.ar    1  LIG1        0.1044
      3 C           1.5686    3.0080    0.3227 C.ar    1  LIG1        0.1785
      4 C           0.7998    3.8398   -0.4359 C.ar    1  LIG1        0.1806
      5 O           0.1619    3.0869   -1.3981 O.2     1  LIG1       -0.4578
      6 H           0.1313    1.0849   -1.9281 H       1  LIG1        0.1043
      7 C           2.0304    0.4907    0.2764 C.1     1  LIG1       -0.0628
      8 C           2.5510   -0.5155    0.6805 C.1     1  LIG1       -0.1137
      9 H           3.0145   -1.4038    1.0432 H       1  LIG1        0.1232
     10 O           2.3453    3.2991    1.3900 O.3     1  LIG1       -0.5024
     11 H           2.1018    4.1728    1.7238 H       1  LIG1        0.2923
     12 C          -0.6738    5.8833   -0.6283 C.ar    1  LIG1        0.1279
     13 C           0.5811    5.2778   -0.3783 C.ar    1  LIG1        0.0622
     14 C           1.6197    6.1205   -0.0064 C.ar    1  LIG1       -0.0248
     15 C           1.4517    7.5014    0.1442 C.ar    1  LIG1        0.0532
     16 C           0.1778    8.0069   -0.1659 C.ar    1  LIG1        0.1110
     17 N          -0.8327    7.1914   -0.5288 N.ar    1  LIG1       -0.2284
     18 H           2.6047    5.6952    0.1703 H       1  LIG1        0.0645
     19 N          -1.7959    5.1362   -0.9384 N.pl3   1  LIG1       -0.3426
     20 H          -2.5445    5.6937   -1.3218 H       1  LIG1        0.1437
     21 H          -1.6325    4.2634   -1.4159 H       1  LIG1        0.1437
     22 N           2.4874    8.2651    0.6656 N.pl3   1  LIG1       -0.3563
     23 H           3.3909    7.8168    0.6159 H       1  LIG1        0.1424
     24 H           2.5383    9.2306    0.3694 H       1  LIG1        0.1424
     25 C          -0.2337    9.4134   -0.0645 C.ar    1  LIG1        0.0829
     26 C           0.3646   10.6665   -0.2010 C.ar    1  LIG1        0.0521
     27 C          -0.6566   11.6480   -0.0278 C.ar    1  LIG1       -0.0188
     28 C          -1.8453   10.9861    0.1876 C.ar    1  LIG1        0.0664
     29 N          -1.5633    9.6450    0.1648 N.ar    1  LIG1       -0.3507
     30 H          -2.2219    8.8810    0.1136 H       1  LIG1        0.1660
     31 C           1.7067   10.9825   -0.5419 C.1     1  LIG1       -0.0675
     32 C           2.8356   11.2884   -0.8383 C.1     1  LIG1       -0.1138
     33 H           3.8247   11.5650   -1.1220 H       1  LIG1        0.1232
     34 H          -0.5121   12.7178   -0.0206 H       1  LIG1        0.0652
     35 C          -3.1827   11.4918    0.3970 C.ar    1  LIG1        0.0838
     36 C          -3.7916   12.6215   -0.1162 C.ar    1  LIG1        0.0516
     37 C          -5.1275   12.6436    0.3706 C.ar    1  LIG1       -0.0230
     38 C          -5.2942   11.5360    1.1636 C.ar    1  LIG1        0.0040
     39 N          -4.1293   10.8282    1.1648 N.ar    1  LIG1       -0.3580
     40 H          -3.9133   10.0769    1.7984 H       1  LIG1        0.1654
     41 H          -6.1530   11.2027    1.7258 H       1  LIG1        0.0807
     42 N          -3.1917   13.5779   -0.9431 N.pl3   1  LIG1       -0.3563
     43 H          -2.4005   13.2049   -1.4545 H       1  LIG1        0.1424
     44 H          -3.8467   14.0093   -1.5816 H       1  LIG1        0.1424
     45 H          -5.8765   13.3914    0.1535 H       1  LIG1        0.0651
@<TRIPOS>BOND
     1     6     1    1
     2    44    42    1
     3    43    42    1
     4    21    19    1
     5     5     1   ar
     6     5     4   ar
     7    20    19    1
     8     1     2   ar
     9    33    32    1
    10    42    36    1
    11    19    12    1
    12    32    31    3
    13    12    17   ar
    14    12    13   ar
    15    31    26    1
    16    17    16   ar
    17     4    13    1
    18     4     3   ar
    19    13    14   ar
    20    26    25   ar
    21    26    27   ar
    22     2     7    1
    23     2     3   ar
    24    16    25    1
    25    16    15   ar
    26    36    37   ar
    27    36    35   ar
    28    25    29   ar
    29    27    34    1
    30    27    28   ar
    31    14    15   ar
    32    14    18    1
    33    30    29    1
    34    15    22    1
    35    45    37    1
    36    29    28   ar
    37    28    35    1
    38     7     8    3
    39     3    10    1
    40    24    22    1
    41    37    38   ar
    42    35    39   ar
    43    23    22    1
    44     8     9    1
    45    38    39   ar
    46    38    41    1
    47    39    40    1
    48    10    11    1
