@<TRIPOS>MOLECULE
mol_data/opt/cam/geoms/mol2/12ef12ef-12ef-12ef-.out
 42 45 0 0 0
SMALL
GASTEIGER

@<TRIPOS>ATOM
      1 C           0.2810    1.6710    0.0001 C.ar    1  LIG1        0.1118
      2 C           1.6419    1.7795    0.0001 C.ar    1  LIG1        0.1045
      3 C           1.9070    3.1903    0.0000 C.ar    1  LIG1        0.1815
      4 C           0.6845    3.8132    0.0000 C.ar    1  LIG1        0.2134
      5 O          -0.3126    2.8764    0.0000 O.2     1  LIG1       -0.4547
      6 H          -0.3710    0.8123    0.0001 H       1  LIG1        0.1043
      7 C           2.5952    0.7276    0.0001 C.1     1  LIG1       -0.0628
      8 C           3.4023   -0.1640    0.0001 C.1     1  LIG1       -0.1137
      9 H           4.1234   -0.9486   -0.0006 H       1  LIG1        0.1232
     10 O           3.1341    3.7205    0.0000 O.3     1  LIG1       -0.5023
     11 H           3.0736    4.6886    0.0000 H       1  LIG1        0.2923
     12 C           0.3681    5.2013   -0.0000 C.ar    1  LIG1        0.1934
     13 C          -0.7830    5.9518   -0.0000 C.ar    1  LIG1        0.1157
     14 C          -0.3511    7.3209   -0.0001 C.ar    1  LIG1        0.1823
     15 C           1.0152    7.3264   -0.0001 C.ar    1  LIG1        0.2144
     16 O           1.4476    6.0134   -0.0000 O.2     1  LIG1       -0.4434
     17 C          -2.1433    5.5610   -0.0000 C.1     1  LIG1       -0.0621
     18 C          -3.3254    5.3262   -0.0000 C.1     1  LIG1       -0.1137
     19 H          -4.3632    5.0829   -0.0002 H       1  LIG1        0.1232
     20 O          -1.1568    8.3921   -0.0001 O.3     1  LIG1       -0.5023
     21 H          -2.0737    8.0804   -0.0001 H       1  LIG1        0.2923
     22 C           2.0458    8.3168   -0.0001 C.ar    1  LIG1        0.1934
     23 C           2.0690    9.6941   -0.0001 C.ar    1  LIG1        0.1157
     24 C           3.4575   10.0541   -0.0001 C.ar    1  LIG1        0.1823
     25 C           4.1831    8.8974   -0.0001 C.ar    1  LIG1        0.2144
     26 O           3.3051    7.8371   -0.0001 O.2     1  LIG1       -0.4434
     27 C           1.0392   10.6652   -0.0002 C.1     1  LIG1       -0.0621
     28 C           0.2631   11.5876   -0.0002 C.1     1  LIG1       -0.1137
     29 H          -0.4601   12.3704   -0.0002 H       1  LIG1        0.1232
     30 O           3.9338   11.3088   -0.0002 O.3     1  LIG1       -0.5023
     31 H           3.1779   11.9144   -0.0002 H       1  LIG1        0.2923
     32 C           5.5789    8.5665   -0.0001 C.ar    1  LIG1        0.1924
     33 C           6.7418    9.3035   -0.0001 C.ar    1  LIG1        0.1149
     34 C           7.8077    8.3349   -0.0000 C.ar    1  LIG1        0.1709
     35 C           7.2362    7.1096    0.0000 C.ar    1  LIG1        0.1353
     36 O           5.8717    7.2498    0.0000 O.2     1  LIG1       -0.4547
     37 H           7.6219    6.1054    0.0001 H       1  LIG1        0.1068
     38 C           6.9948   10.6962   -0.0002 C.1     1  LIG1       -0.0621
     39 C           7.3552   11.8470   -0.0003 C.1     1  LIG1       -0.1137
     40 H           7.6220   12.8786   -0.0002 H       1  LIG1        0.1232
     41 O           9.1252    8.6248   -0.0001 O.3     1  LIG1       -0.5028
     42 H           9.2130    9.5889   -0.0001 H       1  LIG1        0.2923
@<TRIPOS>BOND
     1     9     8    1
     2    39    38    3
     3    39    40    1
     4    29    28    1
     5    38    33    1
     6    19    18    1
     7    28    27    3
     8    31    30    1
     9    27    23    1
    10    30    24    1
    11    42    41    1
    12    23    24   ar
    13    23    22   ar
    14    24    25   ar
    15    33    32   ar
    16    33    34   ar
    17    20    21    1
    18    20    14    1
    19    22    15    1
    20    22    26   ar
    21    25    26   ar
    22    25    32    1
    23    15    14   ar
    24    15    16   ar
    25    14    13   ar
    26    41    34    1
    27    32    36   ar
    28    34    35   ar
    29    16    12   ar
    30    13    17    1
    31    13    12   ar
    32    18    17    3
    33    12     4    1
    34    11    10    1
    35     4     5   ar
    36     4     3   ar
    37    10     3    1
    38     5     1   ar
    39     3     2   ar
    40    36    35   ar
    41    35    37    1
    42     1     2   ar
    43     1     6    1
    44     2     7    1
    45     8     7    3
