@<TRIPOS>MOLECULE
mol_data/opt/cam/geoms/mol2/12ef12ef-12ef-12ef.out
 42 45 0 0 0
SMALL
GASTEIGER

@<TRIPOS>ATOM
      1 C           0.1633    1.6835    0.0018 C.ar    1  LIG1        0.1118
      2 C           1.5274    1.7348   -0.0086 C.ar    1  LIG1        0.1045
      3 C           1.8504    3.1329   -0.0094 C.ar    1  LIG1        0.1815
      4 C           0.6582    3.8079    0.0005 C.ar    1  LIG1        0.2134
      5 O          -0.3774    2.9134    0.0073 O.2     1  LIG1       -0.4547
      6 H          -0.5250    0.8536    0.0060 H       1  LIG1        0.1043
      7 C           2.4390    0.6466   -0.0167 C.1     1  LIG1       -0.0628
      8 C           3.2134   -0.2735   -0.0234 C.1     1  LIG1       -0.1137
      9 H           3.9026   -1.0864   -0.0292 H       1  LIG1        0.1232
     10 O           3.0997    3.6095   -0.0191 O.3     1  LIG1       -0.5023
     11 H           3.0973    4.5804   -0.0174 H       1  LIG1        0.2923
     12 C           0.3892    5.2067    0.0039 C.ar    1  LIG1        0.1934
     13 C          -0.7465    5.9787    0.0107 C.ar    1  LIG1        0.1157
     14 C          -0.2880    7.3378    0.0098 C.ar    1  LIG1        0.1823
     15 C           1.0784    7.3169    0.0027 C.ar    1  LIG1        0.2144
     16 O           1.4863    5.9958   -0.0008 O.2     1  LIG1       -0.4434
     17 C          -2.1145    5.6156    0.0174 C.1     1  LIG1       -0.0621
     18 C          -3.3015    5.4073    0.0233 C.1     1  LIG1       -0.1137
     19 H          -4.3443    5.1866    0.0282 H       1  LIG1        0.1232
     20 O          -1.0746    8.4232    0.0156 O.3     1  LIG1       -0.5023
     21 H          -1.9968    8.1275    0.0203 H       1  LIG1        0.2923
     22 C           2.1105    8.3069   -0.0016 C.ar    1  LIG1        0.1934
     23 C           2.1131    9.6851   -0.0074 C.ar    1  LIG1        0.1157
     24 C           3.4949   10.0667   -0.0090 C.ar    1  LIG1        0.1823
     25 C           4.2352    8.9197   -0.0040 C.ar    1  LIG1        0.2144
     26 O           3.3786    7.8448    0.0004 O.2     1  LIG1       -0.4434
     27 C           1.0754   10.6479   -0.0126 C.1     1  LIG1       -0.0621
     28 C           0.3024   11.5730   -0.0177 C.1     1  LIG1       -0.1137
     29 H          -0.4210   12.3555   -0.0215 H       1  LIG1        0.1232
     30 O           3.9536   11.3286   -0.0143 O.3     1  LIG1       -0.5023
     31 H           3.1861   11.9199   -0.0168 H       1  LIG1        0.2923
     32 C           5.6458    8.6723   -0.0026 C.ar    1  LIG1        0.1924
     33 C           6.4118    7.5290    0.0072 C.ar    1  LIG1        0.1149
     34 C           7.7728    7.9940    0.0021 C.ar    1  LIG1        0.1709
     35 C           7.7356    9.3478   -0.0098 C.ar    1  LIG1        0.1353
     36 O           6.4328    9.7679   -0.0127 O.2     1  LIG1       -0.4547
     37 H           8.4891   10.1176   -0.0169 H       1  LIG1        0.1068
     38 C           6.0133    6.1695    0.0209 C.1     1  LIG1       -0.0621
     39 C           5.7466    4.9948    0.0337 C.1     1  LIG1       -0.1137
     40 H           5.4837    3.9612    0.0430 H       1  LIG1        0.1232
     41 O           8.8239    7.1440    0.0091 O.3     1  LIG1       -0.5028
     42 H           9.6451    7.6490    0.0042 H       1  LIG1        0.2923
@<TRIPOS>BOND
     1     9     8    1
     2     8     7    3
     3    29    28    1
     4    10    11    1
     5    10     3    1
     6    28    27    3
     7    37    35    1
     8    31    30    1
     9     7     2    1
    10    30    24    1
    11    36    35   ar
    12    36    32   ar
    13    27    23    1
    14    35    34   ar
    15     3     2   ar
    16     3     4   ar
    17    24    23   ar
    18    24    25   ar
    19     2     1   ar
    20    23    22   ar
    21    25    32    1
    22    25    26   ar
    23    32    33   ar
    24    22    26   ar
    25    22    15    1
    26    16    15   ar
    27    16    12   ar
    28     4    12    1
    29     4     5   ar
    30     1     6    1
    31     1     5   ar
    32    34    33   ar
    33    34    41    1
    34    15    14   ar
    35    12    13   ar
    36    42    41    1
    37    33    38    1
    38    14    13   ar
    39    14    20    1
    40    13    17    1
    41    20    21    1
    42    17    18    3
    43    38    39    3
    44    18    19    1
    45    39    40    1
