@<TRIPOS>MOLECULE
mol_data/opt/cam/geoms/mol2/12ef12ef-12ef12ef.out
 42 45 0 0 0
SMALL
GASTEIGER

@<TRIPOS>ATOM
      1 C           0.3084    1.6814   -0.0000 C.ar    1  LIG1        0.1118
      2 C           1.6692    1.7877    0.0000 C.ar    1  LIG1        0.1045
      3 C           1.9386    3.1984   -0.0000 C.ar    1  LIG1        0.1815
      4 C           0.7173    3.8238   -0.0000 C.ar    1  LIG1        0.2134
      5 O          -0.2816    2.8879   -0.0000 O.2     1  LIG1       -0.4547
      6 H          -0.3455    0.8242   -0.0000 H       1  LIG1        0.1043
      7 C           2.6207    0.7341    0.0000 C.1     1  LIG1       -0.0628
      8 C           3.4256   -0.1596    0.0001 C.1     1  LIG1       -0.1137
      9 H           4.1434   -0.9472    0.0001 H       1  LIG1        0.1232
     10 O           3.1696    3.7166    0.0000 O.3     1  LIG1       -0.5023
     11 H           3.1396    4.6886   -0.0000 H       1  LIG1        0.2923
     12 C           0.3900    5.2101   -0.0001 C.ar    1  LIG1        0.1934
     13 C          -0.7723    5.9439   -0.0001 C.ar    1  LIG1        0.1157
     14 C          -0.3604    7.3196   -0.0001 C.ar    1  LIG1        0.1823
     15 C           1.0060    7.3400   -0.0001 C.ar    1  LIG1        0.2144
     16 O           1.4581    6.0366   -0.0001 O.2     1  LIG1       -0.4434
     17 C          -2.1266    5.5325   -0.0001 C.1     1  LIG1       -0.0621
     18 C          -3.3052    5.2805   -0.0002 C.1     1  LIG1       -0.1137
     19 H          -4.3394    5.0226   -0.0002 H       1  LIG1        0.1232
     20 O          -1.1776    8.3814   -0.0002 O.3     1  LIG1       -0.5023
     21 H          -2.0903    8.0580   -0.0002 H       1  LIG1        0.2923
     22 C           1.9966    8.3664   -0.0001 C.ar    1  LIG1        0.1934
     23 C           3.3743    8.3204   -0.0000 C.ar    1  LIG1        0.1157
     24 C           3.8008    9.6881   -0.0001 C.ar    1  LIG1        0.1823
     25 C           2.6668   10.4627   -0.0001 C.ar    1  LIG1        0.2144
     26 O           1.5638    9.6374   -0.0001 O.2     1  LIG1       -0.4434
     27 C           4.2310    7.1907    0.0000 C.1     1  LIG1       -0.0621
     28 C           4.9957    6.2590    0.0001 C.1     1  LIG1       -0.1137
     29 H           5.6765    5.4383    0.0002 H       1  LIG1        0.1232
     30 O           5.0952   10.0190   -0.0000 O.3     1  LIG1       -0.5023
     31 H           5.2120   10.9853   -0.0000 H       1  LIG1        0.2923
     32 C           2.4068   11.8727   -0.0002 C.ar    1  LIG1        0.1924
     33 C           3.2199   12.9882   -0.0002 C.ar    1  LIG1        0.1149
     34 C           2.3239   14.1122   -0.0002 C.ar    1  LIG1        0.1709
     35 C           1.0645   13.6166   -0.0003 C.ar    1  LIG1        0.1353
     36 O           1.1141   12.2462   -0.0002 O.2     1  LIG1       -0.4547
     37 H           0.0839   14.0617   -0.0003 H       1  LIG1        0.1068
     38 C           4.6338   13.0585   -0.0001 C.1     1  LIG1       -0.0621
     39 C           5.8379   13.1450   -0.0001 C.1     1  LIG1       -0.1137
     40 H           6.8999   13.2381   -0.0002 H       1  LIG1        0.1232
     41 O           2.7731   15.3866   -0.0003 O.3     1  LIG1       -0.5028
     42 H           2.0241   15.9935   -0.0003 H       1  LIG1        0.2923
@<TRIPOS>BOND
     1    37    35    1
     2    42    41    1
     3    35    34   ar
     4    35    36   ar
     5    41    34    1
     6    34    33   ar
     7    36    32   ar
     8    33    32   ar
     9    33    38    1
    10    32    25    1
    11    21    20    1
    12    40    39    1
    13    19    18    1
    14    20    14    1
    15    18    17    3
    16    26    25   ar
    17    26    22   ar
    18    17    13    1
    19    38    39    3
    20    14    13   ar
    21    14    15   ar
    22    25    24   ar
    23    13    12   ar
    24    15    22    1
    25    15    16   ar
    26    22    23   ar
    27    12    16   ar
    28    12     4    1
    29    24    23   ar
    30    24    30    1
    31     5     4   ar
    32     5     1   ar
    33     4     3   ar
    34    31    30    1
    35    23    27    1
    36     1     6    1
    37     1     2   ar
    38     3    10    1
    39     3     2   ar
    40    11    10    1
    41     2     7    1
    42     7     8    3
    43    27    28    3
    44     8     9    1
    45    28    29    1
