@<TRIPOS>MOLECULE
mol_data/opt/cam/geoms/mol2/12ef12ef.out
 22 23 0 0 0
SMALL
GASTEIGER

@<TRIPOS>ATOM
      1 C           0.1618    1.8084   -0.0000 C.ar    1  LIG1        0.1118
      2 C           1.5246    1.8101    0.0000 C.ar    1  LIG1        0.1045
      3 C           1.9046    3.1961    0.0000 C.ar    1  LIG1        0.1815
      4 C           0.7391    3.9218   -0.0000 C.ar    1  LIG1        0.2134
      5 O          -0.3280    3.0554   -0.0001 O.2     1  LIG1       -0.4547
      6 H          -0.5578    1.0053   -0.0000 H       1  LIG1        0.1043
      7 C           2.3953    0.6889    0.0001 C.1     1  LIG1       -0.0628
      8 C           3.1306   -0.2631    0.0001 C.1     1  LIG1       -0.1137
      9 H           3.7869   -1.1024    0.0002 H       1  LIG1        0.1232
     10 O           3.1861    3.5777    0.0001 O.3     1  LIG1       -0.5023
     11 H           3.2642    4.5475    0.0000 H       1  LIG1        0.2923
     12 C           0.4208    5.3234   -0.0001 C.ar    1  LIG1        0.1923
     13 C           1.1855    6.4707   -0.0001 C.ar    1  LIG1        0.1149
     14 C           0.2434    7.5568   -0.0001 C.ar    1  LIG1        0.1709
     15 C          -0.9940    7.0086   -0.0002 C.ar    1  LIG1        0.1353
     16 O          -0.8866    5.6416   -0.0002 O.2     1  LIG1       -0.4547
     17 H          -1.9926    7.4121   -0.0003 H       1  LIG1        0.1068
     18 C           2.5956    6.6005    0.0000 C.1     1  LIG1       -0.0621
     19 C           3.7946    6.7390    0.0001 C.1     1  LIG1       -0.1137
     20 H           4.8518    6.8774    0.0002 H       1  LIG1        0.1232
     21 O           0.6395    8.8483   -0.0001 O.3     1  LIG1       -0.5028
     22 H          -0.1335    9.4244   -0.0002 H       1  LIG1        0.2923
@<TRIPOS>BOND
     1    17    15    1
     2    15    16   ar
     3    15    14   ar
     4    22    21    1
     5    16    12   ar
     6    14    21    1
     7    14    13   ar
     8    12    13   ar
     9    12     4    1
    10     5     4   ar
    11     5     1   ar
    12    13    18    1
    13     4     3   ar
    14     6     1    1
    15     1     2   ar
    16     3     2   ar
    17     3    10    1
    18     2     7    1
    19    18    19    3
    20    11    10    1
    21     7     8    3
    22    19    20    1
    23     8     9    1
