@<TRIPOS>MOLECULE
mol_data/opt/cam/geoms/mol2/12ef6la4if-12fe-.out
 49 52 0 0 0
SMALL
GASTEIGER

@<TRIPOS>ATOM
      1 C           0.3598    1.5678   -0.6119 C.ar    1  LIG1        0.1116
      2 C           1.6580    1.6463   -0.1996 C.ar    1  LIG1        0.1044
      3 C           1.8934    3.0471    0.0047 C.ar    1  LIG1        0.1785
      4 C           0.7358    3.7034   -0.2976 C.ar    1  LIG1        0.1823
      5 O          -0.2084    2.7815   -0.6724 O.2     1  LIG1       -0.4577
      6 H          -0.2598    0.7277   -0.8818 H       1  LIG1        0.1043
      7 C           2.5746    0.5797   -0.0054 C.1     1  LIG1       -0.0628
      8 C           3.3507   -0.3248    0.1590 C.1     1  LIG1       -0.1137
      9 H           4.0418   -1.1221    0.3066 H       1  LIG1        0.1232
     10 O           3.0744    3.5469    0.4353 O.3     1  LIG1       -0.5024
     11 H           2.9428    4.4620    0.7153 H       1  LIG1        0.2923
     12 C          -0.8074    5.6565    0.1588 C.ar    1  LIG1        0.2261
     13 C           0.4229    5.1252   -0.2992 C.ar    1  LIG1        0.0824
     14 C           1.3569    6.0600   -0.7260 C.ar    1  LIG1       -0.0438
     15 C           1.0835    7.4239   -0.6674 C.ar    1  LIG1       -0.0348
     16 C          -0.1531    7.8392   -0.1898 C.ar    1  LIG1        0.0752
     17 N          -1.0813    6.9422    0.1979 N.ar    1  LIG1       -0.2123
     18 H           2.3009    5.7145   -1.1375 H       1  LIG1        0.0627
     19 O          -1.7287    4.7762    0.5795 O.3     1  LIG1       -0.4792
     20 C          -2.9606    5.3002    1.0575 C.3     1  LIG1        0.0804
     21 H          -3.5352    4.4350    1.3860 H       1  LIG1        0.0660
     22 H          -2.7998    5.9913    1.8879 H       1  LIG1        0.0660
     23 H          -3.4960    5.8294    0.2654 H       1  LIG1        0.0660
     24 H           1.8065    8.1403   -1.0310 H       1  LIG1        0.0639
     25 C           0.2914   10.3210    0.2323 C.ar    1  LIG1       -0.0404
     26 C          -0.2313   11.6111    0.2400 C.ar    1  LIG1       -0.0439
     27 C          -0.5634    9.2664   -0.1316 C.ar    1  LIG1        0.0069
     28 C          -1.5501   11.9180   -0.1066 C.ar    1  LIG1        0.0626
     29 H           0.4167   12.4275    0.5369 H       1  LIG1        0.0629
     30 C          -1.8910    9.5550   -0.4513 C.ar    1  LIG1       -0.0100
     31 C          -2.3891   10.8474   -0.4585 C.ar    1  LIG1        0.1283
     32 H          -2.5482    8.7288   -0.7057 H       1  LIG1        0.0661
     33 C           1.7252   10.1366    0.6673 C.3     1  LIG1       -0.0391
     34 H           2.0275   10.9622    1.3151 H       1  LIG1        0.0278
     35 H           2.4181   10.1287   -0.1812 H       1  LIG1        0.0278
     36 H           1.8730    9.2053    1.2174 H       1  LIG1        0.0278
     37 O          -3.6782   11.1043   -0.8096 O.3     1  LIG1       -0.5060
     38 H          -4.1053   10.2706   -1.0385 H       1  LIG1        0.2922
     39 C          -1.9798   13.3090   -0.0912 C.ar    1  LIG1        0.1807
     40 C          -1.2813   14.4841   -0.0794 C.ar    1  LIG1        0.1785
     41 C          -2.2351   15.5547   -0.0418 C.ar    1  LIG1        0.1044
     42 C          -3.4552   14.9454   -0.0318 C.ar    1  LIG1        0.1116
     43 O          -3.3192   13.6153   -0.0587 O.2     1  LIG1       -0.4578
     44 H          -4.4611   15.3328   -0.0086 H       1  LIG1        0.1043
     45 O           0.0639   14.6298   -0.1004 O.3     1  LIG1       -0.5024
     46 H           0.2614   15.5765   -0.1188 H       1  LIG1        0.2923
     47 C          -1.8958   16.9320   -0.0276 C.1     1  LIG1       -0.0628
     48 C          -1.5280   18.0795   -0.0176 C.1     1  LIG1       -0.1137
     49 H          -1.2320   19.1033   -0.0085 H       1  LIG1        0.1232
@<TRIPOS>BOND
     1    18    14    1
     2    38    37    1
     3    24    15    1
     4     6     1    1
     5    37    31    1
     6    14    15   ar
     7    14    13   ar
     8    32    30    1
     9     5     1   ar
    10     5     4   ar
    11    15    16   ar
    12     1     2   ar
    13    31    30   ar
    14    31    28   ar
    15    30    27   ar
    16    13     4    1
    17    13    12   ar
    18     4     3   ar
    19     2     7    1
    20     2     3   ar
    21    16    27    1
    22    16    17   ar
    23    35    33    1
    24    27    25   ar
    25    46    45    1
    26    28    39    1
    27    28    26   ar
    28    45    40    1
    29    39    40   ar
    30    39    43   ar
    31    40    41   ar
    32    43    42   ar
    33    41    42   ar
    34    41    47    1
    35    42    44    1
    36    47    48    3
    37    48    49    1
    38     7     8    3
    39     3    10    1
    40    12    17   ar
    41    12    19    1
    42     8     9    1
    43    25    26   ar
    44    25    33    1
    45    26    29    1
    46    23    20    1
    47    10    11    1
    48    19    20    1
    49    33    36    1
    50    33    34    1
    51    20    21    1
    52    20    22    1
