@<TRIPOS>MOLECULE
mol_data/opt/cam/geoms/mol2/12ef12ef-12ef.out
 32 34 0 0 0
SMALL
GASTEIGER

@<TRIPOS>ATOM
      1 C           0.2680    1.7524    0.0000 C.ar    1  LIG1        0.1118
      2 C           1.6305    1.8330    0.0000 C.ar    1  LIG1        0.1045
      3 C           1.9265    3.2384   -0.0000 C.ar    1  LIG1        0.1815
      4 C           0.7177    3.8868   -0.0000 C.ar    1  LIG1        0.2134
      5 O          -0.2988    2.9701   -0.0000 O.2     1  LIG1       -0.4547
      6 H          -0.4022    0.9078    0.0001 H       1  LIG1        0.1043
      7 C           2.5618    0.7615    0.0001 C.1     1  LIG1       -0.0628
      8 C           3.3496   -0.1474    0.0001 C.1     1  LIG1       -0.1137
      9 H           4.0523   -0.9484    0.0001 H       1  LIG1        0.1232
     10 O           3.1675    3.7338   -0.0000 O.3     1  LIG1       -0.5023
     11 H           3.1542    4.7061   -0.0000 H       1  LIG1        0.2923
     12 C           0.4172    5.2798   -0.0001 C.ar    1  LIG1        0.1934
     13 C          -0.7287    6.0378   -0.0001 C.ar    1  LIG1        0.1157
     14 C          -0.2871    7.4053   -0.0001 C.ar    1  LIG1        0.1823
     15 C           1.0775    7.3967   -0.0001 C.ar    1  LIG1        0.2144
     16 O           1.5023    6.0848   -0.0001 O.2     1  LIG1       -0.4434
     17 C          -2.0914    5.6552   -0.0001 C.1     1  LIG1       -0.0621
     18 C          -3.2751    5.4285   -0.0001 C.1     1  LIG1       -0.1137
     19 H          -4.3145    5.1924   -0.0001 H       1  LIG1        0.1232
     20 O          -1.0838    8.4853   -0.0002 O.3     1  LIG1       -0.5023
     21 H          -2.0023    8.1790   -0.0002 H       1  LIG1        0.2923
     22 C           2.0922    8.4044   -0.0001 C.ar    1  LIG1        0.1924
     23 C           3.4672    8.3331   -0.0001 C.ar    1  LIG1        0.1149
     24 C           3.9094    9.7013   -0.0001 C.ar    1  LIG1        0.1709
     25 C           2.8012   10.4808   -0.0002 C.ar    1  LIG1        0.1353
     26 O           1.6835    9.6867   -0.0002 O.2     1  LIG1       -0.4547
     27 H           2.6342   11.5447   -0.0003 H       1  LIG1        0.1068
     28 C           4.3028    7.1878    0.0000 C.1     1  LIG1       -0.0621
     29 C           5.0498    6.2416    0.0001 C.1     1  LIG1       -0.1137
     30 H           5.7134    5.4070    0.0001 H       1  LIG1        0.1232
     31 O           5.2190   10.0337   -0.0001 O.3     1  LIG1       -0.5028
     32 H           5.3089   10.9936   -0.0002 H       1  LIG1        0.2923
@<TRIPOS>BOND
     1    27    25    1
     2    25    26   ar
     3    25    24   ar
     4    26    22   ar
     5    20    21    1
     6    20    14    1
     7    32    31    1
     8    24    31    1
     9    24    23   ar
    10    22    15    1
    11    22    23   ar
    12    14    15   ar
    13    14    13   ar
    14    15    16   ar
    15    13    17    1
    16    13    12   ar
    17    17    18    3
    18    18    19    1
    19    23    28    1
    20    16    12   ar
    21    12     4    1
    22    11    10    1
    23     4     3   ar
    24     4     5   ar
    25    10     3    1
    26     3     2   ar
    27     5     1   ar
    28    28    29    3
    29     1     2   ar
    30     1     6    1
    31     2     7    1
    32     7     8    3
    33    29    30    1
    34     8     9    1
