@<TRIPOS>MOLECULE
mol_data/opt/cam/geoms/mol2/12ef12ef12ef.out
 32 34 0 0 0
SMALL
GASTEIGER

@<TRIPOS>ATOM
      1 C           0.2606    1.7201   -0.0000 C.ar    1  LIG1        0.1118
      2 C           1.6236    1.7450    0.0000 C.ar    1  LIG1        0.1045
      3 C           1.9795    3.1366    0.0001 C.ar    1  LIG1        0.1815
      4 C           0.7997    3.8425    0.0000 C.ar    1  LIG1        0.2134
      5 O          -0.2516    2.9571   -0.0001 O.2     1  LIG1       -0.4547
      6 H          -0.4444    0.9040   -0.0000 H       1  LIG1        0.1043
      7 C           2.5136    0.6393    0.0001 C.1     1  LIG1       -0.0628
      8 C           3.2654   -0.2997    0.0001 C.1     1  LIG1       -0.1137
      9 H           3.9359   -1.1278    0.0002 H       1  LIG1        0.1232
     10 O           3.2526    3.5403    0.0001 O.3     1  LIG1       -0.5023
     11 H           3.3151    4.5117    0.0001 H       1  LIG1        0.2923
     12 C           0.4586    5.2353   -0.0000 C.ar    1  LIG1        0.1934
     13 C           1.2060    6.3955    0.0001 C.ar    1  LIG1        0.1157
     14 C           0.2590    7.4707   -0.0000 C.ar    1  LIG1        0.1823
     15 C          -0.9885    6.9010   -0.0001 C.ar    1  LIG1        0.2144
     16 O          -0.8508    5.5307   -0.0001 O.2     1  LIG1       -0.4434
     17 C           2.6141    6.5472    0.0002 C.1     1  LIG1       -0.0621
     18 C           3.8106    6.7035    0.0002 C.1     1  LIG1       -0.1137
     19 H           4.8656    6.8584   -0.0007 H       1  LIG1        0.1232
     20 O           0.6511    8.7478    0.0000 O.3     1  LIG1       -0.5023
     21 H          -0.1133    9.3510   -0.0000 H       1  LIG1        0.2923
     22 C          -2.3306    7.4068   -0.0002 C.ar    1  LIG1        0.1924
     23 C          -2.8638    8.6794   -0.0002 C.ar    1  LIG1        0.1149
     24 C          -4.2894    8.4944   -0.0003 C.ar    1  LIG1        0.1709
     25 C          -4.5168    7.1602   -0.0004 C.ar    1  LIG1        0.1353
     26 O          -3.3183    6.4936   -0.0003 O.2     1  LIG1       -0.4547
     27 H          -5.4050    6.5512   -0.0005 H       1  LIG1        0.1068
     28 C          -2.1906    9.9248   -0.0001 C.1     1  LIG1       -0.0621
     29 C          -1.6392   10.9986   -0.0000 C.1     1  LIG1       -0.1137
     30 H          -1.1695   11.9558    0.0004 H       1  LIG1        0.1232
     31 O          -5.1468    9.5382   -0.0004 O.3     1  LIG1       -0.5028
     32 H          -6.0541    9.2121   -0.0005 H       1  LIG1        0.2923
@<TRIPOS>BOND
     1    19    18    1
     2    27    25    1
     3    32    31    1
     4    25    24   ar
     5    25    26   ar
     6    31    24    1
     7    24    23   ar
     8    26    22   ar
     9    23    22   ar
    10    23    28    1
    11    22    15    1
    12    28    29    3
    13    15    16   ar
    14    15    14   ar
    15    16    12   ar
    16     5     1   ar
    17     5     4   ar
    18     6     1    1
    19    29    30    1
    20     1     2   ar
    21    12     4    1
    22    12    13   ar
    23    14    20    1
    24    14    13   ar
    25    21    20    1
    26     4     3   ar
    27     2     3   ar
    28     2     7    1
    29    13    17    1
    30     3    10    1
    31     7     8    3
    32    10    11    1
    33     8     9    1
    34    17    18    3
