@<TRIPOS>MOLECULE
mol_data/opt/cam/geoms/mol2/12eg12eg12eg-12eg-.out
 42 45 0 0 0
SMALL
GASTEIGER

@<TRIPOS>ATOM
      1 C           0.6872    2.2517    1.9020 C.ar    1  LIG1        0.1092
      2 C           1.6620    1.9025    1.0177 C.ar    1  LIG1        0.0762
      3 C           1.8447    3.0486    0.1608 C.ar    1  LIG1        0.0691
      4 C           0.9644    3.9943    0.6096 C.ar    1  LIG1        0.1852
      5 O           0.2617    3.5039    1.6785 O.2     1  LIG1       -0.4574
      6 H           0.2251    1.7195    2.7180 H       1  LIG1        0.1042
      7 C           2.3454    0.6597    0.9429 C.1     1  LIG1       -0.0654
      8 C           2.9261   -0.3914    0.8713 C.1     1  LIG1       -0.1138
      9 H           3.4428   -1.3213    0.8073 H       1  LIG1        0.1232
     10 S           2.9278    3.0235   -1.2226 S.3     1  LIG1       -0.1377
     11 H           3.1573    4.3476   -1.2783 H       1  LIG1        0.1073
     12 C           0.6013    5.3268    0.1910 C.ar    1  LIG1        0.1882
     13 C           1.3083    6.4023   -0.2885 C.ar    1  LIG1        0.0874
     14 C           0.3430    7.4411   -0.5394 C.ar    1  LIG1        0.0699
     15 C          -0.8664    6.9261   -0.1651 C.ar    1  LIG1        0.1863
     16 O          -0.7074    5.6429    0.2800 O.2     1  LIG1       -0.4461
     17 C           2.7121    6.5124   -0.4532 C.1     1  LIG1       -0.0646
     18 C           3.9034    6.6202   -0.5966 C.1     1  LIG1       -0.1138
     19 H           4.9592    6.7260   -0.7009 H       1  LIG1        0.1232
     20 S           0.7780    8.9702   -1.2881 S.3     1  LIG1       -0.1377
     21 H          -0.1943    9.7118   -0.7271 H       1  LIG1        0.1073
     22 C          -2.2244    7.4131   -0.1773 C.ar    1  LIG1        0.1882
     23 C          -2.8035    8.6294    0.0903 C.ar    1  LIG1        0.0874
     24 C          -4.2165    8.4604   -0.1301 C.ar    1  LIG1        0.0699
     25 C          -4.3861    7.1515   -0.4835 C.ar    1  LIG1        0.1863
     26 O          -3.1771    6.5157   -0.5078 O.2     1  LIG1       -0.4461
     27 C          -2.1662    9.8083    0.5527 C.1     1  LIG1       -0.0646
     28 C          -1.6369   10.8156    0.9484 C.1     1  LIG1       -0.1138
     29 H          -1.1760   11.7012    1.3228 H       1  LIG1        0.1232
     30 S          -5.3582    9.7945   -0.0368 S.3     1  LIG1       -0.1377
     31 H          -6.4176    9.0781    0.3810 H       1  LIG1        0.1073
     32 C          -5.5228    6.3421   -0.8532 C.ar    1  LIG1        0.1872
     33 C          -6.8188    6.2631   -0.4057 C.ar    1  LIG1        0.0866
     34 C          -7.4556    5.2556   -1.2157 C.ar    1  LIG1        0.0587
     35 C          -6.5013    4.8000   -2.0611 C.ar    1  LIG1        0.1071
     36 O          -5.3280    5.4523   -1.8523 O.2     1  LIG1       -0.4574
     37 H          -6.4963    4.0477   -2.8329 H       1  LIG1        0.1041
     38 C          -7.4122    6.9576    0.6781 C.1     1  LIG1       -0.0647
     39 C          -7.9387    7.5317    1.5976 C.1     1  LIG1       -0.1138
     40 H          -8.3976    8.0212    2.4263 H       1  LIG1        0.1232
     41 S          -9.1415    4.7816   -1.0304 S.3     1  LIG1       -0.1384
     42 H          -9.1276    3.8413   -1.9892 H       1  LIG1        0.1072
@<TRIPOS>BOND
     1    37    35    1
     2    35    36   ar
     3    35    34   ar
     4    42    41    1
     5    36    32   ar
     6    20    21    1
     7    20    14    1
     8    11    10    1
     9    10     3    1
    10    34    41    1
    11    34    33   ar
    12    32    25    1
    13    32    33   ar
    14    19    18    1
    15    18    17    3
    16    14    13   ar
    17    14    15   ar
    18    26    25   ar
    19    26    22   ar
    20    25    24   ar
    21    17    13    1
    22    33    38    1
    23    13    12   ar
    24    22    15    1
    25    22    23   ar
    26    15    16   ar
    27    24    30    1
    28    24    23   ar
    29    30    31    1
    30    23    27    1
    31     3     4   ar
    32     3     2   ar
    33    12    16   ar
    34    12     4    1
    35    27    28    3
    36     4     5   ar
    37    38    39    3
    38     9     8    1
    39     8     7    3
    40     7     2    1
    41    28    29    1
    42     2     1   ar
    43    39    40    1
    44     5     1   ar
    45     1     6    1
