@<TRIPOS>MOLECULE
mol_data/opt/cam/geoms/mol2/12eg12eg-12eg12eg.out
 42 45 0 0 0
SMALL
GASTEIGER

@<TRIPOS>ATOM
      1 C           0.5645    1.6865    0.0495 C.ar    1  LIG1        0.1092
      2 C           1.8666    1.8138   -0.3281 C.ar    1  LIG1        0.0762
      3 C           2.1436    3.2295   -0.3142 C.ar    1  LIG1        0.0691
      4 C           0.9806    3.8334    0.0786 C.ar    1  LIG1        0.1852
      5 O           0.0185    2.8847    0.3044 O.2     1  LIG1       -0.4574
      6 H          -0.0709    0.8251    0.1788 H       1  LIG1        0.1042
      7 C           2.7621    0.7694   -0.6807 C.1     1  LIG1       -0.0654
      8 C           3.5254   -0.1095   -0.9843 C.1     1  LIG1       -0.1138
      9 H           4.2034   -0.8868   -1.2522 H       1  LIG1        0.1232
     10 S           3.6809    3.8893   -0.8510 S.3     1  LIG1       -0.1377
     11 H           3.6293    5.0308   -0.1419 H       1  LIG1        0.1073
     12 C           0.5537    5.2001    0.2560 C.ar    1  LIG1        0.1882
     13 C           1.1604    6.3341    0.7383 C.ar    1  LIG1        0.0874
     14 C           0.1876    7.3900    0.6316 C.ar    1  LIG1        0.0699
     15 C          -0.9352    6.8124    0.1078 C.ar    1  LIG1        0.1863
     16 O          -0.7081    5.4850   -0.1283 O.2     1  LIG1       -0.4461
     17 C           2.4475    6.4473    1.3214 C.1     1  LIG1       -0.0646
     18 C           3.5355    6.5584    1.8268 C.1     1  LIG1       -0.1138
     19 H           4.4893    6.6530    2.2938 H       1  LIG1        0.1232
     20 S           0.4856    9.0080    1.2498 S.3     1  LIG1       -0.1377
     21 H          -0.3534    9.6570    0.4223 H       1  LIG1        0.1073
     22 C          -2.2661    7.2778   -0.1956 C.ar    1  LIG1        0.1882
     23 C          -2.7715    8.4467   -0.7101 C.ar    1  LIG1        0.0874
     24 C          -4.2014    8.2840   -0.7524 C.ar    1  LIG1        0.0699
     25 C          -4.4493    7.0278   -0.2752 C.ar    1  LIG1        0.1863
     26 O          -3.2745    6.4216    0.0719 O.2     1  LIG1       -0.4461
     27 C          -2.0462    9.5611   -1.2015 C.1     1  LIG1       -0.0646
     28 C          -1.4427   10.5117   -1.6302 C.1     1  LIG1       -0.1138
     29 H          -0.9110   11.3441   -2.0318 H       1  LIG1        0.1232
     30 S          -5.2695    9.4898   -1.4575 S.3     1  LIG1       -0.1377
     31 H          -6.3523    9.2063   -0.7111 H       1  LIG1        0.1073
     32 C          -5.6383    6.2287   -0.1000 C.ar    1  LIG1        0.1872
     33 C          -6.9177    6.5085    0.3138 C.ar    1  LIG1        0.0866
     34 C          -7.6356    5.2605    0.2477 C.ar    1  LIG1        0.0587
     35 C          -6.7398    4.3376   -0.1748 C.ar    1  LIG1        0.1071
     36 O          -5.5276    4.9131   -0.3906 O.2     1  LIG1       -0.4574
     37 H          -6.8032    3.2781   -0.3615 H       1  LIG1        0.1041
     38 C          -7.4321    7.7411    0.7876 C.1     1  LIG1       -0.0647
     39 C          -7.8919    8.7769    1.1976 C.1     1  LIG1       -0.1138
     40 H          -8.2920    9.6868    1.5836 H       1  LIG1        0.1232
     41 S          -9.3344    5.0928    0.6801 S.3     1  LIG1       -0.1384
     42 H          -9.4036    3.7696    0.4608 H       1  LIG1        0.1072
@<TRIPOS>BOND
     1    29    28    1
     2    28    27    3
     3    30    24    1
     4    30    31    1
     5     9     8    1
     6    27    23    1
     7     8     7    3
     8    10     3    1
     9    10    11    1
    10    24    23   ar
    11    24    25   ar
    12    23    22   ar
    13     7     2    1
    14    36    35   ar
    15    36    32   ar
    16    37    35    1
    17     2     3   ar
    18     2     1   ar
    19     3     4   ar
    20    25    32    1
    21    25    26   ar
    22    22    26   ar
    23    22    15    1
    24    35    34   ar
    25    16    15   ar
    26    16    12   ar
    27    32    33   ar
    28     1     6    1
    29     1     5   ar
    30     4    12    1
    31     4     5   ar
    32    15    14   ar
    33    34    33   ar
    34    34    41    1
    35    12    13   ar
    36    33    38    1
    37    21    20    1
    38    42    41    1
    39    14    13   ar
    40    14    20    1
    41    13    17    1
    42    38    39    3
    43    39    40    1
    44    17    18    3
    45    18    19    1
