@<TRIPOS>MOLECULE
mol_data/opt/cam/geoms/mol2/12eg12eg-12eg-12eg.out
 42 45 0 0 0
SMALL
GASTEIGER

@<TRIPOS>ATOM
      1 C           0.6994    2.2452    1.9056 C.ar    1  LIG1        0.1092
      2 C           1.6683    1.8989    1.0137 C.ar    1  LIG1        0.0762
      3 C           1.8455    3.0478    0.1594 C.ar    1  LIG1        0.0691
      4 C           0.9682    3.9921    0.6171 C.ar    1  LIG1        0.1852
      5 O           0.2724    3.4982    1.6889 O.2     1  LIG1       -0.4574
      6 H           0.2426    1.7104    2.7228 H       1  LIG1        0.1042
      7 C           2.3512    0.6563    0.9304 C.1     1  LIG1       -0.0654
      8 C           2.9314   -0.3945    0.8516 C.1     1  LIG1       -0.1138
      9 H           3.4476   -1.3242    0.7812 H       1  LIG1        0.1232
     10 S           2.9195    3.0272   -1.2311 S.3     1  LIG1       -0.1377
     11 H           3.1488    4.3514   -1.2839 H       1  LIG1        0.1073
     12 C           0.6024    5.3259    0.2052 C.ar    1  LIG1        0.1882
     13 C           1.3063    6.4030   -0.2754 C.ar    1  LIG1        0.0874
     14 C           0.3394    7.4426   -0.5166 C.ar    1  LIG1        0.0699
     15 C          -0.8675    6.9264   -0.1361 C.ar    1  LIG1        0.1863
     16 O          -0.7056    5.6418    0.3038 O.2     1  LIG1       -0.4461
     17 C           2.7090    6.5135   -0.4489 C.1     1  LIG1       -0.0646
     18 C           3.8994    6.6218   -0.5998 C.1     1  LIG1       -0.1138
     19 H           4.9544    6.7279   -0.7106 H       1  LIG1        0.1232
     20 S           0.7696    8.9741   -1.2632 S.3     1  LIG1       -0.1377
     21 H          -0.1989    9.7139   -0.6933 H       1  LIG1        0.1073
     22 C          -2.2255    7.4135   -0.1378 C.ar    1  LIG1        0.1882
     23 C          -2.8027    8.6289    0.1375 C.ar    1  LIG1        0.0874
     24 C          -4.2172    8.4607   -0.0742 C.ar    1  LIG1        0.0699
     25 C          -4.3892    7.1529   -0.4307 C.ar    1  LIG1        0.1863
     26 O          -3.1804    6.5172   -0.4651 O.2     1  LIG1       -0.4461
     27 C          -2.1624    9.8062    0.5997 C.1     1  LIG1       -0.0646
     28 C          -1.6305   10.8123    0.9952 C.1     1  LIG1       -0.1138
     29 H          -1.1670   11.6965    1.3695 H       1  LIG1        0.1232
     30 S          -5.3582    9.7945    0.0309 S.3     1  LIG1       -0.1377
     31 H          -6.4149    9.0768    0.4536 H       1  LIG1        0.1073
     32 C          -5.5283    6.3449   -0.7956 C.ar    1  LIG1        0.1872
     33 C          -6.8214    6.2644   -0.3398 C.ar    1  LIG1        0.0866
     34 C          -7.4635    5.2597   -1.1490 C.ar    1  LIG1        0.0587
     35 C          -6.5149    4.8068   -2.0021 C.ar    1  LIG1        0.1071
     36 O          -5.3402    5.4584   -1.7989 O.2     1  LIG1       -0.4574
     37 H          -6.5151    4.0570   -2.7764 H       1  LIG1        0.1041
     38 C          -7.4076    6.9554    0.7501 C.1     1  LIG1       -0.0647
     39 C          -7.9279    7.5264    1.6751 C.1     1  LIG1       -0.1138
     40 H          -8.3814    8.0132    2.5083 H       1  LIG1        0.1232
     41 S          -9.1482    4.7851   -0.9541 S.3     1  LIG1       -0.1384
     42 H          -9.1407    3.8480   -1.9161 H       1  LIG1        0.1072
@<TRIPOS>BOND
     1    37    35    1
     2    35    36   ar
     3    35    34   ar
     4    42    41    1
     5    36    32   ar
     6    11    10    1
     7    20    21    1
     8    20    14    1
     9    10     3    1
    10    34    41    1
    11    34    33   ar
    12    32    25    1
    13    32    33   ar
    14    19    18    1
    15    18    17    3
    16    14    13   ar
    17    14    15   ar
    18    26    25   ar
    19    26    22   ar
    20    17    13    1
    21    25    24   ar
    22    33    38    1
    23    13    12   ar
    24    22    15    1
    25    22    23   ar
    26    15    16   ar
    27    24    30    1
    28    24    23   ar
    29    30    31    1
    30    23    27    1
    31     3     4   ar
    32     3     2   ar
    33    12    16   ar
    34    12     4    1
    35    27    28    3
    36     4     5   ar
    37    38    39    3
    38     9     8    1
    39     8     7    3
    40     7     2    1
    41    28    29    1
    42     2     1   ar
    43    39    40    1
    44     5     1   ar
    45     1     6    1
