@<TRIPOS>MOLECULE
mol_data/opt/cam/geoms/mol2/12eg12eg-.out
 22 23 0 0 0
SMALL
GASTEIGER

@<TRIPOS>ATOM
      1 C           0.2972    1.8492    0.6696 C.ar    1  LIG1        0.1092
      2 C           1.5245    1.7858    0.0837 C.ar    1  LIG1        0.0762
      3 C           1.8474    3.1388   -0.2998 C.ar    1  LIG1        0.0691
      4 C           0.7852    3.9031    0.0957 C.ar    1  LIG1        0.1852
      5 O          -0.1588    3.1113    0.6941 O.2     1  LIG1       -0.4574
      6 H          -0.3387    1.0938    1.1026 H       1  LIG1        0.1042
      7 C           2.3148    0.6240   -0.1236 C.1     1  LIG1       -0.0654
      8 C           2.9877   -0.3564   -0.3055 C.1     1  LIG1       -0.1138
      9 H           3.5857   -1.2237   -0.4664 H       1  LIG1        0.1232
     10 S           3.2986    3.5423   -1.2063 S.3     1  LIG1       -0.1377
     11 H           3.4190    4.8097   -0.7731 H       1  LIG1        0.1073
     12 C           0.4454    5.3023   -0.0110 C.ar    1  LIG1        0.1872
     13 C           1.1636    6.4672    0.1039 C.ar    1  LIG1        0.0866
     14 C           0.2265    7.5354   -0.1386 C.ar    1  LIG1        0.0587
     15 C          -0.9691    6.9399   -0.3564 C.ar    1  LIG1        0.1071
     16 O          -0.8480    5.5876   -0.2854 O.2     1  LIG1       -0.4574
     17 H          -1.9563    7.3191   -0.5640 H       1  LIG1        0.1041
     18 C           2.5269    6.6207    0.4600 C.1     1  LIG1       -0.0647
     19 C           3.6826    6.7772    0.7630 C.1     1  LIG1       -0.1138
     20 H           4.6993    6.9141    1.0535 H       1  LIG1        0.1232
     21 S           0.6668    9.2403   -0.1048 S.3     1  LIG1       -0.1384
     22 H          -0.5597    9.7064   -0.3916 H       1  LIG1        0.1072
@<TRIPOS>BOND
     1    10    11    1
     2    10     3    1
     3    17    15    1
     4     9     8    1
     5    22    21    1
     6    15    16   ar
     7    15    14   ar
     8     8     7    3
     9     3     2   ar
    10     3     4   ar
    11    16    12   ar
    12    14    21    1
    13    14    13   ar
    14     7     2    1
    15    12     4    1
    16    12    13   ar
    17     2     1   ar
    18     4     5   ar
    19    13    18    1
    20    18    19    3
    21     1     5   ar
    22     1     6    1
    23    19    20    1
