@<TRIPOS>MOLECULE
mol_data/opt/cam/geoms/mol2/12eg12eg12eg-12eg.out
 42 45 0 0 0
SMALL
GASTEIGER

@<TRIPOS>ATOM
      1 C           0.6831    2.2453    1.8990 C.ar    1  LIG1        0.1092
      2 C           1.6591    1.8983    1.0151 C.ar    1  LIG1        0.0762
      3 C           1.8435    3.0468    0.1617 C.ar    1  LIG1        0.0691
      4 C           0.9628    3.9915    0.6119 C.ar    1  LIG1        0.1852
      5 O           0.2583    3.4983    1.6783 O.2     1  LIG1       -0.4574
      6 H           0.2196    1.7110    2.7127 H       1  LIG1        0.1042
      7 C           2.3422    0.6555    0.9379 C.1     1  LIG1       -0.0654
      8 C           2.9227   -0.3956    0.8642 C.1     1  LIG1       -0.1138
      9 H           3.4392   -1.3254    0.7984 H       1  LIG1        0.1232
     10 S           2.9286    3.0252   -1.2200 S.3     1  LIG1       -0.1377
     11 H           3.1587    4.3493   -1.2717 H       1  LIG1        0.1073
     12 C           0.6008    5.3253    0.1965 C.ar    1  LIG1        0.1882
     13 C           1.3088    6.4019   -0.2789 C.ar    1  LIG1        0.0874
     14 C           0.3442    7.4417   -0.5283 C.ar    1  LIG1        0.0699
     15 C          -0.8659    6.9261   -0.1574 C.ar    1  LIG1        0.1863
     16 O          -0.7080    5.6416    0.2844 O.2     1  LIG1       -0.4461
     17 C           2.7129    6.5120   -0.4412 C.1     1  LIG1       -0.0646
     18 C           3.9044    6.6198   -0.5825 C.1     1  LIG1       -0.1138
     19 H           4.9604    6.7256   -0.6849 H       1  LIG1        0.1232
     20 S           0.7809    8.9727   -1.2721 S.3     1  LIG1       -0.1377
     21 H          -0.1921    9.7131   -0.7105 H       1  LIG1        0.1073
     22 C          -2.2237    7.4136   -0.1702 C.ar    1  LIG1        0.1882
     23 C          -2.8028    8.6292    0.0999 C.ar    1  LIG1        0.0874
     24 C          -4.2155    8.4614   -0.1231 C.ar    1  LIG1        0.0699
     25 C          -4.3850    7.1535   -0.4804 C.ar    1  LIG1        0.1863
     26 O          -3.1762    6.5173   -0.5047 O.2     1  LIG1       -0.4461
     27 C          -2.1658    9.8066    0.5667 C.1     1  LIG1       -0.0646
     28 C          -1.6368   10.8127    0.9660 C.1     1  LIG1       -0.1138
     29 H          -1.1762   11.6970    1.3435 H       1  LIG1        0.1232
     30 S          -5.3569    9.7955   -0.0278 S.3     1  LIG1       -0.1377
     31 H          -6.4172    9.0783    0.3866 H       1  LIG1        0.1073
     32 C          -5.5214    6.3456   -0.8540 C.ar    1  LIG1        0.1872
     33 C          -6.8181    6.2657   -0.4087 C.ar    1  LIG1        0.0866
     34 C          -7.4540    5.2607   -1.2225 C.ar    1  LIG1        0.0587
     35 C          -6.4986    4.8071   -2.0678 C.ar    1  LIG1        0.1071
     36 O          -5.3254    5.4585   -1.8554 O.2     1  LIG1       -0.4574
     37 H          -6.4928    4.0570   -2.8416 H       1  LIG1        0.1041
     38 C          -7.4130    6.9573    0.6762 C.1     1  LIG1       -0.0647
     39 C          -7.9406    7.5290    1.5966 C.1     1  LIG1       -0.1138
     40 H          -8.4006    8.0163    2.4259 H       1  LIG1        0.1232
     41 S          -9.1404    4.7867   -1.0410 S.3     1  LIG1       -0.1384
     42 H          -9.1254    3.8491   -2.0025 H       1  LIG1        0.1072
@<TRIPOS>BOND
     1    37    35    1
     2    35    36   ar
     3    35    34   ar
     4    42    41    1
     5    36    32   ar
     6    20    21    1
     7    20    14    1
     8    11    10    1
     9    34    41    1
    10    34    33   ar
    11    10     3    1
    12    32    25    1
    13    32    33   ar
    14    19    18    1
    15    18    17    3
    16    14    13   ar
    17    14    15   ar
    18    26    25   ar
    19    26    22   ar
    20    25    24   ar
    21    17    13    1
    22    33    38    1
    23    13    12   ar
    24    22    15    1
    25    22    23   ar
    26    15    16   ar
    27    24    30    1
    28    24    23   ar
    29    30    31    1
    30    23    27    1
    31     3     4   ar
    32     3     2   ar
    33    12    16   ar
    34    12     4    1
    35    27    28    3
    36     4     5   ar
    37    38    39    3
    38     9     8    1
    39     8     7    3
    40     7     2    1
    41    28    29    1
    42     2     1   ar
    43    39    40    1
    44     5     1   ar
    45     1     6    1
