@<TRIPOS>MOLECULE
mol_data/opt/cam/geoms/mol2/12eg12eg-12eg12eg-.out
 42 45 0 0 0
SMALL
GASTEIGER

@<TRIPOS>ATOM
      1 C           0.7086    2.2540   -1.9142 C.ar    1  LIG1        0.1092
      2 C           1.6709    1.9014   -1.0177 C.ar    1  LIG1        0.0762
      3 C           1.8435    3.0450   -0.1555 C.ar    1  LIG1        0.0691
      4 C           0.9707    3.9931   -0.6138 C.ar    1  LIG1        0.1852
      5 O           0.2817    3.5063   -1.6933 O.2     1  LIG1       -0.4574
      6 H           0.2568    1.7245   -2.7376 H       1  LIG1        0.1042
      7 C           2.3517    0.6574   -0.9368 C.1     1  LIG1       -0.0654
      8 C           2.9301   -0.3945   -0.8599 C.1     1  LIG1       -0.1138
      9 H           3.4447   -1.3252   -0.7913 H       1  LIG1        0.1232
     10 S           2.9080    3.0147    1.2421 S.3     1  LIG1       -0.1377
     11 H           3.1370    4.3385    1.3057 H       1  LIG1        0.1073
     12 C           0.6035    5.3249   -0.1967 C.ar    1  LIG1        0.1882
     13 C           1.3050    6.3983    0.2954 C.ar    1  LIG1        0.0874
     14 C           0.3376    7.4376    0.5354 C.ar    1  LIG1        0.0699
     15 C          -0.8671    6.9252    0.1430 C.ar    1  LIG1        0.1863
     16 O          -0.7034    5.6429   -0.3031 O.2     1  LIG1       -0.4461
     17 C           2.7064    6.5063    0.4801 C.1     1  LIG1       -0.0646
     18 C           3.8957    6.6124    0.6407 C.1     1  LIG1       -0.1138
     19 H           4.9500    6.7167    0.7602 H       1  LIG1        0.1232
     20 S           0.7645    8.9642    1.2938 S.3     1  LIG1       -0.1377
     21 H          -0.2006    9.7081    0.7236 H       1  LIG1        0.1073
     22 C          -2.2247    7.4135    0.1377 C.ar    1  LIG1        0.1882
     23 C          -2.7990    8.6311   -0.1340 C.ar    1  LIG1        0.0874
     24 C          -4.2151    8.4626    0.0660 C.ar    1  LIG1        0.0699
     25 C          -4.3907    7.1527    0.4127 C.ar    1  LIG1        0.1863
     26 O          -3.1826    6.5158    0.4519 O.2     1  LIG1       -0.4461
     27 C          -2.1545    9.8111   -0.5836 C.1     1  LIG1       -0.0646
     28 C          -1.6191   10.8194   -0.9684 C.1     1  LIG1       -0.1138
     29 H          -1.1524   11.7059   -1.3333 H       1  LIG1        0.1232
     30 S          -5.3545    9.7978   -0.0392 S.3     1  LIG1       -0.1377
     31 H          -6.4082    9.0835   -0.4748 H       1  LIG1        0.1073
     32 C          -5.5332    6.3434    0.7641 C.ar    1  LIG1        0.1872
     33 C          -6.8226    6.2666    0.2975 C.ar    1  LIG1        0.0866
     34 C          -7.4719    5.2577    1.0956 C.ar    1  LIG1        0.0587
     35 C          -6.5305    4.7991    1.9538 C.ar    1  LIG1        0.1071
     36 O          -5.3537    5.4510    1.7638 O.2     1  LIG1       -0.4574
     37 H          -6.5374    4.0449    2.7236 H       1  LIG1        0.1041
     38 C          -7.3994    6.9646   -0.7930 C.1     1  LIG1       -0.0647
     39 C          -7.9115    7.5419   -1.7186 C.1     1  LIG1       -0.1138
     40 H          -8.3577    8.0343   -2.5525 H       1  LIG1        0.1232
     41 S          -9.1553    4.7856    0.8845 S.3     1  LIG1       -0.1384
     42 H          -9.1561    3.8426    1.8408 H       1  LIG1        0.1072
@<TRIPOS>BOND
     1     6     1    1
     2    40    39    1
     3     1     5   ar
     4     1     2   ar
     5    39    38    3
     6     5     4   ar
     7    29    28    1
     8     2     7    1
     9     2     3   ar
    10    28    27    3
    11     7     8    3
    12     8     9    1
    13    38    33    1
    14     4    12    1
    15     4     3   ar
    16    27    23    1
    17    31    30    1
    18    16    12   ar
    19    16    15   ar
    20    12    13   ar
    21     3    10    1
    22    23    24   ar
    23    23    22   ar
    24    30    24    1
    25    24    25   ar
    26    22    15    1
    27    22    26   ar
    28    15    14   ar
    29    13    17    1
    30    13    14   ar
    31    33    32   ar
    32    33    34   ar
    33    25    26   ar
    34    25    32    1
    35    17    18    3
    36    14    20    1
    37    18    19    1
    38    21    20    1
    39    32    36   ar
    40    41    34    1
    41    41    42    1
    42    34    35   ar
    43    10    11    1
    44    36    35   ar
    45    35    37    1
