@<TRIPOS>MOLECULE
mol_data/opt/cam/geoms/mol2/12eg12eg-12eg.out
 32 34 0 0 0
SMALL
GASTEIGER

@<TRIPOS>ATOM
      1 C           0.0626    1.8478    0.0139 C.ar    1  LIG1        0.1092
      2 C           1.4137    1.6915    0.0045 C.ar    1  LIG1        0.0762
      3 C           1.9672    3.0231   -0.0029 C.ar    1  LIG1        0.0691
      4 C           0.8939    3.8786    0.0030 C.ar    1  LIG1        0.1852
      5 O          -0.2674    3.1437    0.0132 O.2     1  LIG1       -0.4574
      6 H          -0.7493    1.1383    0.0215 H       1  LIG1        0.1042
      7 C           2.1402    0.4715    0.0021 C.1     1  LIG1       -0.0654
      8 C           2.7676   -0.5551   -0.0007 C.1     1  LIG1       -0.1138
      9 H           3.3235   -1.4643   -0.0038 H       1  LIG1        0.1232
     10 S           3.7058    3.2431   -0.0183 S.3     1  LIG1       -0.1377
     11 H           3.7058    4.5870   -0.0186 H       1  LIG1        0.1073
     12 C           0.6560    5.3053    0.0010 C.ar    1  LIG1        0.1882
     13 C           1.4076    6.4608   -0.0005 C.ar    1  LIG1        0.0874
     14 C           0.4710    7.5563   -0.0028 C.ar    1  LIG1        0.0699
     15 C          -0.7773    6.9956   -0.0020 C.ar    1  LIG1        0.1863
     16 O          -0.6503    5.6321    0.0003 O.2     1  LIG1       -0.4461
     17 C           2.8109    6.6658    0.0014 C.1     1  LIG1       -0.0646
     18 C           3.9812    6.9549    0.0032 C.1     1  LIG1       -0.1138
     19 H           5.0194    7.1979    0.0047 H       1  LIG1        0.1232
     20 S           1.0582    9.2090   -0.0067 S.3     1  LIG1       -0.1377
     21 H          -0.1447    9.8084   -0.0059 H       1  LIG1        0.1073
     22 C          -2.1560    7.4340   -0.0030 C.ar    1  LIG1        0.1872
     23 C          -2.8415    8.6323   -0.0002 C.ar    1  LIG1        0.0866
     24 C          -4.2424    8.2858   -0.0044 C.ar    1  LIG1        0.0587
     25 C          -4.2990    6.9360   -0.0090 C.ar    1  LIG1        0.1071
     26 O          -3.0458    6.4144   -0.0082 O.2     1  LIG1       -0.4574
     27 H          -5.1099    6.2264   -0.0129 H       1  LIG1        0.1041
     28 C          -2.3918    9.9769    0.0068 C.1     1  LIG1       -0.0647
     29 C          -2.1264   11.1532    0.0131 C.1     1  LIG1       -0.1138
     30 H          -1.8779   12.1900    0.0192 H       1  LIG1        0.1232
     31 S          -5.5342    9.4832   -0.0028 S.3     1  LIG1       -0.1384
     32 H          -6.5411    8.5944   -0.0075 H       1  LIG1        0.1072
@<TRIPOS>BOND
     1    11    10    1
     2    10     3    1
     3    27    25    1
     4    25    26   ar
     5    25    24   ar
     6    26    22   ar
     7    32    31    1
     8    20    21    1
     9    20    14    1
    10    24    31    1
    11    24    23   ar
    12     9     8    1
    13    22    15    1
    14    22    23   ar
    15     3     4   ar
    16     3     2   ar
    17    14    15   ar
    18    14    13   ar
    19    15    16   ar
    20     8     7    3
    21    13    12   ar
    22    13    17    1
    23    23    28    1
    24    16    12   ar
    25    12     4    1
    26    17    18    3
    27     7     2    1
    28     4     5   ar
    29    18    19    1
    30     2     1   ar
    31    28    29    3
    32    29    30    1
    33     5     1   ar
    34     1     6    1
