@<TRIPOS>MOLECULE
mol_data/opt/cam/geoms/mol2/12eg12eg.out
 22 23 0 0 0
SMALL
GASTEIGER

@<TRIPOS>ATOM
      1 C           0.2839    1.8472    0.6479 C.ar    1  LIG1        0.1092
      2 C           1.5205    1.7849    0.0817 C.ar    1  LIG1        0.0762
      3 C           1.8509    3.1393   -0.2907 C.ar    1  LIG1        0.0691
      4 C           0.7832    3.9030    0.0907 C.ar    1  LIG1        0.1852
      5 O          -0.1713    3.1096    0.6703 O.2     1  LIG1       -0.4574
      6 H          -0.3597    1.0907    1.0673 H       1  LIG1        0.1042
      7 C           2.3131    0.6234   -0.1177 C.1     1  LIG1       -0.0654
      8 C           2.9881   -0.3569   -0.2929 C.1     1  LIG1       -0.1138
      9 H           3.5882   -1.2238   -0.4478 H       1  LIG1        0.1232
     10 S           3.3175    3.5450   -1.1711 S.3     1  LIG1       -0.1377
     11 H           3.4307    4.8111   -0.7321 H       1  LIG1        0.1073
     12 C           0.4464    5.3031   -0.0158 C.ar    1  LIG1        0.1872
     13 C           1.1635    6.4668    0.1159 C.ar    1  LIG1        0.0866
     14 C           0.2314    7.5368   -0.1373 C.ar    1  LIG1        0.0587
     15 C          -0.9610    6.9434   -0.3772 C.ar    1  LIG1        0.1071
     16 O          -0.8421    5.5906   -0.3101 O.2     1  LIG1       -0.4574
     17 H          -1.9444    7.3243   -0.5992 H       1  LIG1        0.1041
     18 C           2.5210    6.6178    0.4945 C.1     1  LIG1       -0.0647
     19 C           3.6718    6.7726    0.8169 C.1     1  LIG1       -0.1138
     20 H           4.6837    6.9079    1.1244 H       1  LIG1        0.1232
     21 S           0.6725    9.2412   -0.0888 S.3     1  LIG1       -0.1384
     22 H          -0.5483    9.7097   -0.3952 H       1  LIG1        0.1072
@<TRIPOS>BOND
     1    10    11    1
     2    10     3    1
     3    17    15    1
     4     9     8    1
     5    22    21    1
     6    15    16   ar
     7    15    14   ar
     8    16    12   ar
     9     8     7    3
    10     3     2   ar
    11     3     4   ar
    12    14    21    1
    13    14    13   ar
    14     7     2    1
    15    12     4    1
    16    12    13   ar
    17     2     1   ar
    18     4     5   ar
    19    13    18    1
    20    18    19    3
    21     1     5   ar
    22     1     6    1
    23    19    20    1
