@<TRIPOS>MOLECULE
mol_data/opt/cam/geoms/mol2/12eg12eg-12eg-.out
 32 34 0 0 0
SMALL
GASTEIGER

@<TRIPOS>ATOM
      1 C           0.3982    1.7514   -0.4563 C.ar    1  LIG1        0.1092
      2 C           1.5935    1.7905    0.1948 C.ar    1  LIG1        0.0762
      3 C           1.8958    3.1891    0.3784 C.ar    1  LIG1        0.0691
      4 C           0.8548    3.8733   -0.1865 C.ar    1  LIG1        0.1852
      5 O          -0.0569    2.9895   -0.7006 O.2     1  LIG1       -0.4574
      6 H          -0.2134    0.9322   -0.7990 H       1  LIG1        0.1042
      7 C           2.3726    0.6821    0.6212 C.1     1  LIG1       -0.0654
      8 C           3.0358   -0.2520    0.9883 C.1     1  LIG1       -0.1138
      9 H           3.6256   -1.0782    1.3127 H       1  LIG1        0.1232
     10 S           3.2959    3.7379    1.2877 S.3     1  LIG1       -0.1377
     11 H           3.4369    4.9274    0.6760 H       1  LIG1        0.1073
     12 C           0.5059    5.2675   -0.3141 C.ar    1  LIG1        0.1882
     13 C           1.2257    6.4118   -0.5550 C.ar    1  LIG1        0.0874
     14 C           0.2776    7.4955   -0.5451 C.ar    1  LIG1        0.0699
     15 C          -0.9416    6.9239   -0.3137 C.ar    1  LIG1        0.1863
     16 O          -0.8005    5.5725   -0.1630 O.2     1  LIG1       -0.4461
     17 C           2.6074    6.5181   -0.8544 C.1     1  LIG1       -0.0646
     18 C           3.7783    6.6230   -1.1178 C.1     1  LIG1       -0.1138
     19 H           4.8096    6.7150   -1.3724 H       1  LIG1        0.1232
     20 S           0.7303    9.1500   -0.9316 S.3     1  LIG1       -0.1377
     21 H          -0.2266    9.7559   -0.2056 H       1  LIG1        0.1073
     22 C          -2.2940    7.4214   -0.2329 C.ar    1  LIG1        0.1872
     23 C          -2.8594    8.5538    0.3007 C.ar    1  LIG1        0.0866
     24 C          -4.2714    8.4554    0.0293 C.ar    1  LIG1        0.0587
     25 C          -4.4453    7.2796   -0.6183 C.ar    1  LIG1        0.1071
     26 O          -3.2543    6.6462   -0.7851 O.2     1  LIG1       -0.4574
     27 H          -5.3127    6.7716   -1.0071 H       1  LIG1        0.1041
     28 C          -2.2228    9.5831    1.0382 C.1     1  LIG1       -0.0647
     29 C          -1.7052   10.4685    1.6711 C.1     1  LIG1       -0.1138
     30 H          -1.2508   11.2386    2.2519 H       1  LIG1        0.1232
     31 S          -5.4417    9.6774    0.5176 S.3     1  LIG1       -0.1384
     32 H          -6.5181    9.0451    0.0223 H       1  LIG1        0.1072
@<TRIPOS>BOND
     1    19    18    1
     2    18    17    3
     3    27    25    1
     4    20    14    1
     5    20    21    1
     6    17    13    1
     7     6     1    1
     8    26    25   ar
     9    26    22   ar
    10     5     1   ar
    11     5     4   ar
    12    25    24   ar
    13    13    14   ar
    14    13    12   ar
    15    14    15   ar
    16     1     2   ar
    17    12     4    1
    18    12    16   ar
    19    15    22    1
    20    15    16   ar
    21    22    23   ar
    22     4     3   ar
    23    32    31    1
    24    24    23   ar
    25    24    31    1
    26     2     3   ar
    27     2     7    1
    28    23    28    1
    29     3    10    1
    30     7     8    3
    31    11    10    1
    32     8     9    1
    33    28    29    3
    34    29    30    1
