@<TRIPOS>MOLECULE
mol_data/opt/cam/geoms/mol2/12eg12eg-12eg-12eg-.out
 42 45 0 0 0
SMALL
GASTEIGER

@<TRIPOS>ATOM
      1 C           0.5704    1.6904   -0.0633 C.ar    1  LIG1        0.1092
      2 C           1.8659    1.8148    0.3373 C.ar    1  LIG1        0.0762
      3 C           2.1412    3.2308    0.3443 C.ar    1  LIG1        0.0691
      4 C           0.9842    3.8380   -0.0608 C.ar    1  LIG1        0.1852
      5 O           0.0272    2.8908   -0.3135 O.2     1  LIG1       -0.4574
      6 H          -0.0617    0.8298   -0.2130 H       1  LIG1        0.1042
      7 C           2.7567    0.7673    0.6929 C.1     1  LIG1       -0.0654
      8 C           3.5160   -0.1142    0.9989 C.1     1  LIG1       -0.1138
      9 H           4.1904   -0.8938    1.2692 H       1  LIG1        0.1232
     10 S           3.6685    3.8862    0.9142 S.3     1  LIG1       -0.1377
     11 H           3.6271    5.0357    0.2176 H       1  LIG1        0.1073
     12 C           0.5584    5.2060   -0.2296 C.ar    1  LIG1        0.1882
     13 C           1.1716    6.3463   -0.6886 C.ar    1  LIG1        0.0874
     14 C           0.1958    7.3998   -0.5859 C.ar    1  LIG1        0.0699
     15 C          -0.9349    6.8149   -0.0876 C.ar    1  LIG1        0.1863
     16 O          -0.7099    5.4851    0.1369 O.2     1  LIG1       -0.4461
     17 C           2.4681    6.4676   -1.2489 C.1     1  LIG1       -0.0646
     18 C           3.5642    6.5857   -1.7349 C.1     1  LIG1       -0.1138
     19 H           4.5255    6.6867   -2.1849 H       1  LIG1        0.1232
     20 S           0.5018    9.0252   -1.1805 S.3     1  LIG1       -0.1377
     21 H          -0.3515    9.6636   -0.3595 H       1  LIG1        0.1073
     22 C          -2.2713    7.2752    0.1989 C.ar    1  LIG1        0.1882
     23 C          -2.7867    8.4376    0.7184 C.ar    1  LIG1        0.0874
     24 C          -4.2170    8.2727    0.7349 C.ar    1  LIG1        0.0699
     25 C          -4.4551    7.0217    0.2393 C.ar    1  LIG1        0.1863
     26 O          -3.2739    6.4210   -0.0952 O.2     1  LIG1       -0.4461
     27 C          -2.0712    9.5470    1.2346 C.1     1  LIG1       -0.0646
     28 C          -1.4762   10.4933    1.6843 C.1     1  LIG1       -0.1138
     29 H          -0.9523   11.3215    2.1044 H       1  LIG1        0.1232
     30 S          -5.2983    9.4690    1.4360 S.3     1  LIG1       -0.1377
     31 H          -6.3681    9.1928    0.6684 H       1  LIG1        0.1073
     32 C          -5.6399    6.2232    0.0350 C.ar    1  LIG1        0.1872
     33 C          -6.9127    6.5062   -0.3968 C.ar    1  LIG1        0.0866
     34 C          -7.6297    5.2567   -0.3570 C.ar    1  LIG1        0.0587
     35 C          -6.7398    4.3301    0.0697 C.ar    1  LIG1        0.1071
     36 O          -5.5322    4.9045    0.3122 O.2     1  LIG1       -0.4574
     37 H          -6.8048    3.2684    0.2430 H       1  LIG1        0.1041
     38 C          -7.4209    7.7437   -0.8648 C.1     1  LIG1       -0.0647
     39 C          -7.8753    8.7836   -1.2704 C.1     1  LIG1       -0.1138
     40 H          -8.2699    9.6975   -1.6524 H       1  LIG1        0.1232
     41 S          -9.3209    5.0918   -0.8196 S.3     1  LIG1       -0.1384
     42 H          -9.3919    3.7661   -0.6166 H       1  LIG1        0.1072
@<TRIPOS>BOND
     1    19    18    1
     2    18    17    3
     3    40    39    1
     4    39    38    3
     5    17    13    1
     6    20    14    1
     7    20    21    1
     8    38    33    1
     9    41    42    1
    10    41    34    1
    11    13    14   ar
    12    13    12   ar
    13    14    15   ar
    14    33    34   ar
    15    33    32   ar
    16    34    35   ar
    17     5     1   ar
    18     5     4   ar
    19    12     4    1
    20    12    16   ar
    21     6     1    1
    22    26    22   ar
    23    26    25   ar
    24    15    16   ar
    25    15    22    1
    26     1     2   ar
    27     4     3   ar
    28    32    25    1
    29    32    36   ar
    30    35    37    1
    31    35    36   ar
    32    22    23   ar
    33    11    10    1
    34    25    24   ar
    35     2     3   ar
    36     2     7    1
    37     3    10    1
    38    31    30    1
    39     7     8    3
    40    23    24   ar
    41    23    27    1
    42    24    30    1
    43     8     9    1
    44    27    28    3
    45    28    29    1
