@<TRIPOS>MOLECULE
mol_data/opt/cam/geoms/mol2/12eg12eg12eg12eg.out
 42 45 0 0 0
SMALL
GASTEIGER

@<TRIPOS>ATOM
      1 C           0.5665    1.6882    0.0494 C.ar    1  LIG1        0.1092
      2 C           1.8731    1.8165   -0.3120 C.ar    1  LIG1        0.0762
      3 C           2.1491    3.2322   -0.2940 C.ar    1  LIG1        0.0691
      4 C           0.9809    3.8354    0.0844 C.ar    1  LIG1        0.1852
      5 O           0.0167    2.8860    0.2978 O.2     1  LIG1       -0.4574
      6 H          -0.0700    0.8264    0.1703 H       1  LIG1        0.1042
      7 C           2.7735    0.7727   -0.6538 C.1     1  LIG1       -0.0654
      8 C           3.5411   -0.1056   -0.9481 C.1     1  LIG1       -0.1138
      9 H           4.2228   -0.8824   -1.2080 H       1  LIG1        0.1232
     10 S           3.6925    3.8932   -0.8115 S.3     1  LIG1       -0.1377
     11 H           3.6314    5.0344   -0.1028 H       1  LIG1        0.1073
     12 C           0.5510    5.2017    0.2571 C.ar    1  LIG1        0.1882
     13 C           1.1509    6.3359    0.7472 C.ar    1  LIG1        0.0874
     14 C           0.1789    7.3913    0.6289 C.ar    1  LIG1        0.0699
     15 C          -0.9370    6.8132    0.0911 C.ar    1  LIG1        0.1863
     16 O          -0.7061    5.4859   -0.1427 O.2     1  LIG1       -0.4461
     17 C           2.4307    6.4497    1.3463 C.1     1  LIG1       -0.0646
     18 C           3.5122    6.5613    1.8652 C.1     1  LIG1       -0.1138
     19 H           4.4601    6.6563    2.3440 H       1  LIG1        0.1232
     20 S           0.4682    9.0092    1.2515 S.3     1  LIG1       -0.1377
     21 H          -0.3609    9.6580    0.4140 H       1  LIG1        0.1073
     22 C          -2.2644    7.2778   -0.2286 C.ar    1  LIG1        0.1882
     23 C          -2.7641    8.4466   -0.7489 C.ar    1  LIG1        0.0874
     24 C          -4.1933    8.2829   -0.8089 C.ar    1  LIG1        0.0699
     25 C          -4.4462    7.0263   -0.3354 C.ar    1  LIG1        0.1863
     26 O          -3.2754    6.4208    0.0261 O.2     1  LIG1       -0.4461
     27 C          -2.0335    9.5617   -1.2307 C.1     1  LIG1       -0.0646
     28 C          -1.4255   10.5129   -1.6515 C.1     1  LIG1       -0.1138
     29 H          -0.8894   11.3457   -2.0463 H       1  LIG1        0.1232
     30 S          -5.2534    9.4883   -1.5267 S.3     1  LIG1       -0.1377
     31 H          -6.3451    9.2038   -0.7938 H       1  LIG1        0.1073
     32 C          -5.6367    6.2263   -0.1752 C.ar    1  LIG1        0.1872
     33 C          -6.9214    6.5051    0.2229 C.ar    1  LIG1        0.0866
     34 C          -7.6375    5.2567    0.1473 C.ar    1  LIG1        0.0587
     35 C          -6.7359    4.3345   -0.2644 C.ar    1  LIG1        0.1071
     36 O          -5.5216    4.9109   -0.4648 O.2     1  LIG1       -0.4574
     37 H          -6.7963    3.2750   -0.4522 H       1  LIG1        0.1041
     38 C          -7.4425    7.7372    0.6907 C.1     1  LIG1       -0.0647
     39 C          -7.9081    8.7725    1.0952 C.1     1  LIG1       -0.1138
     40 H          -8.3136    9.6819    1.4766 H       1  LIG1        0.1232
     41 S          -9.3415    5.0875    0.5586 S.3     1  LIG1       -0.1384
     42 H          -9.4070    3.7644    0.3381 H       1  LIG1        0.1072
@<TRIPOS>BOND
     1    29    28    1
     2    28    27    3
     3    30    24    1
     4    30    31    1
     5    27    23    1
     6     9     8    1
     7     8     7    3
     8    10     3    1
     9    10    11    1
    10    24    23   ar
    11    24    25   ar
    12    23    22   ar
    13     7     2    1
    14    36    35   ar
    15    36    32   ar
    16    37    35    1
    17    25    32    1
    18    25    26   ar
    19     2     3   ar
    20     2     1   ar
    21     3     4   ar
    22    35    34   ar
    23    22    26   ar
    24    22    15    1
    25    32    33   ar
    26    16    15   ar
    27    16    12   ar
    28     1     6    1
    29     1     5   ar
    30     4    12    1
    31     4     5   ar
    32    15    14   ar
    33    34    33   ar
    34    34    41    1
    35    33    38    1
    36    12    13   ar
    37    42    41    1
    38    21    20    1
    39    14    13   ar
    40    14    20    1
    41    38    39    3
    42    13    17    1
    43    39    40    1
    44    17    18    3
    45    18    19    1
