@<TRIPOS>MOLECULE
mol_data/opt/cam/geoms/mol2/12eg12eg12eg.out
 32 34 0 0 0
SMALL
GASTEIGER

@<TRIPOS>ATOM
      1 C           0.3880    1.7479    0.4279 C.ar    1  LIG1        0.1092
      2 C           1.5886    1.7887   -0.2132 C.ar    1  LIG1        0.0762
      3 C           1.8946    3.1878   -0.3864 C.ar    1  LIG1        0.0691
      4 C           0.8503    3.8705    0.1741 C.ar    1  LIG1        0.1852
      5 O          -0.0669    2.9853    0.6757 O.2     1  LIG1       -0.4574
      6 H          -0.2276    0.9277    0.7610 H       1  LIG1        0.1042
      7 C           2.3693    0.6815   -0.6397 C.1     1  LIG1       -0.0654
      8 C           3.0340   -0.2516   -1.0069 C.1     1  LIG1       -0.1138
      9 H           3.6250   -1.0769   -1.3314 H       1  LIG1        0.1232
     10 S           3.3030    3.7394   -1.2812 S.3     1  LIG1       -0.1377
     11 H           3.4407    4.9254   -0.6621 H       1  LIG1        0.1073
     12 C           0.5025    5.2645    0.3070 C.ar    1  LIG1        0.1882
     13 C           1.2223    6.4062    0.5602 C.ar    1  LIG1        0.0874
     14 C           0.2760    7.4915    0.5490 C.ar    1  LIG1        0.0699
     15 C          -0.9423    6.9233    0.3047 C.ar    1  LIG1        0.1863
     16 O          -0.8021    5.5725    0.1472 O.2     1  LIG1       -0.4461
     17 C           2.6017    6.5086    0.8710 C.1     1  LIG1       -0.0646
     18 C           3.7707    6.6102    1.1442 C.1     1  LIG1       -0.1138
     19 H           4.8000    6.6992    1.4076 H       1  LIG1        0.1232
     20 S           0.7283    9.1431    0.9486 S.3     1  LIG1       -0.1377
     21 H          -0.2223    9.7547    0.2192 H       1  LIG1        0.1073
     22 C          -2.2932    7.4234    0.2161 C.ar    1  LIG1        0.1872
     23 C          -2.8526    8.5598   -0.3153 C.ar    1  LIG1        0.0866
     24 C          -4.2669    8.4620   -0.0558 C.ar    1  LIG1        0.0587
     25 C          -4.4478    7.2827    0.5836 C.ar    1  LIG1        0.1071
     26 O          -3.2591    6.6465    0.7561 O.2     1  LIG1       -0.4574
     27 H          -5.3190    6.7739    0.9625 H       1  LIG1        0.1041
     28 C          -2.2087    9.5924   -1.0417 C.1     1  LIG1       -0.0647
     29 C          -1.6847   10.4807   -1.6652 C.1     1  LIG1       -0.1138
     30 H          -1.2247   11.2536   -2.2379 H       1  LIG1        0.1232
     31 S          -5.4315    9.6886   -0.5462 S.3     1  LIG1       -0.1384
     32 H          -6.5127    9.0551   -0.0633 H       1  LIG1        0.1072
@<TRIPOS>BOND
     1    30    29    1
     2    29    28    3
     3     9     8    1
     4    10    11    1
     5    10     3    1
     6    28    23    1
     7     8     7    3
     8     7     2    1
     9    31    32    1
    10    31    24    1
    11     3     2   ar
    12     3     4   ar
    13    23    24   ar
    14    23    22   ar
    15     2     1   ar
    16    24    25   ar
    17    16    15   ar
    18    16    12   ar
    19     4    12    1
    20     4     5   ar
    21    22    15    1
    22    22    26   ar
    23    21    20    1
    24    15    14   ar
    25    12    13   ar
    26     1     5   ar
    27     1     6    1
    28    14    13   ar
    29    14    20    1
    30    13    17    1
    31    25    26   ar
    32    25    27    1
    33    17    18    3
    34    18    19    1
