@<TRIPOS>MOLECULE
mol_data/opt/cam/geoms/mol2/12eg12eg12eg12eg-.out
 42 45 0 0 0
SMALL
GASTEIGER

@<TRIPOS>ATOM
      1 C           0.5718    1.6915    0.0521 C.ar    1  LIG1        0.1092
      2 C           1.8771    1.8202   -0.3138 C.ar    1  LIG1        0.0762
      3 C           2.1512    3.2364   -0.3014 C.ar    1  LIG1        0.0691
      4 C           0.9836    3.8393    0.0790 C.ar    1  LIG1        0.1852
      5 O           0.0213    2.8893    0.2987 O.2     1  LIG1       -0.4574
      6 H          -0.0633    0.8293    0.1780 H       1  LIG1        0.1042
      7 C           2.7777    0.7764   -0.6554 C.1     1  LIG1       -0.0654
      8 C           3.5452   -0.1019   -0.9495 C.1     1  LIG1       -0.1138
      9 H           4.2271   -0.8788   -1.2087 H       1  LIG1        0.1232
     10 S           3.6920    3.8980   -0.8262 S.3     1  LIG1       -0.1377
     11 H           3.6319    5.0411   -0.1204 H       1  LIG1        0.1073
     12 C           0.5525    5.2056    0.2486 C.ar    1  LIG1        0.1882
     13 C           1.1526    6.3423    0.7331 C.ar    1  LIG1        0.0874
     14 C           0.1790    7.3960    0.6144 C.ar    1  LIG1        0.0699
     15 C          -0.9379    6.8148    0.0816 C.ar    1  LIG1        0.1863
     16 O          -0.7061    5.4871   -0.1485 O.2     1  LIG1       -0.4461
     17 C           2.4341    6.4593    1.3281 C.1     1  LIG1       -0.0646
     18 C           3.5170    6.5735    1.8435 C.1     1  LIG1       -0.1138
     19 H           4.4662    6.6710    2.3193 H       1  LIG1        0.1232
     20 S           0.4680    9.0163    1.2309 S.3     1  LIG1       -0.1377
     21 H          -0.3638    9.6613    0.3931 H       1  LIG1        0.1073
     22 C          -2.2668    7.2768   -0.2356 C.ar    1  LIG1        0.1882
     23 C          -2.7695    8.4433   -0.7581 C.ar    1  LIG1        0.0874
     24 C          -4.1987    8.2777   -0.8132 C.ar    1  LIG1        0.0699
     25 C          -4.4486    7.0224   -0.3345 C.ar    1  LIG1        0.1863
     26 O          -3.2760    6.4195    0.0253 O.2     1  LIG1       -0.4461
     27 C          -2.0417    9.5576   -1.2460 C.1     1  LIG1       -0.0646
     28 C          -1.4358   10.5079   -1.6721 C.1     1  LIG1       -0.1138
     29 H          -0.9018   11.3399   -2.0714 H       1  LIG1        0.1232
     30 S          -5.2625    9.4793   -1.5318 S.3     1  LIG1       -0.1377
     31 H          -6.3514    9.1960   -0.7945 H       1  LIG1        0.1073
     32 C          -5.6376    6.2215   -0.1679 C.ar    1  LIG1        0.1872
     33 C          -6.9215    6.4999    0.2331 C.ar    1  LIG1        0.0866
     34 C          -7.6361    5.2504    0.1641 C.ar    1  LIG1        0.0587
     35 C          -6.7347    4.3280   -0.2473 C.ar    1  LIG1        0.1071
     36 O          -5.5217    4.9052   -0.4535 O.2     1  LIG1       -0.4574
     37 H          -6.7942    3.2678   -0.4315 H       1  LIG1        0.1041
     38 C          -7.4426    7.7330    0.6985 C.1     1  LIG1       -0.0647
     39 C          -7.9081    8.7692    1.1012 C.1     1  LIG1       -0.1138
     40 H          -8.3132    9.6794    1.4809 H       1  LIG1        0.1232
     41 S          -9.3386    5.0804    0.5813 S.3     1  LIG1       -0.1384
     42 H          -9.4032    3.7565    0.3648 H       1  LIG1        0.1072
@<TRIPOS>BOND
     1    29    28    1
     2    28    27    3
     3    30    24    1
     4    30    31    1
     5    27    23    1
     6     9     8    1
     7     8     7    3
     8    10     3    1
     9    10    11    1
    10    24    23   ar
    11    24    25   ar
    12    23    22   ar
    13     7     2    1
    14    36    35   ar
    15    36    32   ar
    16    37    35    1
    17    25    32    1
    18    25    26   ar
    19     2     3   ar
    20     2     1   ar
    21     3     4   ar
    22    35    34   ar
    23    22    26   ar
    24    22    15    1
    25    32    33   ar
    26    16    15   ar
    27    16    12   ar
    28     1     6    1
    29     1     5   ar
    30     4    12    1
    31     4     5   ar
    32    15    14   ar
    33    34    33   ar
    34    34    41    1
    35    33    38    1
    36    12    13   ar
    37    42    41    1
    38    21    20    1
    39    14    13   ar
    40    14    20    1
    41    38    39    3
    42    13    17    1
    43    39    40    1
    44    17    18    3
    45    18    19    1
