@<TRIPOS>MOLECULE
mol_data/opt/cam/geoms/mol2/12eg12eg12eg-.out
 32 34 0 0 0
SMALL
GASTEIGER

@<TRIPOS>ATOM
      1 C           0.4793    1.9811    1.2052 C.ar    1  LIG1        0.1092
      2 C           1.5792    1.7942    0.4246 C.ar    1  LIG1        0.0762
      3 C           1.8478    3.0720   -0.1891 C.ar    1  LIG1        0.0691
      4 C           0.8860    3.9223    0.2827 C.ar    1  LIG1        0.1852
      5 O           0.0537    3.2517    1.1397 O.2     1  LIG1       -0.4574
      6 H          -0.0781    1.3139    1.8428 H       1  LIG1        0.1042
      7 C           2.3018    0.5857    0.2386 C.1     1  LIG1       -0.0654
      8 C           2.9165   -0.4351    0.0735 C.1     1  LIG1       -0.1138
      9 H           3.4632   -1.3381   -0.0731 H       1  LIG1        0.1232
     10 S           3.1158    3.2927   -1.3854 S.3     1  LIG1       -0.1377
     11 H           3.3185    4.6051   -1.1722 H       1  LIG1        0.1073
     12 C           0.5484    5.3059    0.0495 C.ar    1  LIG1        0.1882
     13 C           1.2853    6.4507   -0.1298 C.ar    1  LIG1        0.0874
     14 C           0.3359    7.5129   -0.3418 C.ar    1  LIG1        0.0699
     15 C          -0.8988    6.9364   -0.2448 C.ar    1  LIG1        0.1863
     16 O          -0.7688    5.5971   -0.0038 O.2     1  LIG1       -0.4461
     17 C           2.6944    6.5922   -0.0630 C.1     1  LIG1       -0.0646
     18 C           3.8905    6.7257   -0.0073 C.1     1  LIG1       -0.1138
     19 H           4.9467    6.8507    0.0659 H       1  LIG1        0.1232
     20 S           0.8235    9.1528   -0.7473 S.3     1  LIG1       -0.1377
     21 H          -0.2200    9.7826   -0.1778 H       1  LIG1        0.1073
     22 C          -2.2538    7.4171   -0.3721 C.ar    1  LIG1        0.1872
     23 C          -2.8951    8.5675    0.0173 C.ar    1  LIG1        0.0866
     24 C          -4.2561    8.4347   -0.4375 C.ar    1  LIG1        0.0587
     25 C          -4.3314    7.2237   -1.0380 C.ar    1  LIG1        0.1071
     26 O          -3.1245    6.6000   -1.0070 O.2     1  LIG1       -0.4574
     27 H          -5.1340    6.6835   -1.5130 H       1  LIG1        0.1041
     28 C          -2.3732    9.6433    0.7785 C.1     1  LIG1       -0.0647
     29 C          -1.9547   10.5680    1.4281 C.1     1  LIG1       -0.1138
     30 H          -1.5907   11.3745    2.0231 H       1  LIG1        0.1232
     31 S          -5.4913    9.6632   -0.1800 S.3     1  LIG1       -0.1384
     32 H          -6.4849    8.9899   -0.7826 H       1  LIG1        0.1072
@<TRIPOS>BOND
     1    27    25    1
     2    10    11    1
     3    10     3    1
     4    25    26   ar
     5    25    24   ar
     6    26    22   ar
     7    32    31    1
     8    20    14    1
     9    20    21    1
    10    24    31    1
    11    24    23   ar
    12    22    15    1
    13    22    23   ar
    14    14    15   ar
    15    14    13   ar
    16    15    16   ar
    17     3     4   ar
    18     3     2   ar
    19    13    17    1
    20    13    12   ar
    21     9     8    1
    22    17    18    3
    23    18    19    1
    24    16    12   ar
    25    23    28    1
    26    12     4    1
    27     8     7    3
    28     7     2    1
    29     4     5   ar
    30     2     1   ar
    31    28    29    3
    32     5     1   ar
    33     1     6    1
    34    29    30    1
