@<TRIPOS>MOLECULE
mol_data/opt/cam/geoms/mol2/12eh12fh-4hf12ll.out
 51 54 0 0 0
SMALL
GASTEIGER

@<TRIPOS>ATOM
      1 C           0.5338    1.5528   -0.6183 C.ar    1  LIG1        0.1099
      2 C           1.8817    1.5827   -0.4170 C.ar    1  LIG1        0.0837
      3 C           2.2168    2.9631   -0.1683 C.ar    1  LIG1        0.0898
      4 C           1.0341    3.6529   -0.2484 C.ar    1  LIG1        0.1951
      5 O           0.0053    2.7784   -0.5191 O.2     1  LIG1       -0.4565
      6 H          -0.1461    0.7448   -0.8366 H       1  LIG1        0.1043
      7 C           2.8029    0.5032   -0.4491 C.1     1  LIG1       -0.0646
      8 C           3.6177   -0.3834   -0.4766 C.1     1  LIG1       -0.1138
      9 H           4.3248   -1.1803   -0.4961 H       1  LIG1        0.1232
     10 N           3.4782    3.4177    0.1417 N.pl3   1  LIG1       -0.3540
     11 H           4.2287    2.8388   -0.2051 H       1  LIG1        0.1425
     12 H           3.6176    4.4139    0.0318 H       1  LIG1        0.1425
     13 C           0.6915    5.0423   -0.1155 C.ar    1  LIG1        0.2154
     14 C           1.4230    6.1732    0.1109 C.ar    1  LIG1        0.1877
     15 C           0.5254    7.2832    0.1179 C.ar    1  LIG1        0.1139
     16 C          -0.7213    6.7594   -0.1249 C.ar    1  LIG1        0.1620
     17 O          -0.6082    5.3864   -0.2573 O.2     1  LIG1       -0.4459
     18 O           2.7879    6.2816    0.2777 O.3     1  LIG1       -0.5019
     19 H           2.9577    6.5513    1.1911 H       1  LIG1        0.2924
     20 N           0.9237    8.5713    0.4407 N.pl3   1  LIG1       -0.3522
     21 H           1.8669    8.7650    0.1275 H       1  LIG1        0.1425
     22 H           0.2584    9.2759    0.1263 H       1  LIG1        0.1425
     23 C          -2.3873    8.5800   -0.5769 C.ar    1  LIG1        0.0363
     24 C          -3.6944    9.0367   -0.4937 C.ar    1  LIG1       -0.0260
     25 C          -2.0766    7.2877   -0.1194 C.ar    1  LIG1        0.0433
     26 C          -4.7381    8.2530    0.0086 C.ar    1  LIG1        0.0642
     27 H          -3.9284   10.0364   -0.8429 H       1  LIG1        0.0644
     28 C          -3.1242    6.4866    0.3442 C.ar    1  LIG1       -0.0070
     29 C          -4.4306    6.9442    0.4180 C.ar    1  LIG1        0.1284
     30 H          -2.8928    5.4804    0.6808 H       1  LIG1        0.0662
     31 N          -1.3688    9.4050   -1.1218 N.pl3   1  LIG1       -0.3574
     32 H          -0.8239    8.8997   -1.8150 H       1  LIG1        0.1423
     33 H          -1.7554   10.2378   -1.5496 H       1  LIG1        0.1423
     34 O          -5.4258    6.1558    0.9107 O.3     1  LIG1       -0.5060
     35 H          -5.0463    5.3063    1.1638 H       1  LIG1        0.2922
     36 C          -6.0765    8.8273    0.0824 C.ar    1  LIG1        0.1836
     37 C          -6.5102   10.1256    0.1083 C.ar    1  LIG1        0.2079
     38 C          -7.9421   10.0868    0.1538 C.ar    1  LIG1        0.2003
     39 C          -8.2817    8.7745    0.1487 C.ar    1  LIG1        0.1379
     40 O          -7.1647    8.0084    0.1055 O.2     1  LIG1       -0.4553
     41 H          -9.2271    8.2593    0.1877 H       1  LIG1        0.1069
     42 O          -5.7413   11.2535    0.0745 O.3     1  LIG1       -0.4884
     43 C          -5.7909   12.0080    1.2841 C.3     1  LIG1        0.0791
     44 H          -5.1884   12.9021    1.1197 H       1  LIG1        0.0660
     45 H          -6.8194   12.2943    1.5234 H       1  LIG1        0.0660
     46 H          -5.3723   11.4319    2.1159 H       1  LIG1        0.0660
     47 O          -8.7837   11.1544    0.2368 O.3     1  LIG1       -0.4888
     48 C          -8.7506   11.9964   -0.9111 C.3     1  LIG1        0.0791
     49 H          -9.4253   12.8285   -0.7067 H       1  LIG1        0.0660
     50 H          -7.7410   12.3764   -1.0949 H       1  LIG1        0.0660
     51 H          -9.0976   11.4558   -1.7988 H       1  LIG1        0.0660
@<TRIPOS>BOND
     1    32    31    1
     2    51    48    1
     3    33    31    1
     4    31    23    1
     5    50    48    1
     6    48    49    1
     7    48    47    1
     8    27    24    1
     9     6     1    1
    10     1     5   ar
    11     1     2   ar
    12    23    24   ar
    13    23    25   ar
    14     5     4   ar
    15     9     8    1
    16    24    26   ar
    17     8     7    3
    18     7     2    1
    19     2     3   ar
    20    17    16   ar
    21    17    13   ar
    22     4     3   ar
    23     4    13    1
    24    11    10    1
    25     3    10    1
    26    16    25    1
    27    16    15   ar
    28    25    28   ar
    29    13    14   ar
    30    26    36    1
    31    26    29   ar
    32    12    10    1
    33    42    37    1
    34    42    43    1
    35    36    40   ar
    36    36    37   ar
    37    40    39   ar
    38    37    38   ar
    39    14    15   ar
    40    14    18    1
    41    15    20    1
    42    22    20    1
    43    21    20    1
    44    39    38   ar
    45    39    41    1
    46    38    47    1
    47    18    19    1
    48    28    29   ar
    49    28    30    1
    50    29    34    1
    51    34    35    1
    52    44    43    1
    53    43    45    1
    54    43    46    1
