@<TRIPOS>MOLECULE
mol_data/opt/cam/geoms/mol2/12eh13le13fh12hf-.out
 48 51 0 0 0
SMALL
GASTEIGER

@<TRIPOS>ATOM
      1 C           0.0739    1.5813   -0.6406 C.ar    1  LIG1        0.1099
      2 C           1.4280    1.4903   -0.5300 C.ar    1  LIG1        0.0837
      3 C           1.9100    2.8366   -0.3304 C.ar    1  LIG1        0.0881
      4 C           0.7998    3.6354   -0.3383 C.ar    1  LIG1        0.1762
      5 O          -0.3271    2.8591   -0.5258 O.2     1  LIG1       -0.4582
      6 H          -0.6927    0.8399   -0.7982 H       1  LIG1        0.1043
      7 C           2.2381    0.3268   -0.6060 C.1     1  LIG1       -0.0646
      8 C           2.9595   -0.6351   -0.6739 C.1     1  LIG1       -0.1138
      9 H           3.5848   -1.4962   -0.7280 H       1  LIG1        0.1232
     10 N           3.2299    3.1791   -0.1217 N.pl3   1  LIG1       -0.3540
     11 H           3.8928    2.5364   -0.5302 H       1  LIG1        0.1425
     12 H           3.4356    4.1574   -0.2833 H       1  LIG1        0.1425
     13 C           0.5666    5.0511   -0.2181 C.ar    1  LIG1        0.1279
     14 C           1.4041    6.1250   -0.0255 C.ar    1  LIG1        0.1643
     15 C           0.6112    7.3170   -0.0076 C.ar    1  LIG1        0.0938
     16 C          -0.7101    6.9273   -0.2116 C.ar    1  LIG1        0.0863
     17 N          -0.7121    5.5641   -0.3242 N.ar    1  LIG1       -0.3465
     18 H          -1.5025    5.0141   -0.6207 H       1  LIG1        0.1662
     19 O           2.7645    6.0633    0.1095 O.3     1  LIG1       -0.4916
     20 C           3.2337    6.3428    1.4287 C.3     1  LIG1        0.0789
     21 H           2.9312    7.3445    1.7454 H       1  LIG1        0.0660
     22 H           2.8552    5.5998    2.1380 H       1  LIG1        0.0660
     23 H           4.3223    6.2885    1.3892 H       1  LIG1        0.0660
     24 C           1.0682    8.6401    0.2009 C.1     1  LIG1       -0.0638
     25 C           1.4441    9.7760    0.3708 C.1     1  LIG1       -0.1137
     26 H           1.7874   10.7684    0.5528 H       1  LIG1        0.1232
     27 C          -1.9232    7.6939   -0.3084 C.ar    1  LIG1        0.1086
     28 C          -2.1760    8.9666   -0.7888 C.ar    1  LIG1        0.1651
     29 C          -3.5780    9.1813   -0.7705 C.ar    1  LIG1        0.0961
     30 C          -4.1639    8.0365   -0.2604 C.ar    1  LIG1        0.1091
     31 N          -3.1636    7.1284   -0.0274 N.ar    1  LIG1       -0.3461
     32 H          -3.3021    6.3382    0.5821 H       1  LIG1        0.1662
     33 O          -1.3317    9.8952   -1.2955 O.3     1  LIG1       -0.5030
     34 H          -0.4368    9.7615   -0.9425 H       1  LIG1        0.2923
     35 N          -4.2493   10.3452   -1.2421 N.pl3   1  LIG1       -0.3534
     36 H          -3.6498   11.1529   -1.0973 H       1  LIG1        0.1425
     37 H          -4.4078   10.2841   -2.2451 H       1  LIG1        0.1425
     38 C          -5.5304    7.7205    0.0545 C.ar    1  LIG1        0.1770
     39 C          -6.6575    8.4808    0.2235 C.ar    1  LIG1        0.1146
     40 C          -7.6936    7.5479    0.5562 C.ar    1  LIG1        0.1763
     41 C          -7.1382    6.3120    0.5908 C.ar    1  LIG1        0.1359
     42 O          -5.8128    6.3925    0.2896 O.2     1  LIG1       -0.4557
     43 H          -7.5325    5.3300    0.7972 H       1  LIG1        0.1068
     44 N          -6.8103    9.8497    0.1899 N.pl3   1  LIG1       -0.3522
     45 H          -6.0718   10.3302   -0.3256 H       1  LIG1        0.1425
     46 H          -7.7502   10.1495   -0.0245 H       1  LIG1        0.1425
     47 O          -8.9696    7.9670    0.7719 O.3     1  LIG1       -0.5024
     48 H          -9.5281    7.2118    0.9869 H       1  LIG1        0.2923
@<TRIPOS>BOND
     1    37    35    1
     2    33    34    1
     3    33    28    1
     4    35    36    1
     5    35    29    1
     6     6     1    1
     7    28    29   ar
     8    28    27   ar
     9    29    30   ar
    10     9     8    1
    11     8     7    3
    12     1     2   ar
    13     1     5   ar
    14    18    17    1
    15     7     2    1
    16    11    10    1
    17     2     3   ar
    18     5     4   ar
    19     4     3   ar
    20     4    13    1
    21     3    10    1
    22    45    44    1
    23    17    13   ar
    24    17    16   ar
    25    27    16    1
    26    27    31   ar
    27    12    10    1
    28    30    31   ar
    29    30    38    1
    30    13    14   ar
    31    16    15   ar
    32    31    32    1
    33    14    15   ar
    34    14    19    1
    35    46    44    1
    36    15    24    1
    37    38    39   ar
    38    38    42   ar
    39    19    20    1
    40    44    39    1
    41    24    25    3
    42    39    40   ar
    43    42    41   ar
    44    25    26    1
    45    40    41   ar
    46    40    47    1
    47    41    43    1
    48    47    48    1
    49    23    20    1
    50    20    21    1
    51    20    22    1
