@<TRIPOS>MOLECULE
mol_data/opt/cam/geoms/mol2/12eh6fh13hf-13hf-.out
 47 50 0 0 0
SMALL
GASTEIGER

@<TRIPOS>ATOM
      1 C           0.4312    1.6197    0.8110 C.ar    1  LIG1        0.1098
      2 C           1.5986    1.5906    0.0970 C.ar    1  LIG1        0.0836
      3 C           1.8776    2.9605   -0.2775 C.ar    1  LIG1        0.0867
      4 C           0.8661    3.7324    0.2469 C.ar    1  LIG1        0.1617
      5 O          -0.0260    2.8909    0.9113 O.2     1  LIG1       -0.4596
      6 H          -0.1606    0.8498    1.2790 H       1  LIG1        0.1043
      7 C           2.3897    0.4668   -0.2489 C.1     1  LIG1       -0.0646
      8 C           3.0963   -0.4591   -0.5796 C.1     1  LIG1       -0.1138
      9 H           3.7069   -1.2895   -0.8497 H       1  LIG1        0.1232
     10 N           2.9944    3.3696   -1.0105 N.pl3   1  LIG1       -0.3541
     11 H           3.4554    2.5872   -1.4620 H       1  LIG1        0.1425
     12 H           2.7851    4.0958   -1.6866 H       1  LIG1        0.1425
     13 C          -0.7257    5.7007    0.3653 C.ar    1  LIG1        0.2240
     14 C           0.5817    5.1557    0.2347 C.ar    1  LIG1        0.0822
     15 C           1.6094    6.0887    0.0080 C.ar    1  LIG1       -0.0230
     16 C           1.3577    7.4536   -0.0518 C.ar    1  LIG1        0.0533
     17 C           0.0308    7.8957    0.1948 C.ar    1  LIG1        0.1134
     18 N          -0.9711    6.9957    0.3439 N.ar    1  LIG1       -0.2090
     19 H           2.6269    5.7303   -0.1250 H       1  LIG1        0.0645
     20 O          -1.8306    4.9239    0.5212 O.3     1  LIG1       -0.4919
     21 H          -1.5543    4.0060    0.6605 H       1  LIG1        0.2938
     22 N           2.3879    8.3803   -0.3603 N.pl3   1  LIG1       -0.3563
     23 H           3.2376    7.9134   -0.6580 H       1  LIG1        0.1424
     24 H           2.0906    9.0247   -1.0893 H       1  LIG1        0.1424
     25 C          -0.3802    9.2826    0.2295 C.ar    1  LIG1        0.0920
     26 C           0.2597   10.5116    0.4893 C.ar    1  LIG1        0.0945
     27 C          -0.7193   11.5321    0.3337 C.ar    1  LIG1        0.1650
     28 C          -1.9394   10.9303    0.0317 C.ar    1  LIG1        0.1092
     29 N          -1.7278    9.5663    0.0183 N.ar    1  LIG1       -0.3473
     30 H          -2.3288    8.8743   -0.4011 H       1  LIG1        0.1662
     31 N           1.5200   10.7765    1.0018 N.pl3   1  LIG1       -0.3534
     32 H           2.2261   10.0755    0.7984 H       1  LIG1        0.1425
     33 H           1.8088   11.7348    0.8555 H       1  LIG1        0.1425
     34 O          -0.4335   12.8419    0.5418 O.3     1  LIG1       -0.5030
     35 H          -1.1687   13.3801    0.1462 H       1  LIG1        0.2923
     36 C          -3.2400   11.5241   -0.1415 C.ar    1  LIG1        0.0912
     37 C          -3.6016   12.8368   -0.4309 C.ar    1  LIG1        0.0938
     38 C          -5.0235   12.8917   -0.4569 C.ar    1  LIG1        0.1554
     39 C          -5.5097   11.6312   -0.1886 C.ar    1  LIG1        0.0461
     40 N          -4.4085   10.7987   -0.0354 N.ar    1  LIG1       -0.3549
     41 H          -4.4484    9.8949    0.4088 H       1  LIG1        0.1655
     42 H          -6.5189   11.2551   -0.1207 H       1  LIG1        0.0845
     43 N          -2.6871   13.9140   -0.6710 N.pl3   1  LIG1       -0.3535
     44 H          -2.5469   14.0655   -1.6697 H       1  LIG1        0.1425
     45 H          -3.0742   14.7801   -0.3021 H       1  LIG1        0.1425
     46 O          -5.6909   14.0559   -0.7344 O.3     1  LIG1       -0.5035
     47 H          -6.6376   13.9110   -0.6154 H       1  LIG1        0.2923
@<TRIPOS>BOND
     1    12    10    1
     2    44    43    1
     3    11    10    1
     4    24    22    1
     5    10     3    1
     6     9     8    1
     7    46    47    1
     8    46    38    1
     9    43    37    1
    10    43    45    1
    11    23    22    1
    12     8     7    3
    13    38    37   ar
    14    38    39   ar
    15    37    36   ar
    16    30    29    1
    17    22    16    1
    18     3     2   ar
    19     3     4   ar
    20     7     2    1
    21    39    42    1
    22    39    40   ar
    23    36    40   ar
    24    36    28    1
    25    19    15    1
    26    16    15   ar
    27    16    17   ar
    28    40    41    1
    29    15    14   ar
    30    29    28   ar
    31    29    25   ar
    32    28    27   ar
    33     2     1   ar
    34    35    34    1
    35    17    25    1
    36    17    18   ar
    37    25    26   ar
    38    14     4    1
    39    14    13   ar
    40     4     5   ar
    41    27    26   ar
    42    27    34    1
    43    18    13   ar
    44    13    20    1
    45    26    31    1
    46    20    21    1
    47    32    31    1
    48     1     5   ar
    49     1     6    1
    50    33    31    1
