@<TRIPOS>MOLECULE
mol_data/opt/cam/geoms/mol2/12ei12ei-.out
 26 27 0 0 0
SMALL
GASTEIGER

@<TRIPOS>ATOM
      1 C           0.1774    1.8242   -0.1008 C.ar    1  LIG1        0.1083
      2 C           1.5375    1.7885   -0.0470 C.ar    1  LIG1        0.0659
      3 C           1.9799    3.1602    0.0008 C.ar    1  LIG1        0.0138
      4 C           0.8357    3.9055   -0.0303 C.ar    1  LIG1        0.1750
      5 O          -0.2617    3.0949   -0.0918 O.2     1  LIG1       -0.4583
      6 H          -0.5737    1.0522   -0.1459 H       1  LIG1        0.1042
      7 C           2.3665    0.6338   -0.0341 C.1     1  LIG1       -0.0662
      8 C           3.0845   -0.3322   -0.0213 C.1     1  LIG1       -0.1138
      9 H           3.7144   -1.1916   -0.0108 H       1  LIG1        0.1232
     10 C           3.4057    3.5979    0.0652 C.3     1  LIG1       -0.0348
     11 H           3.4875    4.6676    0.2481 H       1  LIG1        0.0279
     12 H           3.9231    3.3692   -0.8720 H       1  LIG1        0.0279
     13 H           3.9325    3.0615    0.8592 H       1  LIG1        0.0279
     14 C           0.5641    5.3208   -0.0104 C.ar    1  LIG1        0.1855
     15 C          -0.5971    6.0531   -0.0015 C.ar    1  LIG1        0.0763
     16 C          -0.1981    7.4415    0.0184 C.ar    1  LIG1        0.0034
     17 C           1.1525    7.4307    0.0205 C.ar    1  LIG1        0.0968
     18 O           1.6315    6.1541    0.0020 O.2     1  LIG1       -0.4583
     19 H           1.8961    8.2115    0.0324 H       1  LIG1        0.1032
     20 C          -1.9385    5.5903   -0.0065 C.1     1  LIG1       -0.0655
     21 C          -3.0947    5.2540   -0.0094 C.1     1  LIG1       -0.1138
     22 H          -4.1122    4.9384   -0.0124 H       1  LIG1        0.1232
     23 C          -1.1171    8.6167    0.0336 C.3     1  LIG1       -0.0355
     24 H          -1.7683    8.5931    0.9119 H       1  LIG1        0.0279
     25 H          -1.7654    8.6181   -0.8471 H       1  LIG1        0.0279
     26 H          -0.5579    9.5543    0.0479 H       1  LIG1        0.0279
@<TRIPOS>BOND
     1    12    10    1
     2    25    23    1
     3     6     1    1
     4     1     5   ar
     5     1     2   ar
     6     5     4   ar
     7     2     7    1
     8     2     3   ar
     9     7     8    3
    10     4    14    1
    11     4     3   ar
    12     8     9    1
    13    22    21    1
    14    14    15   ar
    15    14    18   ar
    16    21    20    3
    17    20    15    1
    18    15    16   ar
    19     3    10    1
    20    18    17   ar
    21    16    17   ar
    22    16    23    1
    23    17    19    1
    24    23    26    1
    25    23    24    1
    26    10    11    1
    27    10    13    1
