@<TRIPOS>MOLECULE
mol_data/opt/cam/geoms/mol2/12ei12ei12ei-12ei.out
 50 53 0 0 0
SMALL
GASTEIGER

@<TRIPOS>ATOM
      1 C           0.4262    1.6871   -0.6930 C.ar    1  LIG1        0.1083
      2 C           1.6261    1.7022   -0.0480 C.ar    1  LIG1        0.0659
      3 C           1.9171    3.0861    0.2332 C.ar    1  LIG1        0.0138
      4 C           0.8666    3.7856   -0.2842 C.ar    1  LIG1        0.1750
      5 O          -0.0480    2.9346   -0.8445 O.2     1  LIG1       -0.4583
      6 H          -0.1823    0.8861   -1.0813 H       1  LIG1        0.1042
      7 C           2.4239    0.5802    0.3058 C.1     1  LIG1       -0.0662
      8 C           3.1114   -0.3579    0.6160 C.1     1  LIG1       -0.1138
      9 H           3.7155   -1.1931    0.8861 H       1  LIG1        0.1232
     10 C           3.1049    3.5913    0.9804 C.3     1  LIG1       -0.0348
     11 H           2.8949    4.5515    1.4538 H       1  LIG1        0.0279
     12 H           3.9624    3.7368    0.3175 H       1  LIG1        0.0279
     13 H           3.3962    2.8732    1.7505 H       1  LIG1        0.0279
     14 C           0.5480    5.1916   -0.3378 C.ar    1  LIG1        0.1865
     15 C           1.3062    6.3233   -0.5103 C.ar    1  LIG1        0.0771
     16 C           0.4037    7.4414   -0.4505 C.ar    1  LIG1        0.0145
     17 C          -0.8345    6.8944   -0.2612 C.ar    1  LIG1        0.1761
     18 O          -0.7508    5.5343   -0.1894 O.2     1  LIG1       -0.4470
     19 C           2.6984    6.4067   -0.7772 C.1     1  LIG1       -0.0655
     20 C           3.8736    6.5139   -1.0173 C.1     1  LIG1       -0.1138
     21 H           4.9121    6.6020   -1.2392 H       1  LIG1        0.1232
     22 C           0.8038    8.8692   -0.6146 C.3     1  LIG1       -0.0348
     23 H          -0.0329    9.5465   -0.4556 H       1  LIG1        0.0279
     24 H           1.2052    9.0397   -1.6186 H       1  LIG1        0.0279
     25 H           1.5991    9.1235    0.0926 H       1  LIG1        0.0279
     26 C          -2.1601    7.4376   -0.1370 C.ar    1  LIG1        0.1866
     27 C          -3.4022    6.8531   -0.0498 C.ar    1  LIG1        0.0771
     28 C          -4.3532    7.9256    0.0517 C.ar    1  LIG1        0.0145
     29 C          -3.6151    9.0736    0.0171 C.ar    1  LIG1        0.1760
     30 O          -2.2849    8.7839   -0.0962 O.2     1  LIG1       -0.4470
     31 C          -3.7267    5.4716   -0.0519 C.1     1  LIG1       -0.0655
     32 C          -4.0524    4.3127   -0.0482 C.1     1  LIG1       -0.1138
     33 H          -4.3160    3.2805   -0.0486 H       1  LIG1        0.1232
     34 C          -5.8335    7.7636    0.1637 C.3     1  LIG1       -0.0348
     35 H          -6.0721    6.7548    0.5051 H       1  LIG1        0.0279
     36 H          -6.3219    7.9127   -0.8042 H       1  LIG1        0.0279
     37 H          -6.2628    8.4870    0.8578 H       1  LIG1        0.0279
     38 C          -3.9795   10.4625    0.0772 C.ar    1  LIG1        0.1855
     39 C          -3.2739   11.6338    0.2105 C.ar    1  LIG1        0.0763
     40 C          -4.2514   12.6972    0.2004 C.ar    1  LIG1        0.0034
     41 C          -5.4495   12.0874    0.0681 C.ar    1  LIG1        0.0968
     42 O          -5.3045   10.7345   -0.0103 O.2     1  LIG1       -0.4583
     43 H          -6.4614   12.4558    0.0136 H       1  LIG1        0.1032
     44 C          -1.8758   11.8207    0.3599 C.1     1  LIG1       -0.0655
     45 C          -0.7017   12.0518    0.4995 C.1     1  LIG1       -0.1138
     46 H           0.3387   12.2423    0.6280 H       1  LIG1        0.1232
     47 C          -3.9607   14.1557    0.3197 C.3     1  LIG1       -0.0355
     48 H          -4.8801   14.7439    0.2952 H       1  LIG1        0.0279
     49 H          -3.3159   14.4951   -0.4959 H       1  LIG1        0.0279
     50 H          -3.4386   14.3756    1.2551 H       1  LIG1        0.0279
@<TRIPOS>BOND
     1    24    22    1
     2    21    20    1
     3     6     1    1
     4    20    19    3
     5     5     1   ar
     6     5     4   ar
     7    36    34    1
     8    19    15    1
     9     1     2   ar
    10    22    23    1
    11    22    16    1
    12    22    25    1
    13    15    16   ar
    14    15    14   ar
    15    49    47    1
    16    16    17   ar
    17    14     4    1
    18    14    18   ar
    19     4     3   ar
    20    17    18   ar
    21    17    26    1
    22    26    30   ar
    23    26    27   ar
    24    30    29   ar
    25    31    27    1
    26    31    32    3
    27    27    28   ar
    28    33    32    1
    29     2     3   ar
    30     2     7    1
    31    42    41   ar
    32    42    38   ar
    33    43    41    1
    34    29    28   ar
    35    29    38    1
    36    28    34    1
    37    41    40   ar
    38    38    39   ar
    39    34    35    1
    40    34    37    1
    41    40    39   ar
    42    40    47    1
    43    39    44    1
    44     3    10    1
    45    48    47    1
    46     7     8    3
    47    12    10    1
    48    47    50    1
    49    44    45    3
    50    45    46    1
    51     8     9    1
    52    10    11    1
    53    10    13    1
