@<TRIPOS>MOLECULE
mol_data/opt/cam/geoms/mol2/12ei12ei12ei-12ei-.out
 50 53 0 0 0
SMALL
GASTEIGER

@<TRIPOS>ATOM
      1 C           0.4384    1.7660   -1.0153 C.ar    1  LIG1        0.1083
      2 C           1.6391    1.7255   -0.3728 C.ar    1  LIG1        0.0659
      3 C           1.9240    3.0779    0.0381 C.ar    1  LIG1        0.0138
      4 C           0.8696    3.8182   -0.4095 C.ar    1  LIG1        0.1750
      5 O          -0.0416    3.0199   -1.0474 O.2     1  LIG1       -0.4583
      6 H          -0.1671    1.0026   -1.4773 H       1  LIG1        0.1042
      7 C           2.4426    0.5788   -0.1272 C.1     1  LIG1       -0.0662
      8 C           3.1350   -0.3809    0.0926 C.1     1  LIG1       -0.1138
      9 H           3.7436   -1.2347    0.2822 H       1  LIG1        0.1232
     10 C           3.1104    3.5149    0.8292 C.3     1  LIG1       -0.0348
     11 H           2.9011    4.4320    1.3817 H       1  LIG1        0.0279
     12 H           3.9707    3.7134    0.1837 H       1  LIG1        0.0279
     13 H           3.3977    2.7332    1.5362 H       1  LIG1        0.0279
     14 C           0.5445    5.2216   -0.3294 C.ar    1  LIG1        0.1865
     15 C           1.2974    6.3680   -0.3992 C.ar    1  LIG1        0.0771
     16 C           0.3905    7.4712   -0.2290 C.ar    1  LIG1        0.0145
     17 C          -0.8441    6.9023   -0.0885 C.ar    1  LIG1        0.1761
     18 O          -0.7556    5.5428   -0.1446 O.2     1  LIG1       -0.4470
     19 C           2.6889    6.4819   -0.6584 C.1     1  LIG1       -0.0655
     20 C           3.8635    6.6163   -0.8876 C.1     1  LIG1       -0.1138
     21 H           4.9016    6.7297   -1.0998 H       1  LIG1        0.1232
     22 C           0.7834    8.9114   -0.2390 C.3     1  LIG1       -0.0348
     23 H          -0.0489    9.5563    0.0364 H       1  LIG1        0.0279
     24 H           1.1343    9.2072   -1.2328 H       1  LIG1        0.0279
     25 H           1.6105    9.0839    0.4552 H       1  LIG1        0.0279
     26 C          -2.1648    7.4387    0.1025 C.ar    1  LIG1        0.1866
     27 C          -3.3928    6.8624    0.3246 C.ar    1  LIG1        0.0771
     28 C          -4.3330    7.9449    0.4553 C.ar    1  LIG1        0.0145
     29 C          -3.6073    9.0857    0.2867 C.ar    1  LIG1        0.1760
     30 O          -2.2882    8.7832    0.0750 O.2     1  LIG1       -0.4470
     31 C          -3.7101    5.4851    0.4489 C.1     1  LIG1       -0.0655
     32 C          -4.0271    4.3298    0.5667 C.1     1  LIG1       -0.1138
     33 H          -4.2860    3.3010    0.6644 H       1  LIG1        0.1232
     34 C          -5.7842    7.7946    0.7640 C.3     1  LIG1       -0.0348
     35 H          -5.9404    6.9256    1.4069 H       1  LIG1        0.0279
     36 H          -6.3726    7.6469   -0.1459 H       1  LIG1        0.0279
     37 H          -6.1758    8.6819    1.2632 H       1  LIG1        0.0279
     38 C          -3.9346   10.4900    0.3048 C.ar    1  LIG1        0.1855
     39 C          -5.0293   11.2115   -0.1023 C.ar    1  LIG1        0.0763
     40 C          -4.7454   12.5923    0.2096 C.ar    1  LIG1        0.0034
     41 C          -3.5088   12.5881    0.7563 C.ar    1  LIG1        0.0968
     42 O          -3.0037   11.3273    0.8248 O.2     1  LIG1       -0.4583
     43 H          -2.8701   13.3725    1.1306 H       1  LIG1        0.1032
     44 C          -6.1885   10.7397   -0.7721 C.1     1  LIG1       -0.0655
     45 C          -7.1800   10.3803   -1.3539 C.1     1  LIG1       -0.1138
     46 H          -8.0507   10.0560   -1.8757 H       1  LIG1        0.1232
     47 C          -5.6417   13.7564   -0.0514 C.3     1  LIG1       -0.0355
     48 H          -6.5829   13.6596    0.4973 H       1  LIG1        0.0279
     49 H          -5.8937   13.8265   -1.1133 H       1  LIG1        0.0279
     50 H          -5.1677   14.6929    0.2492 H       1  LIG1        0.0279
@<TRIPOS>BOND
     1    46    45    1
     2     6     1    1
     3    45    44    3
     4    24    22    1
     5    49    47    1
     6    21    20    1
     7     5     1   ar
     8     5     4   ar
     9     1     2   ar
    10    20    19    3
    11    44    39    1
    12    19    15    1
    13     4    14    1
    14     4     3   ar
    15    15    14   ar
    16    15    16   ar
    17     2     7    1
    18     2     3   ar
    19    14    18   ar
    20    22    16    1
    21    22    23    1
    22    22    25    1
    23    16    17   ar
    24    36    34    1
    25    18    17   ar
    26     7     8    3
    27    39    40   ar
    28    39    38   ar
    29    17    26    1
    30    47    40    1
    31    47    50    1
    32    47    48    1
    33     3    10    1
    34    30    26   ar
    35    30    29   ar
    36     8     9    1
    37    26    27   ar
    38    12    10    1
    39    40    41   ar
    40    29    38    1
    41    29    28   ar
    42    38    42   ar
    43    27    31    1
    44    27    28   ar
    45    31    32    3
    46    28    34    1
    47    32    33    1
    48    41    42   ar
    49    41    43    1
    50    34    37    1
    51    34    35    1
    52    10    11    1
    53    10    13    1
