@<TRIPOS>MOLECULE
mol_data/opt/cam/geoms/mol2/12ei6ef13ea-4ee.out
 50 53 0 0 0
SMALL
GASTEIGER

@<TRIPOS>ATOM
      1 C           0.0990    1.7199   -0.4940 C.ar    1  LIG1        0.1082
      2 C           1.3502    1.6655    0.0409 C.ar    1  LIG1        0.0658
      3 C           1.7585    3.0332    0.2470 C.ar    1  LIG1        0.0108
      4 C           0.7127    3.7952   -0.1831 C.ar    1  LIG1        0.1417
      5 O          -0.2993    2.9949   -0.6354 O.2     1  LIG1       -0.4613
      6 H          -0.5941    0.9566   -0.8094 H       1  LIG1        0.1042
      7 C           2.1038    0.5008    0.3509 C.1     1  LIG1       -0.0662
      8 C           2.7573   -0.4731    0.6223 C.1     1  LIG1       -0.1138
      9 H           3.3301   -1.3398    0.8590 H       1  LIG1        0.1232
     10 C           3.0565    3.4659    0.8456 C.3     1  LIG1       -0.0349
     11 H           3.0022    4.4890    1.2218 H       1  LIG1        0.0279
     12 H           3.8709    3.4177    0.1153 H       1  LIG1        0.0279
     13 H           3.3300    2.8072    1.6734 H       1  LIG1        0.0279
     14 C          -0.7035    5.8727    0.0917 C.ar    1  LIG1        0.1248
     15 C           0.5114    5.2412   -0.2515 C.ar    1  LIG1        0.0548
     16 C           1.5499    6.0654   -0.6586 C.ar    1  LIG1       -0.0046
     17 C           1.4071    7.4491   -0.7190 C.ar    1  LIG1        0.1449
     18 C           0.1593    7.9959   -0.3603 C.ar    1  LIG1        0.1309
     19 N          -0.8419    7.1925    0.0224 N.ar    1  LIG1       -0.2325
     20 H           2.4999    5.6481   -0.9704 H       1  LIG1        0.0663
     21 C          -1.8464    5.1442    0.5673 C.1     1  LIG1       -0.0491
     22 C          -2.8122    4.5640    0.9876 C.1     1  LIG1       -0.1124
     23 H          -3.6661    4.0439    1.3565 H       1  LIG1        0.1232
     24 O           2.4803    8.1249   -1.1569 O.3     1  LIG1       -0.5045
     25 H           2.3812    9.0925   -1.1175 H       1  LIG1        0.2922
     26 C          -0.2251    9.4176   -0.3774 C.ar    1  LIG1        0.0846
     27 C           0.4042   10.6569   -0.5382 C.ar    1  LIG1        0.0521
     28 C          -0.5910   11.6603   -0.3896 C.ar    1  LIG1       -0.0203
     29 C          -1.7913   11.0317   -0.1466 C.ar    1  LIG1        0.0494
     30 N          -1.5402    9.6852   -0.1531 N.ar    1  LIG1       -0.3519
     31 H          -2.1704    8.9285    0.0799 H       1  LIG1        0.1660
     32 C           1.7746   10.9408   -0.7786 C.1     1  LIG1       -0.0675
     33 C           2.9320   11.2168   -0.9824 C.1     1  LIG1       -0.1138
     34 H           3.9558   11.4585   -1.1550 H       1  LIG1        0.1232
     35 H          -0.4288   12.7222   -0.4703 H       1  LIG1        0.0651
     36 C          -3.4259   12.7914    0.6339 C.ar    1  LIG1        0.0338
     37 C          -4.7548   13.2120    0.7707 C.ar    1  LIG1       -0.0445
     38 C          -3.1531   11.5441    0.0313 C.ar    1  LIG1        0.0149
     39 C          -5.8078   12.4294    0.3383 C.ar    1  LIG1       -0.0451
     40 H          -4.9464   14.1716    1.2370 H       1  LIG1        0.0630
     41 C          -4.2289   10.7701   -0.4076 C.ar    1  LIG1       -0.0360
     42 C          -5.5508   11.1902   -0.2580 C.ar    1  LIG1        0.0254
     43 H          -4.0411    9.8260   -0.9061 H       1  LIG1        0.0637
     44 H          -6.8306   12.7679    0.4549 H       1  LIG1        0.0630
     45 C          -2.3995   13.6497    1.1418 C.1     1  LIG1       -0.0690
     46 C          -1.5866   14.4152    1.5924 C.1     1  LIG1       -0.1139
     47 H          -0.8537   15.0777    1.9924 H       1  LIG1        0.1232
     48 C          -6.6257   10.3671   -0.7226 C.1     1  LIG1       -0.0696
     49 C          -7.5307    9.6756   -1.1118 C.1     1  LIG1       -0.1139
     50 H          -8.3307    9.0623   -1.4579 H       1  LIG1        0.1232
@<TRIPOS>BOND
     1    50    49    1
     2    24    25    1
     3    24    17    1
     4    34    33    1
     5    49    48    3
     6    33    32    3
     7    20    16    1
     8    43    41    1
     9     6     1    1
    10    32    27    1
    11    48    42    1
    12    17    16   ar
    13    17    18   ar
    14    16    15   ar
    15     5     1   ar
    16     5     4   ar
    17    27    28   ar
    18    27    26   ar
    19     1     2   ar
    20    35    28    1
    21    41    42   ar
    22    41    38   ar
    23    28    29   ar
    24    26    18    1
    25    26    30   ar
    26    18    19   ar
    27    42    39   ar
    28    15     4    1
    29    15    14   ar
    30     4     3   ar
    31    30    29   ar
    32    30    31    1
    33    29    38    1
    34    19    14   ar
    35    38    36   ar
    36     2     3   ar
    37     2     7    1
    38    14    21    1
    39    12    10    1
    40     3    10    1
    41    39    44    1
    42    39    37   ar
    43     7     8    3
    44    21    22    3
    45     8     9    1
    46    36    37   ar
    47    36    45    1
    48    37    40    1
    49    10    11    1
    50    10    13    1
    51    22    23    1
    52    45    46    3
    53    46    47    1
