@<TRIPOS>MOLECULE
mol_data/opt/cam/geoms/mol2/12ei12ei12ei.out
 38 40 0 0 0
SMALL
GASTEIGER

@<TRIPOS>ATOM
      1 C           0.5118    1.9054   -1.2634 C.ar    1  LIG1        0.1083
      2 C           1.6669    1.7984   -0.5490 C.ar    1  LIG1        0.0659
      3 C           1.9064    3.0973    0.0299 C.ar    1  LIG1        0.0138
      4 C           0.8758    3.8783   -0.4024 C.ar    1  LIG1        0.1750
      5 O           0.0196    3.1527   -1.1871 O.2     1  LIG1       -0.4583
      6 H          -0.0523    1.1960   -1.8476 H       1  LIG1        0.1042
      7 C           2.4666    0.6354   -0.3798 C.1     1  LIG1       -0.0662
      8 C           3.1550   -0.3394   -0.2229 C.1     1  LIG1       -0.1138
      9 H           3.7601   -1.2062   -0.0895 H       1  LIG1        0.1232
     10 C           3.0316    3.4482    0.9439 C.3     1  LIG1       -0.0348
     11 H           2.7763    4.2995    1.5765 H       1  LIG1        0.0279
     12 H           3.9320    3.7171    0.3844 H       1  LIG1        0.0279
     13 H           3.2772    2.5951    1.5806 H       1  LIG1        0.0279
     14 C           0.5270    5.2628   -0.1875 C.ar    1  LIG1        0.1865
     15 C           1.2693    6.4133   -0.0855 C.ar    1  LIG1        0.0771
     16 C           0.3388    7.4827    0.1646 C.ar    1  LIG1        0.0145
     17 C          -0.8928    6.8990    0.1598 C.ar    1  LIG1        0.1760
     18 O          -0.7854    5.5516   -0.0444 O.2     1  LIG1       -0.4470
     19 C           2.6734    6.5603   -0.2378 C.1     1  LIG1       -0.0655
     20 C           3.8592    6.7237   -0.3707 C.1     1  LIG1       -0.1138
     21 H           4.9077    6.8629   -0.4995 H       1  LIG1        0.1232
     22 C           0.6993    8.9109    0.3979 C.3     1  LIG1       -0.0348
     23 H          -0.0793    9.4266    0.9616 H       1  LIG1        0.0279
     24 H           0.8291    9.4496   -0.5450 H       1  LIG1        0.0279
     25 H           1.6393    8.9758    0.9507 H       1  LIG1        0.0279
     26 C          -2.2301    7.4147    0.3342 C.ar    1  LIG1        0.1855
     27 C          -2.8490    8.5753   -0.0578 C.ar    1  LIG1        0.0763
     28 C          -4.1999    8.5066    0.4461 C.ar    1  LIG1        0.0034
     29 C          -4.2834    7.3142    1.0788 C.ar    1  LIG1        0.0968
     30 O          -3.1034    6.6425    1.0245 O.2     1  LIG1       -0.4583
     31 H          -5.0869    6.8139    1.5959 H       1  LIG1        0.1032
     32 C          -2.3195    9.6182   -0.8628 C.1     1  LIG1       -0.0655
     33 C          -1.9089   10.5156   -1.5533 C.1     1  LIG1       -0.1138
     34 H          -1.5425   11.3017   -2.1723 H       1  LIG1        0.1232
     35 C          -5.2610    9.5407    0.2686 C.3     1  LIG1       -0.0355
     36 H          -6.2011    9.2211    0.7226 H       1  LIG1        0.0279
     37 H          -5.4434    9.7373   -0.7917 H       1  LIG1        0.0279
     38 H          -4.9672   10.4896    0.7263 H       1  LIG1        0.0279
@<TRIPOS>BOND
     1    34    33    1
     2     6     1    1
     3    33    32    3
     4     1     5   ar
     5     1     2   ar
     6     5     4   ar
     7    32    27    1
     8    37    35    1
     9     2     7    1
    10     2     3   ar
    11    24    22    1
    12    21    20    1
    13     4    14    1
    14     4     3   ar
    15     7     8    3
    16    20    19    3
    17    19    15    1
    18     8     9    1
    19    14    15   ar
    20    14    18   ar
    21    15    16   ar
    22    27    26   ar
    23    27    28   ar
    24    18    17   ar
    25     3    10    1
    26    17    16   ar
    27    17    26    1
    28    16    22    1
    29    35    28    1
    30    35    36    1
    31    35    38    1
    32    26    30   ar
    33    12    10    1
    34    22    25    1
    35    22    23    1
    36    28    29   ar
    37    10    11    1
    38    10    13    1
    39    30    29   ar
    40    29    31    1
