@<TRIPOS>MOLECULE
mol_data/opt/cam/geoms/mol2/12ei12ei-12ei12ei-.out
 50 53 0 0 0
SMALL
GASTEIGER

@<TRIPOS>ATOM
      1 C           0.1368    1.7257   -0.0026 C.ar    1  LIG1        0.1083
      2 C           1.4653    1.6987   -0.3018 C.ar    1  LIG1        0.0659
      3 C           1.9128    3.0690   -0.2979 C.ar    1  LIG1        0.0138
      4 C           0.8029    3.8055    0.0083 C.ar    1  LIG1        0.1750
      5 O          -0.2786    2.9892    0.1879 O.2     1  LIG1       -0.4583
      6 H          -0.6043    0.9503    0.1059 H       1  LIG1        0.1042
      7 C           2.2621    0.5514   -0.5652 C.1     1  LIG1       -0.0662
      8 C           2.9521   -0.4091   -0.7895 C.1     1  LIG1       -0.1138
      9 H           3.5570   -1.2634   -0.9884 H       1  LIG1        0.1232
     10 C           3.3025    3.5171   -0.6045 C.3     1  LIG1       -0.0348
     11 H           3.4678    4.5548   -0.3203 H       1  LIG1        0.0279
     12 H           3.5113    3.4168   -1.6747 H       1  LIG1        0.0279
     13 H           4.0254    2.8865   -0.0794 H       1  LIG1        0.0279
     14 C           0.5466    5.2127    0.1647 C.ar    1  LIG1        0.1865
     15 C          -0.6091    5.9360    0.3408 C.ar    1  LIG1        0.0771
     16 C          -0.2213    7.3182    0.4158 C.ar    1  LIG1        0.0145
     17 C           1.1375    7.3257    0.2787 C.ar    1  LIG1        0.1761
     18 O           1.6071    6.0487    0.1271 O.2     1  LIG1       -0.4470
     19 C          -1.9443    5.4623    0.4259 C.1     1  LIG1       -0.0655
     20 C          -3.0947    5.1154    0.5007 C.1     1  LIG1       -0.1138
     21 H          -4.1070    4.7901    0.5677 H       1  LIG1        0.1232
     22 C          -1.1626    8.4547    0.6367 C.3     1  LIG1       -0.0348
     23 H          -1.4840    8.4881    1.6830 H       1  LIG1        0.0279
     24 H          -2.0633    8.3162    0.0328 H       1  LIG1        0.0279
     25 H          -0.7119    9.4127    0.3845 H       1  LIG1        0.0279
     26 C           2.1277    8.3676    0.2766 C.ar    1  LIG1        0.1866
     27 C           3.4970    8.3705    0.4070 C.ar    1  LIG1        0.0771
     28 C           3.9152    9.7440    0.3252 C.ar    1  LIG1        0.0145
     29 C           2.7692   10.4664    0.1597 C.ar    1  LIG1        0.1760
     30 O           1.6841    9.6364    0.1270 O.2     1  LIG1       -0.4470
     31 C           4.3720    7.2727    0.6122 C.1     1  LIG1       -0.0655
     32 C           5.1690    6.3888    0.7978 C.1     1  LIG1       -0.1138
     33 H           5.8615    5.5975    0.9704 H       1  LIG1        0.1232
     34 C           5.3273   10.2181    0.4214 C.3     1  LIG1       -0.0348
     35 H           5.6426   10.2970    1.4669 H       1  LIG1        0.0279
     36 H           5.4513   11.1979   -0.0376 H       1  LIG1        0.0279
     37 H           5.9969    9.5053   -0.0652 H       1  LIG1        0.0279
     38 C           2.5038   11.8728    0.0165 C.ar    1  LIG1        0.1855
     39 C           1.3907   12.5975   -0.3342 C.ar    1  LIG1        0.0763
     40 C           1.7824   13.9872   -0.2876 C.ar    1  LIG1        0.0034
     41 C           3.0827   13.9850    0.0779 C.ar    1  LIG1        0.0968
     42 O           3.5358   12.7137    0.2696 O.2     1  LIG1       -0.4583
     43 H           3.8030   14.7705    0.2424 H       1  LIG1        0.1032
     44 C           0.1045   12.1282   -0.7049 C.1     1  LIG1       -0.0655
     45 C          -1.0042   11.7934   -1.0365 C.1     1  LIG1       -0.1138
     46 H          -1.9785   11.4827   -1.3358 H       1  LIG1        0.1232
     47 C           0.9057   15.1554   -0.5916 C.3     1  LIG1       -0.0355
     48 H           0.0471   15.1878    0.0851 H       1  LIG1        0.0279
     49 H           0.5107   15.0940   -1.6096 H       1  LIG1        0.0279
     50 H           1.4531   16.0949   -0.4936 H       1  LIG1        0.0279
@<TRIPOS>BOND
     1    12    10    1
     2    49    47    1
     3    46    45    1
     4    45    44    3
     5     9     8    1
     6     8     7    3
     7    44    39    1
     8    10    11    1
     9    10     3    1
    10    10    13    1
    11    47    50    1
    12    47    40    1
    13    47    48    1
    14     7     2    1
    15    39    40   ar
    16    39    38   ar
    17     2     3   ar
    18     2     1   ar
    19     3     4   ar
    20    40    41   ar
    21    37    34    1
    22    36    34    1
    23     1     6    1
    24     1     5   ar
    25     4    14    1
    26     4     5   ar
    27    38    29    1
    28    38    42   ar
    29    24    22    1
    30    41    43    1
    31    41    42   ar
    32    30    29   ar
    33    30    26   ar
    34    18    14   ar
    35    18    17   ar
    36    29    28   ar
    37    14    15   ar
    38    26    17    1
    39    26    27   ar
    40    17    16   ar
    41    28    27   ar
    42    28    34    1
    43    15    16   ar
    44    15    19    1
    45    25    22    1
    46    27    31    1
    47    16    22    1
    48    34    35    1
    49    19    20    3
    50    20    21    1
    51    31    32    3
    52    22    23    1
    53    32    33    1
