@<TRIPOS>MOLECULE
mol_data/opt/cam/geoms/mol2/12ei12ei.out
 26 27 0 0 0
SMALL
GASTEIGER

@<TRIPOS>ATOM
      1 C           0.2573    1.8271   -0.6560 C.ar    1  LIG1        0.1083
      2 C           1.5436    1.7922   -0.2093 C.ar    1  LIG1        0.0659
      3 C           1.8800    3.1448    0.1620 C.ar    1  LIG1        0.0138
      4 C           0.7647    3.8797   -0.1099 C.ar    1  LIG1        0.1750
      5 O          -0.2298    3.0784   -0.6042 O.2     1  LIG1       -0.4583
      6 H          -0.4085    1.0618   -1.0215 H       1  LIG1        0.1042
      7 C           2.3834    0.6504   -0.1008 C.1     1  LIG1       -0.0662
      8 C           3.1085   -0.3051    0.0010 C.1     1  LIG1       -0.1138
      9 H           3.7451   -1.1552    0.0871 H       1  LIG1        0.1232
     10 C           3.1733    3.5886    0.7579 C.3     1  LIG1       -0.0348
     11 H           3.0461    4.5016    1.3416 H       1  LIG1        0.0279
     12 H           3.9185    3.7982   -0.0146 H       1  LIG1        0.0279
     13 H           3.5758    2.8069    1.4062 H       1  LIG1        0.0279
     14 C           0.4474    5.2820    0.0295 C.ar    1  LIG1        0.1855
     15 C           1.1709    6.4317   -0.1632 C.ar    1  LIG1        0.0763
     16 C           0.2904    7.5273    0.1670 C.ar    1  LIG1        0.0034
     17 C          -0.8826    6.9495    0.5116 C.ar    1  LIG1        0.0968
     18 O          -0.8061    5.5942    0.4380 O.2     1  LIG1       -0.4583
     19 H          -1.8352    7.3516    0.8187 H       1  LIG1        0.1032
     20 C           2.4958    6.5552   -0.6585 C.1     1  LIG1       -0.0655
     21 C           3.6122    6.6981   -1.0872 C.1     1  LIG1       -0.1138
     22 H           4.5973    6.8182   -1.4753 H       1  LIG1        0.1232
     23 C           0.6290    8.9794    0.1077 C.3     1  LIG1       -0.0355
     24 H          -0.2307    9.5950    0.3802 H       1  LIG1        0.0279
     25 H           0.9495    9.2667   -0.8977 H       1  LIG1        0.0279
     26 H           1.4501    9.2207    0.7888 H       1  LIG1        0.0279
@<TRIPOS>BOND
     1    22    21    1
     2    21    20    3
     3     6     1    1
     4    25    23    1
     5    20    15    1
     6     1     5   ar
     7     1     2   ar
     8     5     4   ar
     9     2     7    1
    10     2     3   ar
    11    15    14   ar
    12    15    16   ar
    13     4    14    1
    14     4     3   ar
    15     7     8    3
    16    12    10    1
    17     8     9    1
    18    14    18   ar
    19    23    16    1
    20    23    24    1
    21    23    26    1
    22     3    10    1
    23    16    17   ar
    24    18    17   ar
    25    17    19    1
    26    10    11    1
    27    10    13    1
