@<TRIPOS>MOLECULE
mol_data/opt/cam/geoms/mol2/12ei12ei-12ei-12ei-.out
 50 53 0 0 0
SMALL
GASTEIGER

@<TRIPOS>ATOM
      1 C          -0.0202    1.7647   -0.5472 C.ar    1  LIG1        0.1083
      2 C           1.3272    1.7206   -0.7426 C.ar    1  LIG1        0.0659
      3 C           1.8084    3.0690   -0.5747 C.ar    1  LIG1        0.0138
      4 C           0.6957    3.8105   -0.2928 C.ar    1  LIG1        0.1750
      5 O          -0.4176    3.0195   -0.2750 O.2     1  LIG1       -0.4583
      6 H          -0.7874    1.0076   -0.5694 H       1  LIG1        0.1042
      7 C           2.1128    0.5747   -1.0438 C.1     1  LIG1       -0.0662
      8 C           2.7936   -0.3849   -1.2976 C.1     1  LIG1       -0.1138
      9 H           3.3909   -1.2380   -1.5232 H       1  LIG1        0.1232
     10 C           3.2331    3.4972   -0.7015 C.3     1  LIG1       -0.0348
     11 H           3.3958    4.4873   -0.2787 H       1  LIG1        0.0279
     12 H           3.5369    3.5245   -1.7531 H       1  LIG1        0.0279
     13 H           3.8879    2.7817   -0.1977 H       1  LIG1        0.0279
     14 C           0.4813    5.2064   -0.0182 C.ar    1  LIG1        0.1865
     15 C          -0.6219    5.9367    0.3547 C.ar    1  LIG1        0.0771
     16 C          -0.1802    7.2997    0.4943 C.ar    1  LIG1        0.0145
     17 C           1.1460    7.2909    0.1800 C.ar    1  LIG1        0.1761
     18 O           1.5525    6.0193   -0.1293 O.2     1  LIG1       -0.4470
     19 C          -1.9411    5.4762    0.6033 C.1     1  LIG1       -0.0655
     20 C          -3.0735    5.1359    0.8297 C.1     1  LIG1       -0.1138
     21 H          -4.0714    4.8172    1.0242 H       1  LIG1        0.1232
     22 C          -1.0299    8.4383    0.9475 C.3     1  LIG1       -0.0348
     23 H          -1.7733    8.0851    1.6655 H       1  LIG1        0.0279
     24 H          -1.5651    8.8949    0.1103 H       1  LIG1        0.0279
     25 H          -0.4284    9.2198    1.4136 H       1  LIG1        0.0279
     26 C           2.1692    8.3046    0.1297 C.ar    1  LIG1        0.1866
     27 C           2.1696    9.6330   -0.2204 C.ar    1  LIG1        0.0771
     28 C           3.5148   10.1083   -0.0287 C.ar    1  LIG1        0.0145
     29 C           4.2275    9.0235    0.3866 C.ar    1  LIG1        0.1760
     30 O           3.4161    7.9279    0.4929 O.2     1  LIG1       -0.4470
     31 C           1.0900   10.4046   -0.7247 C.1     1  LIG1       -0.0655
     32 C           0.2024   11.0885   -1.1663 C.1     1  LIG1       -0.1138
     33 H          -0.5854   11.6847   -1.5656 H       1  LIG1        0.1232
     34 C           3.9768   11.5114   -0.2336 C.3     1  LIG1       -0.0348
     35 H           3.1907   12.2122    0.0571 H       1  LIG1        0.0279
     36 H           4.2225   11.7020   -1.2821 H       1  LIG1        0.0279
     37 H           4.8724   11.7206    0.3529 H       1  LIG1        0.0279
     38 C           5.6157    8.8265    0.7306 C.ar    1  LIG1        0.1855
     39 C           6.7901    9.3239    0.2232 C.ar    1  LIG1        0.0763
     40 C           7.8508    8.7571    1.0216 C.ar    1  LIG1        0.0034
     41 C           7.2315    7.9611    1.9227 C.ar    1  LIG1        0.0968
     42 O           5.8822    7.9924    1.7646 O.2     1  LIG1       -0.4583
     43 H           7.5986    7.3250    2.7127 H       1  LIG1        0.1032
     44 C           6.9658   10.1660   -0.9062 C.1     1  LIG1       -0.0655
     45 C           7.1544   10.8687   -1.8661 C.1     1  LIG1       -0.1138
     46 H           7.3150   11.4832   -2.7216 H       1  LIG1        0.1232
     47 C           9.3125    9.0016    0.8472 C.3     1  LIG1       -0.0355
     48 H           9.5543   10.0593    0.9852 H       1  LIG1        0.0279
     49 H           9.6389    8.7251   -0.1594 H       1  LIG1        0.0279
     50 H           9.8964    8.4229    1.5657 H       1  LIG1        0.0279
@<TRIPOS>BOND
     1    46    45    1
     2    45    44    3
     3    12    10    1
     4    33    32    1
     5     9     8    1
     6     8     7    3
     7    36    34    1
     8    32    31    3
     9     7     2    1
    10    44    39    1
    11     2     3   ar
    12     2     1   ar
    13    31    27    1
    14    10     3    1
    15    10    11    1
    16    10    13    1
    17     3     4   ar
    18     6     1    1
    19     1     5   ar
    20     4     5   ar
    21     4    14    1
    22    34    28    1
    23    34    35    1
    24    34    37    1
    25    27    28   ar
    26    27    26   ar
    27    49    47    1
    28    18    14   ar
    29    18    17   ar
    30    28    29   ar
    31    14    15   ar
    32    24    22    1
    33    26    17    1
    34    26    30   ar
    35    17    16   ar
    36    39    38   ar
    37    39    40   ar
    38    15    16   ar
    39    15    19    1
    40    29    30   ar
    41    29    38    1
    42    16    22    1
    43    19    20    3
    44    38    42   ar
    45    20    21    1
    46    47    48    1
    47    47    40    1
    48    47    50    1
    49    22    25    1
    50    22    23    1
    51    40    41   ar
    52    42    41   ar
    53    41    43    1
