@<TRIPOS>MOLECULE
mol_data/opt/cam/geoms/mol2/12ei12ei-12ei.out
 38 40 0 0 0
SMALL
GASTEIGER

@<TRIPOS>ATOM
      1 C           0.1091    1.7696    0.1397 C.ar    1  LIG1        0.1083
      2 C           1.4568    1.7122   -0.0472 C.ar    1  LIG1        0.0659
      3 C           1.9160    3.0761   -0.1318 C.ar    1  LIG1        0.0138
      4 C           0.7925    3.8402    0.0151 C.ar    1  LIG1        0.1750
      5 O          -0.3079    3.0464    0.1800 O.2     1  LIG1       -0.4583
      6 H          -0.6462    1.0093    0.2577 H       1  LIG1        0.1042
      7 C           2.2613    0.5438   -0.1398 C.1     1  LIG1       -0.0662
      8 C           2.9579   -0.4346   -0.2194 C.1     1  LIG1       -0.1138
      9 H           3.5687   -1.3048   -0.2900 H       1  LIG1        0.1232
     10 C           3.3312    3.4902   -0.3596 C.3     1  LIG1       -0.0348
     11 H           3.4712    4.5594   -0.2114 H       1  LIG1        0.0279
     12 H           3.6451    3.2390   -1.3780 H       1  LIG1        0.0279
     13 H           3.9962    2.9496    0.3201 H       1  LIG1        0.0279
     14 C           0.5382    5.2567    0.0220 C.ar    1  LIG1        0.1865
     15 C          -0.6198    5.9967    0.0593 C.ar    1  LIG1        0.0771
     16 C          -0.2235    7.3787    0.0373 C.ar    1  LIG1        0.0145
     17 C           1.1402    7.3680   -0.0142 C.ar    1  LIG1        0.1760
     18 O           1.6070    6.0832   -0.0227 O.2     1  LIG1       -0.4470
     19 C          -1.9613    5.5362    0.1137 C.1     1  LIG1       -0.0655
     20 C          -3.1166    5.2011    0.1609 C.1     1  LIG1       -0.1138
     21 H          -4.1334    4.8855    0.2016 H       1  LIG1        0.1232
     22 C          -1.1578    8.5427    0.0620 C.3     1  LIG1       -0.0348
     23 H          -2.0593    8.2869    0.6224 H       1  LIG1        0.0279
     24 H          -1.4695    8.8173   -0.9509 H       1  LIG1        0.0279
     25 H          -0.6916    9.4192    0.5112 H       1  LIG1        0.0279
     26 C           2.1252    8.4151   -0.0569 C.ar    1  LIG1        0.1855
     27 C           3.4891    8.4488    0.1037 C.ar    1  LIG1        0.0763
     28 C           3.8814    9.8291   -0.0624 C.ar    1  LIG1        0.0034
     29 C           2.7366   10.5051   -0.3009 C.ar    1  LIG1        0.0968
     30 O           1.6632    9.6650   -0.3044 O.2     1  LIG1       -0.4583
     31 H           2.5199   11.5454   -0.4841 H       1  LIG1        0.1032
     32 C           4.3774    7.3851    0.4064 C.1     1  LIG1       -0.0655
     33 C           5.1847    6.5316    0.6729 C.1     1  LIG1       -0.1138
     34 H           5.8874    5.7681    0.9151 H       1  LIG1        0.1232
     35 C           5.2726   10.3611    0.0246 C.3     1  LIG1       -0.0355
     36 H           5.2913   11.4421   -0.1275 H       1  LIG1        0.0279
     37 H           5.9169    9.8988   -0.7285 H       1  LIG1        0.0279
     38 H           5.7139   10.1452    1.0016 H       1  LIG1        0.0279
@<TRIPOS>BOND
     1    12    10    1
     2    24    22    1
     3    37    35    1
     4    31    29    1
     5    10    11    1
     6    10     3    1
     7    10    13    1
     8    30    29   ar
     9    30    26   ar
    10    29    28   ar
    11     9     8    1
    12     8     7    3
    13     7     2    1
    14     3     2   ar
    15     3     4   ar
    16    36    35    1
    17    28    35    1
    18    28    27   ar
    19    26    17    1
    20    26    27   ar
    21     2     1   ar
    22    18    17   ar
    23    18    14   ar
    24    17    16   ar
    25     4    14    1
    26     4     5   ar
    27    14    15   ar
    28    35    38    1
    29    16    15   ar
    30    16    22    1
    31    15    19    1
    32    22    25    1
    33    22    23    1
    34    27    32    1
    35    19    20    3
    36     1     5   ar
    37     1     6    1
    38    20    21    1
    39    32    33    3
    40    33    34    1
