@<TRIPOS>MOLECULE
mol_data/opt/cam/geoms/mol2/12ei12ei-12ei-12ei.out
 50 53 0 0 0
SMALL
GASTEIGER

@<TRIPOS>ATOM
      1 C          -0.0770    1.7362   -0.2225 C.ar    1  LIG1        0.1083
      2 C           1.2335    1.6905   -0.5928 C.ar    1  LIG1        0.0659
      3 C           1.7171    3.0478   -0.5536 C.ar    1  LIG1        0.0138
      4 C           0.6421    3.7948   -0.1604 C.ar    1  LIG1        0.1750
      5 O          -0.4495    3.0005    0.0419 O.2     1  LIG1       -0.4583
      6 H          -0.8313    0.9748   -0.1069 H       1  LIG1        0.1042
      7 C           1.9846    0.5344   -0.9402 C.1     1  LIG1       -0.0662
      8 C           2.6364   -0.4337   -1.2347 C.1     1  LIG1       -0.1138
      9 H           3.2067   -1.2948   -1.4967 H       1  LIG1        0.1232
     10 C           3.1032    3.4864   -0.8953 C.3     1  LIG1       -0.0348
     11 H           3.3969    4.3799   -0.3444 H       1  LIG1        0.0279
     12 H           3.1886    3.7185   -1.9620 H       1  LIG1        0.0279
     13 H           3.8123    2.6831   -0.6823 H       1  LIG1        0.0279
     14 C           0.4609    5.2015    0.0735 C.ar    1  LIG1        0.1865
     15 C          -0.5890    5.9597    0.5350 C.ar    1  LIG1        0.0771
     16 C          -0.1256    7.3220    0.5631 C.ar    1  LIG1        0.0145
     17 C           1.1572    7.2840    0.1024 C.ar    1  LIG1        0.1761
     18 O           1.5179    5.9961   -0.1940 O.2     1  LIG1       -0.4470
     19 C          -1.8741    5.5235    0.9498 C.1     1  LIG1       -0.0655
     20 C          -2.9753    5.2027    1.3157 C.1     1  LIG1       -0.1138
     21 H          -3.9464    4.9014    1.6341 H       1  LIG1        0.1232
     22 C          -0.9103    8.4901    1.0568 C.3     1  LIG1       -0.0348
     23 H          -1.5717    8.1784    1.8681 H       1  LIG1        0.0279
     24 H          -1.5322    8.9170    0.2650 H       1  LIG1        0.0279
     25 H          -0.2541    9.2831    1.4177 H       1  LIG1        0.0279
     26 C           2.1771    8.2794   -0.1032 C.ar    1  LIG1        0.1866
     27 C           2.1591    9.5937   -0.5065 C.ar    1  LIG1        0.0771
     28 C           3.5234   10.0475   -0.5005 C.ar    1  LIG1        0.0145
     29 C           4.2603    8.9644   -0.1129 C.ar    1  LIG1        0.1760
     30 O           3.4534    7.8954    0.1319 O.2     1  LIG1       -0.4470
     31 C           1.0384   10.3594   -0.9235 C.1     1  LIG1       -0.0655
     32 C           0.1133   11.0351   -1.2954 C.1     1  LIG1       -0.1138
     33 H          -0.7095   11.6229   -1.6317 H       1  LIG1        0.1232
     34 C           3.9926   11.4146   -0.8778 C.3     1  LIG1       -0.0348
     35 H           3.1471   12.1039   -0.9106 H       1  LIG1        0.0279
     36 H           4.4649   11.4144   -1.8647 H       1  LIG1        0.0279
     37 H           4.7301   11.7927   -0.1679 H       1  LIG1        0.0279
     38 C           5.6707    8.7600    0.0719 C.ar    1  LIG1        0.1855
     39 C           6.4238    7.7010    0.5160 C.ar    1  LIG1        0.0763
     40 C           7.7996    8.1370    0.4630 C.ar    1  LIG1        0.0034
     41 C           7.7609    9.4058   -0.0003 C.ar    1  LIG1        0.0968
     42 O           6.4792    9.8004   -0.2443 O.2     1  LIG1       -0.4583
     43 H           8.5255   10.1377   -0.2065 H       1  LIG1        0.1032
     44 C           5.9853    6.4267    0.9591 C.1     1  LIG1       -0.0655
     45 C           5.6699    5.3323    1.3508 C.1     1  LIG1       -0.1138
     46 H           5.3742    4.3703    1.7008 H       1  LIG1        0.1232
     47 C           8.9909    7.3265    0.8503 C.3     1  LIG1       -0.0355
     48 H           9.9142    7.8941    0.7176 H       1  LIG1        0.0279
     49 H           9.0588    6.4170    0.2468 H       1  LIG1        0.0279
     50 H           8.9285    7.0141    1.8965 H       1  LIG1        0.0279
@<TRIPOS>BOND
     1    12    10    1
     2    36    34    1
     3    33    32    1
     4     9     8    1
     5    32    31    3
     6     8     7    3
     7     7     2    1
     8    31    27    1
     9    35    34    1
    10    10    13    1
    11    10     3    1
    12    10    11    1
    13    34    28    1
    14    34    37    1
    15     2     3   ar
    16     2     1   ar
    17     3     4   ar
    18    27    28   ar
    19    27    26   ar
    20    28    29   ar
    21    42    41   ar
    22    42    38   ar
    23     1     6    1
    24     1     5   ar
    25    43    41    1
    26    18    14   ar
    27    18    17   ar
    28     4     5   ar
    29     4    14    1
    30    29    38    1
    31    29    30   ar
    32    26    17    1
    33    26    30   ar
    34    41    40   ar
    35    38    39   ar
    36    14    15   ar
    37    17    16   ar
    38    49    47    1
    39    24    22    1
    40    40    39   ar
    41    40    47    1
    42    39    44    1
    43    15    16   ar
    44    15    19    1
    45    16    22    1
    46    48    47    1
    47    47    50    1
    48    19    20    3
    49    44    45    3
    50    22    25    1
    51    22    23    1
    52    20    21    1
    53    45    46    1
