@<TRIPOS>MOLECULE
mol_data/opt/cam/geoms/mol2/12ei12ei12ei12ei-.out
 50 53 0 0 0
SMALL
GASTEIGER

@<TRIPOS>ATOM
      1 C           1.0539    2.2021   -1.9821 C.ar    1  LIG1        0.1083
      2 C           1.9856    1.9531   -1.0197 C.ar    1  LIG1        0.0659
      3 C           2.0149    3.1201   -0.1730 C.ar    1  LIG1        0.0138
      4 C           1.1028    3.9778   -0.7131 C.ar    1  LIG1        0.1750
      5 O           0.5104    3.4185   -1.8135 O.2     1  LIG1       -0.4583
      6 H           0.6907    1.6193   -2.8134 H       1  LIG1        0.1042
      7 C           2.7580    0.7706   -0.8588 C.1     1  LIG1       -0.0662
      8 C           3.4185   -0.2239   -0.7046 C.1     1  LIG1       -0.1138
      9 H           4.0012   -1.1066   -0.5756 H       1  LIG1        0.1232
     10 C           2.8485    3.2848    1.0529 C.3     1  LIG1       -0.0348
     11 H           2.3995    4.0005    1.7431 H       1  LIG1        0.0279
     12 H           3.8492    3.6523    0.8091 H       1  LIG1        0.0279
     13 H           2.9606    2.3246    1.5616 H       1  LIG1        0.0279
     14 C           0.6548    5.3015   -0.3503 C.ar    1  LIG1        0.1865
     15 C           1.2980    6.4059    0.1524 C.ar    1  LIG1        0.0771
     16 C           0.2931    7.4194    0.3360 C.ar    1  LIG1        0.0145
     17 C          -0.8701    6.8581   -0.1021 C.ar    1  LIG1        0.1761
     18 O          -0.6590    5.5712   -0.5105 O.2     1  LIG1       -0.4470
     19 C           2.6856    6.5647    0.4087 C.1     1  LIG1       -0.0655
     20 C           3.8569    6.7383    0.6285 C.1     1  LIG1       -0.1138
     21 H           4.8959    6.8889    0.8110 H       1  LIG1        0.1232
     22 C           0.5224    8.7746    0.9148 C.3     1  LIG1       -0.0348
     23 H          -0.3935    9.1778    1.3488 H       1  LIG1        0.0279
     24 H           0.8606    9.4830    0.1534 H       1  LIG1        0.0279
     25 H           1.2906    8.7263    1.6899 H       1  LIG1        0.0279
     26 C          -2.2250    7.3434   -0.1947 C.ar    1  LIG1        0.1866
     27 C          -2.7711    8.5657   -0.5018 C.ar    1  LIG1        0.0771
     28 C          -4.1987    8.4169   -0.4088 C.ar    1  LIG1        0.0145
     29 C          -4.4022    7.1101   -0.0660 C.ar    1  LIG1        0.1760
     30 O          -3.2133    6.4584    0.0671 O.2     1  LIG1       -0.4470
     31 C          -2.0935    9.7416   -0.9196 C.1     1  LIG1       -0.0655
     32 C          -1.5538   10.7521   -1.2912 C.1     1  LIG1       -0.1138
     33 H          -1.0705   11.6403   -1.6273 H       1  LIG1        0.1232
     34 C          -5.1947    9.4997   -0.6626 C.3     1  LIG1       -0.0348
     35 H          -5.2918   10.1548    0.2095 H       1  LIG1        0.0279
     36 H          -6.1793    9.0912   -0.8845 H       1  LIG1        0.0279
     37 H          -4.8688   10.1226   -1.4991 H       1  LIG1        0.0279
     38 C          -5.5816    6.3193    0.1701 C.ar    1  LIG1        0.1855
     39 C          -5.7800    4.9871    0.4370 C.ar    1  LIG1        0.0763
     40 C          -7.2066    4.8135    0.5781 C.ar    1  LIG1        0.0034
     41 C          -7.7422    6.0391    0.3865 C.ar    1  LIG1        0.0968
     42 O          -6.7725    6.9649    0.1399 O.2     1  LIG1       -0.4583
     43 H          -8.7548    6.4097    0.3934 H       1  LIG1        0.1032
     44 C          -4.8123    3.9561    0.5513 C.1     1  LIG1       -0.0655
     45 C          -4.0263    3.0502    0.6549 C.1     1  LIG1       -0.1138
     46 H          -3.3105    2.2655    0.7385 H       1  LIG1        0.1232
     47 C          -7.9074    3.5300    0.8738 C.3     1  LIG1       -0.0355
     48 H          -7.5701    3.1104    1.8257 H       1  LIG1        0.0279
     49 H          -7.6993    2.7837    0.1020 H       1  LIG1        0.0279
     50 H          -8.9884    3.6739    0.9275 H       1  LIG1        0.0279
@<TRIPOS>BOND
     1     6     1    1
     2     1     5   ar
     3     1     2   ar
     4     5     4   ar
     5    33    32    1
     6    37    34    1
     7    32    31    3
     8     2     7    1
     9     2     3   ar
    10    31    27    1
    11    36    34    1
    12     7     8    3
    13     4    14    1
    14     4     3   ar
    15     8     9    1
    16    34    28    1
    17    34    35    1
    18    18    14   ar
    19    18    17   ar
    20    27    28   ar
    21    27    26   ar
    22    28    29   ar
    23    14    15   ar
    24    26    17    1
    25    26    30   ar
    26     3    10    1
    27    17    16   ar
    28    29    30   ar
    29    29    38    1
    30    49    47    1
    31    42    38   ar
    32    42    41   ar
    33    15    16   ar
    34    15    19    1
    35    24    22    1
    36    38    39   ar
    37    16    22    1
    38    41    43    1
    39    41    40   ar
    40    19    20    3
    41    39    44    1
    42    39    40   ar
    43    44    45    3
    44    40    47    1
    45    20    21    1
    46    45    46    1
    47    12    10    1
    48    47    50    1
    49    47    48    1
    50    22    23    1
    51    22    25    1
    52    10    13    1
    53    10    11    1
