@<TRIPOS>MOLECULE
mol_data/opt/cam/geoms/mol2/12ei12ei-12ei12ei.out
 50 53 0 0 0
SMALL
GASTEIGER

@<TRIPOS>ATOM
      1 C           0.1283    1.7302   -0.2432 C.ar    1  LIG1        0.1083
      2 C           1.4842    1.6922   -0.3664 C.ar    1  LIG1        0.0659
      3 C           1.9393    3.0580   -0.2945 C.ar    1  LIG1        0.0138
      4 C           0.8055    3.8034   -0.1310 C.ar    1  LIG1        0.1750
      5 O          -0.2974    2.9966   -0.1002 O.2     1  LIG1       -0.4583
      6 H          -0.6275    0.9615   -0.2380 H       1  LIG1        0.1042
      7 C           2.2989    0.5390   -0.5313 C.1     1  LIG1       -0.0662
      8 C           3.0043   -0.4264   -0.6701 C.1     1  LIG1       -0.1138
      9 H           3.6229   -1.2851   -0.7940 H       1  LIG1        0.1232
     10 C           3.3617    3.4936   -0.4095 C.3     1  LIG1       -0.0348
     11 H           3.4902    4.5394   -0.1368 H       1  LIG1        0.0279
     12 H           3.7228    3.3580   -1.4342 H       1  LIG1        0.0279
     13 H           3.9969    2.8793    0.2350 H       1  LIG1        0.0279
     14 C           0.5435    5.2122    0.0006 C.ar    1  LIG1        0.1865
     15 C          -0.6194    5.9440    0.0507 C.ar    1  LIG1        0.0771
     16 C          -0.2314    7.3221    0.1795 C.ar    1  LIG1        0.0145
     17 C           1.1339    7.3180    0.1961 C.ar    1  LIG1        0.1761
     18 O           1.6084    6.0397    0.0885 O.2     1  LIG1       -0.4470
     19 C          -1.9596    5.4806   -0.0074 C.1     1  LIG1       -0.0655
     20 C          -3.1144    5.1431   -0.0518 C.1     1  LIG1       -0.1138
     21 H          -4.1309    4.8269   -0.0932 H       1  LIG1        0.1232
     22 C          -1.1794    8.4713    0.2714 C.3     1  LIG1       -0.0348
     23 H          -1.9965    8.2303    0.9561 H       1  LIG1        0.0279
     24 H          -1.6300    8.6780   -0.7046 H       1  LIG1        0.0279
     25 H          -0.6816    9.3783    0.6102 H       1  LIG1        0.0279
     26 C           2.1154    8.3619    0.3071 C.ar    1  LIG1        0.1866
     27 C           3.4685    8.3780    0.5522 C.ar    1  LIG1        0.0771
     28 C           3.8659    9.7621    0.5618 C.ar    1  LIG1        0.0145
     29 C           2.7312   10.4726    0.3103 C.ar    1  LIG1        0.1760
     30 O           1.6651    9.6265    0.1552 O.2     1  LIG1       -0.4470
     31 C           4.3343    7.2859    0.8179 C.1     1  LIG1       -0.0655
     32 C           5.1192    6.4058    1.0635 C.1     1  LIG1       -0.1138
     33 H           5.8016    5.6178    1.2842 H       1  LIG1        0.1232
     34 C           5.2398   10.2643    0.8510 C.3     1  LIG1       -0.0348
     35 H           5.2137   11.2831    1.2398 H       1  LIG1        0.0279
     36 H           5.8588   10.2754   -0.0506 H       1  LIG1        0.0279
     37 H           5.7282    9.6165    1.5824 H       1  LIG1        0.0279
     38 C           2.4382   11.8802    0.1989 C.ar    1  LIG1        0.1855
     39 C           3.1321   12.9535   -0.3019 C.ar    1  LIG1        0.0763
     40 C           2.2921   14.1105   -0.1009 C.ar    1  LIG1        0.0034
     41 C           1.1673   13.6383    0.4820 C.ar    1  LIG1        0.0968
     42 O           1.2377   12.2937    0.6738 O.2     1  LIG1       -0.4583
     43 H           0.2552   14.1134    0.8072 H       1  LIG1        0.1032
     44 C           4.3887   12.9507   -0.9622 C.1     1  LIG1       -0.0655
     45 C           5.4456   12.9863   -1.5389 C.1     1  LIG1       -0.1138
     46 H           6.3772   13.0094   -2.0557 H       1  LIG1        0.1232
     47 C           2.6192   15.5139   -0.4880 C.3     1  LIG1       -0.0355
     48 H           1.7942   16.1893   -0.2528 H       1  LIG1        0.0279
     49 H           2.8255   15.5869   -1.5595 H       1  LIG1        0.0279
     50 H           3.5106   15.8696    0.0366 H       1  LIG1        0.0279
@<TRIPOS>BOND
     1    46    45    1
     2    49    47    1
     3    45    44    3
     4    12    10    1
     5    44    39    1
     6     9     8    1
     7    24    22    1
     8     8     7    3
     9     7     2    1
    10    47    48    1
    11    47    40    1
    12    47    50    1
    13    10     3    1
    14    10    11    1
    15    10    13    1
    16     2     3   ar
    17     2     1   ar
    18    39    40   ar
    19    39    38   ar
    20     3     4   ar
    21     1     6    1
    22     1     5   ar
    23     4     5   ar
    24     4    14    1
    25    40    41   ar
    26    21    20    1
    27    20    19    3
    28    36    34    1
    29    19    15    1
    30    14    15   ar
    31    14    18   ar
    32    15    16   ar
    33    18    17   ar
    34    30    26   ar
    35    30    29   ar
    36    16    17   ar
    37    16    22    1
    38    17    26    1
    39    38    29    1
    40    38    42   ar
    41    22    25    1
    42    22    23    1
    43    26    27   ar
    44    29    28   ar
    45    41    42   ar
    46    41    43    1
    47    27    28   ar
    48    27    31    1
    49    28    34    1
    50    31    32    3
    51    34    35    1
    52    34    37    1
    53    32    33    1
