@<TRIPOS>MOLECULE
mol_data/opt/cam/geoms/mol2/12ei12ei12ei12ei.out
 50 53 0 0 0
SMALL
GASTEIGER

@<TRIPOS>ATOM
      1 C           0.8742    2.1777   -2.0047 C.ar    1  LIG1        0.1083
      2 C           1.8910    1.9315   -1.1319 C.ar    1  LIG1        0.0659
      3 C           2.0009    3.1026   -0.2977 C.ar    1  LIG1        0.0138
      4 C           1.0444    3.9598   -0.7556 C.ar    1  LIG1        0.1750
      5 O           0.3513    3.3964   -1.7932 O.2     1  LIG1       -0.4583
      6 H           0.4336    1.5910   -2.7949 H       1  LIG1        0.1042
      7 C           2.6730    0.7483   -1.0373 C.1     1  LIG1       -0.0662
      8 C           3.3439   -0.2465   -0.9402 C.1     1  LIG1       -0.1138
      9 H           3.9345   -1.1298   -0.8611 H       1  LIG1        0.1232
     10 C           2.9448    3.2705    0.8448 C.3     1  LIG1       -0.0348
     11 H           2.5622    3.9881    1.5720 H       1  LIG1        0.0279
     12 H           3.9187    3.6369    0.5082 H       1  LIG1        0.0279
     13 H           3.1033    2.3115    1.3435 H       1  LIG1        0.0279
     14 C           0.6344    5.2866   -0.3607 C.ar    1  LIG1        0.1865
     15 C           1.3222    6.3906    0.0799 C.ar    1  LIG1        0.0771
     16 C           0.3401    7.4090    0.3438 C.ar    1  LIG1        0.0145
     17 C          -0.8579    6.8510    0.0094 C.ar    1  LIG1        0.1761
     18 O          -0.6873    5.5610   -0.4093 O.2     1  LIG1       -0.4470
     19 C           2.7271    6.5468    0.2144 C.1     1  LIG1       -0.0655
     20 C           3.9132    6.7195    0.3309 C.1     1  LIG1       -0.1138
     21 H           4.9644    6.8689    0.4216 H       1  LIG1        0.1232
     22 C           0.6239    8.7658    0.8941 C.3     1  LIG1       -0.0348
     23 H          -0.2549    9.1830    1.3873 H       1  LIG1        0.0279
     24 H           0.9166    9.4639    0.1049 H       1  LIG1        0.0279
     25 H           1.4438    8.7145    1.6142 H       1  LIG1        0.0279
     26 C          -2.2147    7.3428    0.0257 C.ar    1  LIG1        0.1866
     27 C          -2.7750    8.5642   -0.2577 C.ar    1  LIG1        0.0771
     28 C          -4.1889    8.4326   -0.0230 C.ar    1  LIG1        0.0145
     29 C          -4.3742    7.1347    0.3498 C.ar    1  LIG1        0.1760
     30 O          -3.1807    6.4707    0.3899 O.2     1  LIG1       -0.4470
     31 C          -2.1251    9.7324   -0.7361 C.1     1  LIG1       -0.0655
     32 C          -1.6100   10.7384   -1.1521 C.1     1  LIG1       -0.1138
     33 H          -1.1498   11.6218   -1.5307 H       1  LIG1        0.1232
     34 C          -5.1961    9.5249   -0.1517 C.3     1  LIG1       -0.0348
     35 H          -6.0787    9.3200    0.4557 H       1  LIG1        0.0279
     36 H          -5.5323    9.6388   -1.1861 H       1  LIG1        0.0279
     37 H          -4.7615   10.4762    0.1640 H       1  LIG1        0.0279
     38 C          -5.5454    6.3683    0.7048 C.ar    1  LIG1        0.1855
     39 C          -6.8357    6.3530    0.2372 C.ar    1  LIG1        0.0763
     40 C          -7.5415    5.3690    1.0228 C.ar    1  LIG1        0.0034
     41 C          -6.6205    4.8689    1.8776 C.ar    1  LIG1        0.0968
     42 O          -5.4106    5.4621    1.7027 O.2     1  LIG1       -0.4583
     43 H          -6.6665    4.1092    2.6420 H       1  LIG1        0.1032
     44 C          -7.3795    7.0880   -0.8489 C.1     1  LIG1       -0.0655
     45 C          -7.8724    7.6849   -1.7716 C.1     1  LIG1       -0.1138
     46 H          -8.2995    8.2090   -2.5953 H       1  LIG1        0.1232
     47 C          -8.9781    4.9919    0.8793 C.3     1  LIG1       -0.0355
     48 H          -9.2485    4.1992    1.5797 H       1  LIG1        0.0279
     49 H          -9.1916    4.6395   -0.1338 H       1  LIG1        0.0279
     50 H          -9.6312    5.8491    1.0665 H       1  LIG1        0.0279
@<TRIPOS>BOND
     1     6     1    1
     2    46    45    1
     3     1     5   ar
     4     1     2   ar
     5     5     4   ar
     6    45    44    3
     7    33    32    1
     8    36    34    1
     9    32    31    3
    10     2     7    1
    11     2     3   ar
    12     7     8    3
    13     8     9    1
    14    44    39    1
    15     4    14    1
    16     4     3   ar
    17    31    27    1
    18    18    14   ar
    19    18    17   ar
    20    14    15   ar
    21     3    10    1
    22    27    28   ar
    23    27    26   ar
    24    34    28    1
    25    34    37    1
    26    34    35    1
    27    49    47    1
    28    28    29   ar
    29    17    26    1
    30    17    16   ar
    31    26    30   ar
    32    15    19    1
    33    15    16   ar
    34    24    22    1
    35    19    20    3
    36    39    38   ar
    37    39    40   ar
    38    20    21    1
    39    16    22    1
    40    29    30   ar
    41    29    38    1
    42    12    10    1
    43    38    42   ar
    44    10    13    1
    45    10    11    1
    46    47    40    1
    47    47    50    1
    48    47    48    1
    49    22    23    1
    50    22    25    1
    51    40    41   ar
    52    42    41   ar
    53    41    43    1
