@<TRIPOS>MOLECULE
mol_data/opt/cam/geoms/mol2/12el12ii13df-13ae-.out
 48 51 0 0 0
SMALL
GASTEIGER

@<TRIPOS>ATOM
      1 C           0.3302    1.6480    0.6121 C.ar    1  LIG1        0.1118
      2 C           1.6275    1.6235    0.1983 C.ar    1  LIG1        0.1047
      3 C           1.9872    3.0080    0.0097 C.ar    1  LIG1        0.1841
      4 C           0.8903    3.7520    0.3328 C.ar    1  LIG1        0.2125
      5 O          -0.1244    2.9110    0.7063 O.2     1  LIG1       -0.4547
      6 H          -0.3622    0.8626    0.8697 H       1  LIG1        0.1043
      7 C           2.4469    0.4777    0.0146 C.1     1  LIG1       -0.0628
      8 C           3.1429   -0.4916   -0.1430 C.1     1  LIG1       -0.1137
      9 H           3.7596   -1.3512   -0.2715 H       1  LIG1        0.1232
     10 O           3.1900    3.4992   -0.3708 O.3     1  LIG1       -0.4901
     11 C           3.6142    3.1161   -1.6782 C.3     1  LIG1        0.0790
     12 H           4.5835    3.5889   -1.8347 H       1  LIG1        0.0660
     13 H           3.7198    2.0311   -1.7567 H       1  LIG1        0.0660
     14 H           2.9059    3.4728   -2.4331 H       1  LIG1        0.0660
     15 C           0.6069    5.1680    0.3552 C.ar    1  LIG1        0.1775
     16 C           1.3539    6.2882    0.5819 C.ar    1  LIG1        0.0021
     17 C           0.4574    7.4034    0.4497 C.ar    1  LIG1        0.0004
     18 C          -0.7627    6.8727    0.1434 C.ar    1  LIG1        0.1564
     19 O          -0.6866    5.5091    0.0881 O.2     1  LIG1       -0.4496
     20 C           2.7973    6.3822    0.9570 C.3     1  LIG1       -0.0357
     21 H           2.9134    6.8544    1.9380 H       1  LIG1        0.0279
     22 H           3.3480    6.9958    0.2374 H       1  LIG1        0.0279
     23 H           3.2693    5.4015    0.9834 H       1  LIG1        0.0279
     24 C           0.8184    8.8352    0.6815 C.3     1  LIG1       -0.0358
     25 H          -0.0326    9.4075    1.0530 H       1  LIG1        0.0279
     26 H           1.1545    9.3267   -0.2357 H       1  LIG1        0.0279
     27 H           1.6240    8.9090    1.4159 H       1  LIG1        0.0279
     28 C          -2.0911    7.3951   -0.0731 C.ar    1  LIG1        0.1041
     29 C          -2.5690    8.6147   -0.5557 C.ar    1  LIG1        0.1220
     30 C          -3.9894    8.5215   -0.5809 C.ar    1  LIG1        0.1616
     31 C          -4.3475    7.2695   -0.1376 C.ar    1  LIG1        0.1067
     32 N          -3.1710    6.6092    0.1793 N.ar    1  LIG1       -0.3466
     33 H          -3.0879    5.6297    0.4040 H       1  LIG1        0.1662
     34 N          -1.1871   10.6080   -1.4210 N.1     1  LIG1       -0.1907
     35 C          -1.8077    9.7142   -1.0244 C.1     1  LIG1        0.1051
     36 O          -4.7964    9.5289   -0.9707 O.3     1  LIG1       -0.5034
     37 H          -5.7147    9.2566   -0.8324 H       1  LIG1        0.2923
     38 C          -5.6767    6.7175    0.0325 C.ar    1  LIG1        0.0677
     39 C          -6.7674    6.7596   -0.8057 C.ar    1  LIG1       -0.0194
     40 C          -7.8587    6.1304   -0.1325 C.ar    1  LIG1        0.0426
     41 C          -7.3881    5.7199    1.0965 C.ar    1  LIG1        0.0177
     42 N          -6.0750    6.0761    1.1867 N.ar    1  LIG1       -0.3583
     43 H          -5.5073    5.9909    2.0142 H       1  LIG1        0.1654
     44 H          -7.8951    5.2014    1.8950 H       1  LIG1        0.0819
     45 H          -6.7773    7.1434   -1.8154 H       1  LIG1        0.0651
     46 C          -9.1766    5.9389   -0.6327 C.1     1  LIG1       -0.0682
     47 C         -10.2901    5.7826   -1.0631 C.1     1  LIG1       -0.1139
     48 H         -11.2754    5.6435   -1.4438 H       1  LIG1        0.1232
@<TRIPOS>BOND
     1    14    11    1
     2    12    11    1
     3    45    39    1
     4    13    11    1
     5    11    10    1
     6    48    47    1
     7    34    35    3
     8    47    46    3
     9    35    29    1
    10    36    37    1
    11    36    30    1
    12    39    40   ar
    13    39    38   ar
    14    46    40    1
    15    30    29   ar
    16    30    31   ar
    17    29    28   ar
    18    10     3    1
    19     9     8    1
    20    26    24    1
    21     8     7    3
    22    31    38    1
    23    31    32   ar
    24    40    41   ar
    25    28    18    1
    26    28    32   ar
    27     3     2   ar
    28     3     4   ar
    29     7     2    1
    30    38    42   ar
    31    19    18   ar
    32    19    15   ar
    33    18    17   ar
    34    32    33    1
    35     2     1   ar
    36    22    20    1
    37     4    15    1
    38     4     5   ar
    39    15    16   ar
    40    17    16   ar
    41    17    24    1
    42    16    20    1
    43     1     5   ar
    44     1     6    1
    45    24    25    1
    46    24    27    1
    47    20    23    1
    48    20    21    1
    49    41    42   ar
    50    41    44    1
    51    42    43    1
