@<TRIPOS>MOLECULE
mol_data/opt/cam/geoms/mol2/12el12el12el-12el.out
 54 57 0 0 0
SMALL
GASTEIGER

@<TRIPOS>ATOM
      1 C           5.4436    1.8729   -0.6889 C.ar    1  LIG1        0.1118
      2 C           6.1854    0.8499   -0.1765 C.ar    1  LIG1        0.1047
      3 C           5.2300   -0.1842    0.1398 C.ar    1  LIG1        0.1842
      4 C           4.0024    0.2946   -0.2224 C.ar    1  LIG1        0.2136
      5 O           4.1383    1.5624   -0.7190 O.2     1  LIG1       -0.4547
      6 H           5.7176    2.8504   -1.0526 H       1  LIG1        0.1043
      7 C           7.5888    0.8496    0.0451 C.1     1  LIG1       -0.0628
      8 C           8.7779    0.8546    0.2313 C.1     1  LIG1       -0.1137
      9 H           9.8293    0.8653    0.4052 H       1  LIG1        0.1232
     10 O           5.4501   -1.3556    0.7667 O.3     1  LIG1       -0.4901
     11 C           6.3762   -2.2363    0.1346 C.3     1  LIG1        0.0790
     12 H           6.4697   -3.0987    0.7940 H       1  LIG1        0.0660
     13 H           5.9905   -2.5615   -0.8362 H       1  LIG1        0.0660
     14 H           7.3528   -1.7621    0.0113 H       1  LIG1        0.0660
     15 C           2.6710   -0.2444   -0.1532 C.ar    1  LIG1        0.1934
     16 C           2.1623   -1.5215   -0.1806 C.ar    1  LIG1        0.1159
     17 C           0.7388   -1.3707   -0.0727 C.ar    1  LIG1        0.1849
     18 C           0.4865   -0.0263    0.0045 C.ar    1  LIG1        0.2146
     19 O           1.6654    0.6548   -0.0391 O.2     1  LIG1       -0.4434
     20 C           2.8379   -2.7566   -0.3479 C.1     1  LIG1       -0.0620
     21 C           3.3591   -3.8304   -0.5040 C.1     1  LIG1       -0.1137
     22 H           3.8162   -4.7831   -0.6400 H       1  LIG1        0.1232
     23 O          -0.1442   -2.3914   -0.0951 O.3     1  LIG1       -0.4901
     24 C          -0.6943   -2.7355    1.1757 C.3     1  LIG1        0.0790
     25 H          -1.3569   -3.5824    1.0022 H       1  LIG1        0.0660
     26 H           0.0982   -3.0199    1.8756 H       1  LIG1        0.0660
     27 H          -1.2778   -1.9073    1.5854 H       1  LIG1        0.0660
     28 C          -0.7198    0.7400    0.1038 C.ar    1  LIG1        0.1934
     29 C          -0.9765    2.0833    0.2583 C.ar    1  LIG1        0.1159
     30 C          -2.4111    2.1914    0.3011 C.ar    1  LIG1        0.1849
     31 C          -2.9120    0.9265    0.1678 C.ar    1  LIG1        0.2146
     32 O          -1.8764    0.0429    0.0577 O.2     1  LIG1       -0.4434
     33 C          -0.0426    3.1406    0.4010 C.1     1  LIG1       -0.0620
     34 C           0.7319    4.0539    0.5248 C.1     1  LIG1       -0.1137
     35 H           1.4288    4.8506    0.6458 H       1  LIG1        0.1232
     36 O          -3.1445    3.3076    0.4889 O.3     1  LIG1       -0.4901
     37 C          -3.0072    4.3049   -0.5208 C.3     1  LIG1        0.0790
     38 H          -3.6495    5.1318   -0.2188 H       1  LIG1        0.0660
     39 H          -1.9742    4.6530   -0.5982 H       1  LIG1        0.0660
     40 H          -3.3395    3.9198   -1.4906 H       1  LIG1        0.0660
     41 C          -4.2406    0.3859    0.1155 C.ar    1  LIG1        0.1924
     42 C          -4.7204   -0.8544   -0.2378 C.ar    1  LIG1        0.1152
     43 C          -6.1535   -0.7550   -0.0882 C.ar    1  LIG1        0.1737
     44 C          -6.4174    0.5042    0.3338 C.ar    1  LIG1        0.1355
     45 O          -5.2570    1.2081    0.4540 O.2     1  LIG1       -0.4547
     46 H          -7.3313    1.0268    0.5594 H       1  LIG1        0.1068
     47 C          -3.9781   -1.9581   -0.7284 C.1     1  LIG1       -0.0621
     48 C          -3.3478   -2.8916   -1.1557 C.1     1  LIG1       -0.1137
     49 H          -2.7627   -3.6863   -1.5576 H       1  LIG1        0.1232
     50 O          -7.0831   -1.6975   -0.3728 O.3     1  LIG1       -0.4907
     51 C          -6.9607   -2.9074    0.3668 C.3     1  LIG1        0.0790
     52 H          -7.7706   -3.5548    0.0303 H       1  LIG1        0.0660
     53 H          -6.0015   -3.3962    0.1768 H       1  LIG1        0.0660
     54 H          -7.0676   -2.7186    1.4410 H       1  LIG1        0.0660
@<TRIPOS>BOND
     1    49    48    1
     2    40    37    1
     3    48    47    3
     4     6     1    1
     5    13    11    1
     6    47    42    1
     7     5     1   ar
     8     5     4   ar
     9     1     2   ar
    10    22    21    1
    11    39    37    1
    12    37    38    1
    13    37    36    1
    14    21    20    3
    15    50    43    1
    16    50    51    1
    17    20    16    1
    18    42    43   ar
    19    42    41   ar
    20     4    15    1
    21     4     3   ar
    22    16    15   ar
    23    16    17   ar
    24     2     7    1
    25     2     3   ar
    26    15    19   ar
    27    23    17    1
    28    23    24    1
    29    43    44   ar
    30    17    18   ar
    31    19    18   ar
    32    18    28    1
    33    14    11    1
    34    52    51    1
    35     7     8    3
    36    32    28   ar
    37    32    31   ar
    38    28    29   ar
    39    41    31    1
    40    41    45   ar
    41    11    10    1
    42    11    12    1
    43     3    10    1
    44    31    30   ar
    45    53    51    1
    46     8     9    1
    47    29    30   ar
    48    29    33    1
    49    30    36    1
    50    44    45   ar
    51    44    46    1
    52    51    54    1
    53    33    34    3
    54    34    35    1
    55    25    24    1
    56    24    27    1
    57    24    26    1
