@<TRIPOS>MOLECULE
mol_data/opt/cam/geoms/mol2/12el12el.out
 28 29 0 0 0
SMALL
GASTEIGER

@<TRIPOS>ATOM
      1 C           0.1062    1.6966    0.3306 C.ar    1  LIG1        0.1118
      2 C           1.4067    1.6105   -0.0691 C.ar    1  LIG1        0.1047
      3 C           1.8384    2.9777   -0.2378 C.ar    1  LIG1        0.1842
      4 C           0.7729    3.7669    0.0878 C.ar    1  LIG1        0.2136
      5 O          -0.2912    2.9754    0.4254 O.2     1  LIG1       -0.4547
      6 H          -0.6275    0.9424    0.5667 H       1  LIG1        0.1043
      7 C           2.1379    0.4180   -0.3177 C.1     1  LIG1       -0.0628
      8 C           2.7521   -0.5957   -0.5277 C.1     1  LIG1       -0.1137
      9 H           3.2904   -1.4944   -0.7234 H       1  LIG1        0.1232
     10 O           3.0150    3.4251   -0.7200 O.3     1  LIG1       -0.4901
     11 C           4.1763    3.0106   -0.0052 C.3     1  LIG1        0.0790
     12 H           5.0268    3.4287   -0.5432 H       1  LIG1        0.0660
     13 H           4.1598    3.4088    1.0138 H       1  LIG1        0.0660
     14 H           4.2588    1.9214    0.0196 H       1  LIG1        0.0660
     15 C           0.5637    5.1922    0.1050 C.ar    1  LIG1        0.1924
     16 C           1.3952    6.2635    0.3214 C.ar    1  LIG1        0.1152
     17 C           0.5510    7.4287    0.1874 C.ar    1  LIG1        0.1737
     18 C          -0.6962    6.9789   -0.0848 C.ar    1  LIG1        0.1355
     19 O          -0.6983    5.6191   -0.1325 O.2     1  LIG1       -0.4547
     20 H          -1.6391    7.4761   -0.2373 H       1  LIG1        0.1068
     21 C           2.7612    6.2604    0.7016 C.1     1  LIG1       -0.0621
     22 C           3.9146    6.3111    1.0456 C.1     1  LIG1       -0.1137
     23 H           4.9329    6.3556    1.3558 H       1  LIG1        0.1232
     24 O           0.9028    8.7237    0.3684 O.3     1  LIG1       -0.4907
     25 C           1.8629    9.2177   -0.5597 C.3     1  LIG1        0.0790
     26 H           2.0448   10.2576   -0.2880 H       1  LIG1        0.0660
     27 H           2.7999    8.6574   -0.5011 H       1  LIG1        0.0660
     28 H           1.4738    9.1704   -1.5830 H       1  LIG1        0.0660
@<TRIPOS>BOND
     1    28    25    1
     2     9     8    1
     3    10     3    1
     4    10    11    1
     5    25    27    1
     6    25    26    1
     7    25    24    1
     8    12    11    1
     9     8     7    3
    10     7     2    1
    11     3     2   ar
    12     3     4   ar
    13    20    18    1
    14    19    18   ar
    15    19    15   ar
    16    18    17   ar
    17     2     1   ar
    18    11    14    1
    19    11    13    1
    20     4    15    1
    21     4     5   ar
    22    15    16   ar
    23    17    16   ar
    24    17    24    1
    25    16    21    1
    26     1     5   ar
    27     1     6    1
    28    21    22    3
    29    22    23    1
