@<TRIPOS>MOLECULE
mol_data/opt/cam/geoms/mol2/12el.out
 15 15 0 0 0
SMALL
GASTEIGER

@<TRIPOS>ATOM
      1 C           0.1081    1.8610   -0.0000 C.ar    1  LIG1        0.1107
      2 C           1.4726    1.7852    0.0001 C.ar    1  LIG1        0.1039
      3 C           1.9194    3.1640   -0.0000 C.ar    1  LIG1        0.1729
      4 C           0.7967    3.9277   -0.0001 C.ar    1  LIG1        0.1344
      5 O          -0.3115    3.1325   -0.0001 O.2     1  LIG1       -0.4660
      6 H          -0.6491    1.0933    0.0000 H       1  LIG1        0.1043
      7 H           0.6406    4.9925   -0.0002 H       1  LIG1        0.1068
      8 C           2.2045    0.5650    0.0002 C.1     1  LIG1       -0.0628
      9 C           2.7864   -0.4892    0.0002 C.1     1  LIG1       -0.1137
     10 H           3.3030   -1.4211    0.0003 H       1  LIG1        0.1232
     11 O           3.1594    3.6968   -0.0000 O.3     1  LIG1       -0.4907
     12 C           4.2699    2.8172   -0.0001 C.3     1  LIG1        0.0790
     13 H           5.1536    3.4554   -0.0001 H       1  LIG1        0.0660
     14 H           4.2797    2.1815    0.8900 H       1  LIG1        0.0660
     15 H           4.2796    2.1816   -0.8902 H       1  LIG1        0.0660
@<TRIPOS>BOND
     1    15    12    1
     2     7     4    1
     3    13    12    1
     4     4     5   ar
     5     4     3   ar
     6    12    11    1
     7    12    14    1
     8     5     1   ar
     9     3    11    1
    10     3     2   ar
    11     1     6    1
    12     1     2   ar
    13     2     8    1
    14     8     9    3
    15     9    10    1
