@<TRIPOS>MOLECULE
mol_data/opt/cam/geoms/mol2/12el12el-12el-12el-.out
 54 57 0 0 0
SMALL
GASTEIGER

@<TRIPOS>ATOM
      1 C           0.0254    1.8182    0.9366 C.ar    1  LIG1        0.1118
      2 C           1.3673    1.7801    1.1949 C.ar    1  LIG1        0.1047
      3 C           1.8290    3.1299    0.9668 C.ar    1  LIG1        0.1842
      4 C           0.7261    3.8559    0.5922 C.ar    1  LIG1        0.2136
      5 O          -0.3719    3.0421    0.5766 O.2     1  LIG1       -0.4547
      6 H          -0.7306    1.0504    0.9750 H       1  LIG1        0.1043
      7 C           2.0712    0.6097    1.5936 C.1     1  LIG1       -0.0628
      8 C           2.6261   -0.4047    1.9285 C.1     1  LIG1       -0.1137
      9 H           3.1207   -1.3008    2.2249 H       1  LIG1        0.1232
     10 O           3.0508    3.6725    1.0634 O.3     1  LIG1       -0.4901
     11 C           4.1217    2.8707    1.5355 C.3     1  LIG1        0.0790
     12 H           4.9894    3.5289    1.5616 H       1  LIG1        0.0660
     13 H           3.9209    2.4881    2.5400 H       1  LIG1        0.0660
     14 H           4.3178    2.0305    0.8642 H       1  LIG1        0.0660
     15 C           0.5373    5.2332    0.2417 C.ar    1  LIG1        0.1934
     16 C          -0.5752    5.9548   -0.1237 C.ar    1  LIG1        0.1159
     17 C          -0.1010    7.2908   -0.3603 C.ar    1  LIG1        0.1849
     18 C           1.2449    7.2927   -0.1080 C.ar    1  LIG1        0.2146
     19 O           1.6288    6.0175    0.2481 O.2     1  LIG1       -0.4434
     20 C          -1.9136    5.5167   -0.2804 C.1     1  LIG1       -0.0620
     21 C          -3.0573    5.1695   -0.4215 C.1     1  LIG1       -0.1137
     22 H          -4.0691    4.8601   -0.5448 H       1  LIG1        0.1232
     23 O          -0.9362    8.2490   -0.7863 O.3     1  LIG1       -0.4901
     24 C          -0.4080    9.2839   -1.6061 C.3     1  LIG1        0.0790
     25 H          -1.2648    9.7324   -2.1093 H       1  LIG1        0.0660
     26 H           0.1006   10.0439   -1.0108 H       1  LIG1        0.0660
     27 H           0.2804    8.8721   -2.3511 H       1  LIG1        0.0660
     28 C           2.2840    8.2914   -0.0582 C.ar    1  LIG1        0.1934
     29 C           2.3364    9.5481    0.4902 C.ar    1  LIG1        0.1159
     30 C           3.6621   10.0373    0.2252 C.ar    1  LIG1        0.1849
     31 C           4.3330    9.0360   -0.4243 C.ar    1  LIG1        0.2146
     32 O           3.4736    7.9748   -0.6081 O.2     1  LIG1       -0.4434
     33 C           1.3180   10.2271    1.2055 C.1     1  LIG1       -0.0620
     34 C           0.4476   10.8005    1.8079 C.1     1  LIG1       -0.1137
     35 H          -0.3202   11.3007    2.3514 H       1  LIG1        0.1232
     36 O           4.0119   11.2773    0.5932 O.3     1  LIG1       -0.4901
     37 C           5.1620   11.8603   -0.0020 C.3     1  LIG1        0.0790
     38 H           5.1106   12.9237    0.2310 H       1  LIG1        0.0660
     39 H           6.0799   11.4399    0.4135 H       1  LIG1        0.0660
     40 H           5.1496   11.7225   -1.0883 H       1  LIG1        0.0660
     41 C           5.6833    8.8259   -0.8993 C.ar    1  LIG1        0.1924
     42 C           6.9086    8.8950   -0.2860 C.ar    1  LIG1        0.1152
     43 C           7.8657    8.5255   -1.2935 C.ar    1  LIG1        0.1737
     44 C           7.1614    8.2425   -2.4204 C.ar    1  LIG1        0.1355
     45 O           5.8301    8.4290   -2.1855 O.2     1  LIG1       -0.4547
     46 H           7.4312    7.9124   -3.4085 H       1  LIG1        0.1068
     47 C           7.1868    9.2195    1.0665 C.1     1  LIG1       -0.0621
     48 C           7.4254    9.5006    2.2123 C.1     1  LIG1       -0.1137
     49 H           7.6332    9.7385    3.2300 H       1  LIG1        0.1232
     50 O           9.1890    8.4860   -1.0555 O.3     1  LIG1       -0.4907
     51 C           9.9795    8.0748   -2.1533 C.3     1  LIG1        0.0790
     52 H          11.0154    8.0895   -1.8173 H       1  LIG1        0.0660
     53 H           9.7120    7.0600   -2.4716 H       1  LIG1        0.0660
     54 H           9.8602    8.7597   -3.0017 H       1  LIG1        0.0660
@<TRIPOS>BOND
     1    46    44    1
     2    54    51    1
     3    53    51    1
     4    44    45   ar
     5    44    43   ar
     6    27    24    1
     7    45    41   ar
     8    51    52    1
     9    51    50    1
    10    25    24    1
    11    24    26    1
    12    24    23    1
    13    43    50    1
    14    43    42   ar
    15    40    37    1
    16    41    31    1
    17    41    42   ar
    18    23    17    1
    19    32    31   ar
    20    32    28   ar
    21    22    21    1
    22    31    30   ar
    23    21    20    3
    24    17    16   ar
    25    17    18   ar
    26    42    47    1
    27    20    16    1
    28    16    15   ar
    29    18    28    1
    30    18    19   ar
    31    28    29   ar
    32    37    38    1
    33    37    39    1
    34    37    36    1
    35    30    29   ar
    36    30    36    1
    37    15    19   ar
    38    15     4    1
    39    29    33    1
    40     5     4   ar
    41     5     1   ar
    42     4     3   ar
    43    14    11    1
    44     1     6    1
    45     1     2   ar
    46     3    10    1
    47     3     2   ar
    48    10    11    1
    49    47    48    3
    50     2     7    1
    51    33    34    3
    52    11    12    1
    53    11    13    1
    54     7     8    3
    55    34    35    1
    56     8     9    1
    57    48    49    1
