@<TRIPOS>MOLECULE
mol_data/opt/cam/geoms/mol2/12el12el12el-12el-.out
 54 57 0 0 0
SMALL
GASTEIGER

@<TRIPOS>ATOM
      1 C           0.2806    1.5312    0.5293 C.ar    1  LIG1        0.1118
      2 C           1.5859    1.5185    0.1353 C.ar    1  LIG1        0.1047
      3 C           1.9385    2.9068   -0.0386 C.ar    1  LIG1        0.1842
      4 C           0.8268    3.6349    0.2799 C.ar    1  LIG1        0.2136
      5 O          -0.1909    2.7845    0.6159 O.2     1  LIG1       -0.4547
      6 H          -0.4090    0.7369    0.7667 H       1  LIG1        0.1043
      7 C           2.3877    0.3703   -0.1040 C.1     1  LIG1       -0.0628
      8 C           3.0631   -0.6054   -0.3059 C.1     1  LIG1       -0.1137
      9 H           3.6558   -1.4708   -0.4943 H       1  LIG1        0.1232
     10 O           3.0889    3.4170   -0.5192 O.3     1  LIG1       -0.4901
     11 C           4.2677    3.0891    0.2123 C.3     1  LIG1        0.0790
     12 H           5.0964    3.5376   -0.3349 H       1  LIG1        0.0660
     13 H           4.2231    3.5169    1.2182 H       1  LIG1        0.0660
     14 H           4.4097    2.0072    0.2698 H       1  LIG1        0.0660
     15 C           0.5373    5.0436    0.2962 C.ar    1  LIG1        0.1934
     16 C           1.3063    6.1683    0.4806 C.ar    1  LIG1        0.1159
     17 C           0.3972    7.2755    0.3827 C.ar    1  LIG1        0.1849
     18 C          -0.8454    6.7491    0.1510 C.ar    1  LIG1        0.2146
     19 O          -0.7548    5.3914    0.0945 O.2     1  LIG1       -0.4434
     20 C           2.6871    6.2764    0.7830 C.1     1  LIG1       -0.0620
     21 C           3.8497    6.4257    1.0575 C.1     1  LIG1       -0.1137
     22 H           4.8780    6.5630    1.2998 H       1  LIG1        0.1232
     23 O           0.7441    8.5661    0.5691 O.3     1  LIG1       -0.4901
     24 C           0.8572    9.3534   -0.6152 C.3     1  LIG1        0.0790
     25 H           1.2701   10.3123   -0.3018 H       1  LIG1        0.0660
     26 H           1.5376    8.8822   -1.3321 H       1  LIG1        0.0660
     27 H          -0.1222    9.5121   -1.0734 H       1  LIG1        0.0660
     28 C          -2.1426    7.3368   -0.0165 C.ar    1  LIG1        0.1934
     29 C          -3.4009    6.8079   -0.1676 C.ar    1  LIG1        0.1159
     30 C          -4.2753    7.9393   -0.3259 C.ar    1  LIG1        0.1849
     31 C          -3.5007    9.0653   -0.2422 C.ar    1  LIG1        0.2146
     32 O          -2.1876    8.6820   -0.0627 O.2     1  LIG1       -0.4434
     33 C          -3.7984    5.4483   -0.1960 C.1     1  LIG1       -0.0620
     34 C          -4.1560    4.2999   -0.2235 C.1     1  LIG1       -0.1137
     35 H          -4.4662    3.2812   -0.2456 H       1  LIG1        0.1232
     36 O          -5.5840    7.7603   -0.5482 O.3     1  LIG1       -0.4901
     37 C          -6.2929    8.7730   -1.2502 C.3     1  LIG1        0.0790
     38 H          -7.2171    8.3070   -1.5917 H       1  LIG1        0.0660
     39 H          -6.5302    9.6163   -0.5996 H       1  LIG1        0.0660
     40 H          -5.7166    9.1197   -2.1142 H       1  LIG1        0.0660
     41 C          -3.7267   10.4905   -0.2425 C.ar    1  LIG1        0.1924
     42 C          -4.6122   11.2967    0.4275 C.ar    1  LIG1        0.1152
     43 C          -4.2936   12.6391    0.0204 C.ar    1  LIG1        0.1737
     44 C          -3.2406   12.5540   -0.8334 C.ar    1  LIG1        0.1355
     45 O          -2.8939   11.2428   -1.0010 O.2     1  LIG1       -0.4547
     46 H          -2.6527   13.2768   -1.3716 H       1  LIG1        0.1068
     47 C          -5.5982   10.9105    1.3705 C.1     1  LIG1       -0.0621
     48 C          -6.4377   10.5823    2.1683 C.1     1  LIG1       -0.1137
     49 H          -7.1714   10.2903    2.8837 H       1  LIG1        0.1232
     50 O          -4.9670   13.7103    0.4751 O.3     1  LIG1       -0.4907
     51 C          -4.4961   14.9565    0.0009 C.3     1  LIG1        0.0790
     52 H          -5.1267   15.7220    0.4508 H       1  LIG1        0.0660
     53 H          -3.4530   15.1202    0.2971 H       1  LIG1        0.0660
     54 H          -4.5725   15.0151   -1.0917 H       1  LIG1        0.0660
@<TRIPOS>BOND
     1    40    37    1
     2    38    37    1
     3    46    44    1
     4    26    24    1
     5    37    39    1
     6    37    36    1
     7    54    51    1
     8    27    24    1
     9    45    44   ar
    10    45    41   ar
    11    44    43   ar
    12    24    25    1
    13    24    23    1
    14    36    30    1
    15    10     3    1
    16    10    11    1
    17     9     8    1
    18    12    11    1
    19    30    31   ar
    20    30    29   ar
    21     8     7    3
    22    35    34    1
    23    41    31    1
    24    41    42   ar
    25    31    32   ar
    26    34    33    3
    27    33    29    1
    28    29    28   ar
    29     7     2    1
    30    32    28   ar
    31     3     2   ar
    32     3     4   ar
    33    28    18    1
    34    51    53    1
    35    51    52    1
    36    51    50    1
    37    43    42   ar
    38    43    50    1
    39    19    18   ar
    40    19    15   ar
    41     2     1   ar
    42    18    17   ar
    43    11    14    1
    44    11    13    1
    45     4    15    1
    46     4     5   ar
    47    15    16   ar
    48    17    16   ar
    49    17    23    1
    50    42    47    1
    51    16    20    1
    52     1     5   ar
    53     1     6    1
    54    20    21    3
    55    21    22    1
    56    47    48    3
    57    48    49    1
