@<TRIPOS>MOLECULE
mol_data/opt/cam/geoms/mol2/12el12el12el.out
 41 43 0 0 0
SMALL
GASTEIGER

@<TRIPOS>ATOM
      1 C           0.2603    1.6190    0.7144 C.ar    1  LIG1        0.1118
      2 C           1.5159    1.5435    0.1879 C.ar    1  LIG1        0.1047
      3 C           1.8772    2.9071   -0.1165 C.ar    1  LIG1        0.1842
      4 C           0.8209    3.6853    0.2651 C.ar    1  LIG1        0.2136
      5 O          -0.1730    2.8879    0.7635 O.2     1  LIG1       -0.4547
      6 H          -0.4169    0.8616    1.0758 H       1  LIG1        0.1043
      7 C           2.2607    0.3582   -0.0552 C.1     1  LIG1       -0.0628
      8 C           2.8861   -0.6497   -0.2597 C.1     1  LIG1       -0.1137
      9 H           3.4331   -1.5444   -0.4497 H       1  LIG1        0.1232
     10 O           2.9790    3.3555   -0.7488 O.3     1  LIG1       -0.4901
     11 C           4.2248    3.0196   -0.1432 C.3     1  LIG1        0.0790
     12 H           4.9965    3.4231   -0.7981 H       1  LIG1        0.0660
     13 H           4.3065    3.4841    0.8440 H       1  LIG1        0.0660
     14 H           4.3452    1.9370   -0.0590 H       1  LIG1        0.0660
     15 C           0.5611    5.0994    0.2083 C.ar    1  LIG1        0.1934
     16 C           1.3715    6.2093    0.2447 C.ar    1  LIG1        0.1159
     17 C           0.4788    7.3336    0.1329 C.ar    1  LIG1        0.1849
     18 C          -0.7885    6.8324    0.0606 C.ar    1  LIG1        0.2146
     19 O          -0.7346    5.4675    0.1066 O.2     1  LIG1       -0.4434
     20 C           2.7733    6.2763    0.4485 C.1     1  LIG1       -0.0620
     21 C           3.9570    6.3877    0.6415 C.1     1  LIG1       -0.1137
     22 H           5.0031    6.4862    0.8181 H       1  LIG1        0.1232
     23 O           0.8058    8.6423    0.1366 O.3     1  LIG1       -0.4901
     24 C           1.6319    9.0646   -0.9451 C.3     1  LIG1        0.0790
     25 H           1.7845   10.1350   -0.8085 H       1  LIG1        0.0660
     26 H           2.5973    8.5522   -0.9331 H       1  LIG1        0.0660
     27 H           1.1343    8.8860   -1.9043 H       1  LIG1        0.0660
     28 C          -2.0905    7.4361   -0.0544 C.ar    1  LIG1        0.1924
     29 C          -2.6069    8.6471    0.3390 C.ar    1  LIG1        0.1152
     30 C          -3.9803    8.6326   -0.1090 C.ar    1  LIG1        0.1737
     31 C          -4.1824    7.4393   -0.7155 C.ar    1  LIG1        0.1355
     32 O          -3.0395    6.7026   -0.6832 O.2     1  LIG1       -0.4547
     33 H          -5.0463    6.9839   -1.1694 H       1  LIG1        0.1068
     34 C          -1.9842    9.6592    1.1127 C.1     1  LIG1       -0.0621
     35 C          -1.4877   10.5297    1.7800 C.1     1  LIG1       -0.1137
     36 H          -1.0346   11.2818    2.3832 H       1  LIG1        0.1232
     37 O          -4.9242    9.5823    0.0942 O.3     1  LIG1       -0.4907
     38 C          -4.6389   10.8472   -0.4928 C.3     1  LIG1        0.0790
     39 H          -5.4768   11.4977   -0.2408 H       1  LIG1        0.0660
     40 H          -3.7149   11.2733   -0.0930 H       1  LIG1        0.0660
     41 H          -4.5596   10.7609   -1.5824 H       1  LIG1        0.0660
@<TRIPOS>BOND
     1    27    24    1
     2    41    38    1
     3    33    31    1
     4    24    26    1
     5    24    25    1
     6    24    23    1
     7    12    11    1
     8    10    11    1
     9    10     3    1
    10    31    32   ar
    11    31    30   ar
    12    32    28   ar
    13    38    39    1
    14    38    40    1
    15    38    37    1
    16     9     8    1
    17     8     7    3
    18    11    14    1
    19    11    13    1
    20     3     2   ar
    21     3     4   ar
    22    30    37    1
    23    30    29   ar
    24     7     2    1
    25    28    18    1
    26    28    29   ar
    27    18    19   ar
    28    18    17   ar
    29    19    15   ar
    30    17    23    1
    31    17    16   ar
    32     2     1   ar
    33    15    16   ar
    34    15     4    1
    35    16    20    1
    36     4     5   ar
    37    29    34    1
    38    20    21    3
    39    21    22    1
    40     1     5   ar
    41     1     6    1
    42    34    35    3
    43    35    36    1
