@<TRIPOS>MOLECULE
mol_data/opt/cam/geoms/mol2/12el6if4lf-12fd.out
 47 50 0 0 0
SMALL
GASTEIGER

@<TRIPOS>ATOM
      1 C           0.4339    1.6375    0.8183 C.ar    1  LIG1        0.1098
      2 C           1.5990    1.6053    0.1006 C.ar    1  LIG1        0.0836
      3 C           1.8792    2.9742   -0.2767 C.ar    1  LIG1        0.0867
      4 C           0.8708    3.7486    0.2499 C.ar    1  LIG1        0.1617
      5 O          -0.0207    2.9097    0.9183 O.2     1  LIG1       -0.4596
      6 H          -0.1578    0.8693    1.2892 H       1  LIG1        0.1043
      7 C           2.3869    0.4796   -0.2463 C.1     1  LIG1       -0.0646
      8 C           3.0908   -0.4481   -0.5779 C.1     1  LIG1       -0.1138
      9 H           3.6990   -1.2799   -0.8486 H       1  LIG1        0.1232
     10 N           2.9944    3.3803   -1.0138 N.pl3   1  LIG1       -0.3541
     11 H           3.4526    2.5965   -1.4657 H       1  LIG1        0.1425
     12 H           2.7843    4.1060   -1.6901 H       1  LIG1        0.1425
     13 C          -0.7171    5.7200    0.3701 C.ar    1  LIG1        0.2240
     14 C           0.5889    5.1724    0.2366 C.ar    1  LIG1        0.0822
     15 C           1.6176    6.1032    0.0057 C.ar    1  LIG1       -0.0230
     16 C           1.3681    7.4685   -0.0554 C.ar    1  LIG1        0.0533
     17 C           0.0427    7.9133    0.1940 C.ar    1  LIG1        0.1134
     18 N          -0.9603    7.0154    0.3474 N.ar    1  LIG1       -0.2090
     19 H           2.6341    5.7428   -0.1297 H       1  LIG1        0.0645
     20 O          -1.8230    4.9454    0.5303 O.3     1  LIG1       -0.4919
     21 H          -1.5479    4.0272    0.6704 H       1  LIG1        0.2938
     22 N           2.3993    8.3930   -0.3679 N.pl3   1  LIG1       -0.3563
     23 H           3.2475    7.9241   -0.6669 H       1  LIG1        0.1424
     24 H           2.1013    9.0367   -1.0972 H       1  LIG1        0.1424
     25 C          -0.3658    9.3010    0.2276 C.ar    1  LIG1        0.0920
     26 C           0.2767   10.5295    0.4835 C.ar    1  LIG1        0.0945
     27 C          -0.7011   11.5512    0.3288 C.ar    1  LIG1        0.1650
     28 C          -1.9230   10.9509    0.0312 C.ar    1  LIG1        0.1092
     29 N          -1.7135    9.5865    0.0196 N.ar    1  LIG1       -0.3473
     30 H          -2.3169    8.8946   -0.3966 H       1  LIG1        0.1662
     31 N           1.5388   10.7931    0.9922 N.pl3   1  LIG1       -0.3534
     32 H           2.2431   10.0905    0.7883 H       1  LIG1        0.1425
     33 H           1.8291   11.7505    0.8427 H       1  LIG1        0.1425
     34 O          -0.4126   12.8609    0.5339 O.3     1  LIG1       -0.5030
     35 H          -1.1480   13.3995    0.1391 H       1  LIG1        0.2923
     36 C          -3.2231   11.5463   -0.1397 C.ar    1  LIG1        0.0912
     37 C          -3.5835   12.8591   -0.4307 C.ar    1  LIG1        0.0938
     38 C          -5.0053   12.9161   -0.4530 C.ar    1  LIG1        0.1554
     39 C          -5.4928   11.6569   -0.1811 C.ar    1  LIG1        0.0461
     40 N          -4.3924   10.8231   -0.0290 N.ar    1  LIG1       -0.3549
     41 H          -4.4327    9.9197    0.4160 H       1  LIG1        0.1655
     42 H          -6.5024   11.2826   -0.1094 H       1  LIG1        0.0845
     43 N          -2.6679   13.9345   -0.6748 N.pl3   1  LIG1       -0.3535
     44 H          -2.5304   14.0844   -1.6741 H       1  LIG1        0.1425
     45 H          -3.0525   14.8017   -0.3061 H       1  LIG1        0.1425
     46 O          -5.6716   14.0809   -0.7310 O.3     1  LIG1       -0.5035
     47 H          -6.6183   13.9374   -0.6098 H       1  LIG1        0.2923
@<TRIPOS>BOND
     1    12    10    1
     2    44    43    1
     3    11    10    1
     4    24    22    1
     5    10     3    1
     6     9     8    1
     7    46    47    1
     8    46    38    1
     9    43    37    1
    10    43    45    1
    11    23    22    1
    12     8     7    3
    13    38    37   ar
    14    38    39   ar
    15    37    36   ar
    16    30    29    1
    17    22    16    1
    18     3     2   ar
    19     3     4   ar
    20     7     2    1
    21    39    42    1
    22    39    40   ar
    23    36    40   ar
    24    36    28    1
    25    19    15    1
    26    16    15   ar
    27    16    17   ar
    28    40    41    1
    29    15    14   ar
    30    29    28   ar
    31    29    25   ar
    32    28    27   ar
    33     2     1   ar
    34    35    34    1
    35    17    25    1
    36    17    18   ar
    37    25    26   ar
    38    14     4    1
    39    14    13   ar
    40     4     5   ar
    41    27    26   ar
    42    27    34    1
    43    18    13   ar
    44    13    20    1
    45    26    31    1
    46    20    21    1
    47    32    31    1
    48     1     5   ar
    49     1     6    1
    50    33    31    1
