@<TRIPOS>MOLECULE
mol_data/opt/cam/geoms/mol2/12el12el-12el.out
 41 43 0 0 0
SMALL
GASTEIGER

@<TRIPOS>ATOM
      1 C           0.0312    1.7711    0.2901 C.ar    1  LIG1        0.1118
      2 C           1.3876    1.6758    0.3811 C.ar    1  LIG1        0.1047
      3 C           1.8690    3.0310    0.2930 C.ar    1  LIG1        0.1842
      4 C           0.7668    3.8279    0.1467 C.ar    1  LIG1        0.2136
      5 O          -0.3553    3.0530    0.1530 O.2     1  LIG1       -0.4547
      6 H          -0.7527    1.0314    0.3129 H       1  LIG1        0.1043
      7 C           2.1643    0.4985    0.5481 C.1     1  LIG1       -0.0628
      8 C           2.8306   -0.4946    0.6829 C.1     1  LIG1       -0.1137
      9 H           3.4167   -1.3750    0.8139 H       1  LIG1        0.1232
     10 O           3.1521    3.4429    0.3740 O.3     1  LIG1       -0.4901
     11 C           3.9437    3.1393   -0.7720 C.3     1  LIG1        0.0790
     12 H           4.9244    3.5777   -0.5903 H       1  LIG1        0.0660
     13 H           4.0394    2.0579   -0.9102 H       1  LIG1        0.0660
     14 H           3.5100    3.5888   -1.6711 H       1  LIG1        0.0660
     15 C           0.5970    5.2436   -0.0164 C.ar    1  LIG1        0.1934
     16 C          -0.4963    6.0376   -0.2730 C.ar    1  LIG1        0.1159
     17 C           0.0180    7.3752   -0.3604 C.ar    1  LIG1        0.1849
     18 C           1.3672    7.2995   -0.1417 C.ar    1  LIG1        0.2146
     19 O           1.7148    5.9981    0.0670 O.2     1  LIG1       -0.4434
     20 C          -1.8531    5.6617   -0.4388 C.1     1  LIG1       -0.0620
     21 C          -3.0133    5.3745   -0.5782 C.1     1  LIG1       -0.1137
     22 H          -4.0384    5.1145   -0.7074 H       1  LIG1        0.1232
     23 O          -0.7251    8.4654   -0.6496 O.3     1  LIG1       -0.4901
     24 C          -1.0222    9.3081    0.4602 C.3     1  LIG1        0.0790
     25 H          -1.6711   10.0967    0.0792 H       1  LIG1        0.0660
     26 H          -1.5473    8.7512    1.2431 H       1  LIG1        0.0660
     27 H          -0.1109    9.7535    0.8692 H       1  LIG1        0.0660
     28 C           2.4197    8.2739   -0.0990 C.ar    1  LIG1        0.1924
     29 C           3.7514    8.1952    0.2340 C.ar    1  LIG1        0.1152
     30 C           4.2568    9.5392    0.0702 C.ar    1  LIG1        0.1737
     31 C           3.2171   10.3041   -0.3378 C.ar    1  LIG1        0.1355
     32 O           2.0898    9.5420   -0.4353 O.2     1  LIG1       -0.4547
     33 H           3.1206   11.3514   -0.5676 H       1  LIG1        0.1068
     34 C           4.4546    7.0631    0.7168 C.1     1  LIG1       -0.0621
     35 C           5.0505    6.1065    1.1413 C.1     1  LIG1       -0.1137
     36 H           5.5381    5.2518    1.5498 H       1  LIG1        0.1232
     37 O           5.5048    9.9920    0.3328 O.3     1  LIG1       -0.4907
     38 C           6.5439    9.3687   -0.4150 C.3     1  LIG1        0.0790
     39 H           7.4743    9.8364   -0.0932 H       1  LIG1        0.0660
     40 H           6.5886    8.2947   -0.2170 H       1  LIG1        0.0660
     41 H           6.4038    9.5368   -1.4888 H       1  LIG1        0.0660
@<TRIPOS>BOND
     1    14    11    1
     2    41    38    1
     3    13    11    1
     4    11    12    1
     5    11    10    1
     6    22    21    1
     7    23    17    1
     8    23    24    1
     9    21    20    3
    10    33    31    1
    11    20    16    1
    12    32    31   ar
    13    32    28   ar
    14    38    40    1
    15    38    39    1
    16    38    37    1
    17    17    16   ar
    18    17    18   ar
    19    31    30   ar
    20    16    15   ar
    21    18    28    1
    22    18    19   ar
    23    28    29   ar
    24    15    19   ar
    25    15     4    1
    26    30    29   ar
    27    30    37    1
    28    25    24    1
    29     4     5   ar
    30     4     3   ar
    31     5     1   ar
    32    29    34    1
    33     1     6    1
    34     1     2   ar
    35     3    10    1
    36     3     2   ar
    37     2     7    1
    38    24    27    1
    39    24    26    1
    40     7     8    3
    41     8     9    1
    42    34    35    3
    43    35    36    1
