@<TRIPOS>MOLECULE
mol_data/opt/cam/geoms/mol2/12el12el-.out
 28 29 0 0 0
SMALL
GASTEIGER

@<TRIPOS>ATOM
      1 C           0.1443    1.7933    0.0001 C.ar    1  LIG1        0.1118
      2 C           1.5092    1.7227    0.0001 C.ar    1  LIG1        0.1047
      3 C           1.9537    3.0977    0.0000 C.ar    1  LIG1        0.1842
      4 C           0.8197    3.8693   -0.0000 C.ar    1  LIG1        0.2136
      5 O          -0.2813    3.0605    0.0000 O.2     1  LIG1       -0.4547
      6 H          -0.6107    1.0237    0.0001 H       1  LIG1        0.1043
      7 C           2.2445    0.5045    0.0001 C.1     1  LIG1       -0.0628
      8 C           2.8252   -0.5499    0.0002 C.1     1  LIG1       -0.1137
      9 H           3.3422   -1.4818    0.0000 H       1  LIG1        0.1232
     10 O           3.1886    3.6258    0.0000 O.3     1  LIG1       -0.4901
     11 C           4.3033    2.7494   -0.0001 C.3     1  LIG1        0.0790
     12 H           5.1825    3.3931   -0.0001 H       1  LIG1        0.0660
     13 H           4.3140    2.1151    0.8905 H       1  LIG1        0.0660
     14 H           4.3138    2.1151   -0.8907 H       1  LIG1        0.0660
     15 C           0.5988    5.2878   -0.0001 C.ar    1  LIG1        0.1924
     16 C          -0.5463    6.0494   -0.0001 C.ar    1  LIG1        0.1152
     17 C          -0.0851    7.4128   -0.0001 C.ar    1  LIG1        0.1737
     18 C           1.2718    7.3791   -0.0002 C.ar    1  LIG1        0.1355
     19 O           1.6925    6.0759   -0.0001 O.2     1  LIG1       -0.4547
     20 H           2.0439    8.1280   -0.0002 H       1  LIG1        0.1068
     21 C          -1.9002    5.6313   -0.0000 C.1     1  LIG1       -0.0621
     22 C          -3.0592    5.3063   -0.0000 C.1     1  LIG1       -0.1137
     23 H          -4.0839    5.0155    0.0000 H       1  LIG1        0.1232
     24 O          -0.9319    8.4580   -0.0002 O.3     1  LIG1       -0.4907
     25 C          -0.3104    9.7271   -0.0002 C.3     1  LIG1        0.0790
     26 H          -1.1086   10.4682   -0.0003 H       1  LIG1        0.0660
     27 H           0.3123    9.8597    0.8929 H       1  LIG1        0.0660
     28 H           0.3123    9.8596   -0.8934 H       1  LIG1        0.0660
@<TRIPOS>BOND
     1    28    25    1
     2    14    11    1
     3    26    25    1
     4    25    24    1
     5    25    27    1
     6    20    18    1
     7    24    17    1
     8    18    17   ar
     9    18    19   ar
    10    17    16   ar
    11    19    15   ar
    12    12    11    1
    13    16    15   ar
    14    16    21    1
    15    15     4    1
    16    11    10    1
    17    11    13    1
    18    21    22    3
    19     4     5   ar
    20     4     3   ar
    21    22    23    1
    22     5     1   ar
    23     3    10    1
    24     3     2   ar
    25     9     8    1
    26     1     2   ar
    27     1     6    1
    28     2     7    1
    29     7     8    3
