@<TRIPOS>MOLECULE
mol_data/opt/cam/geoms/mol2/12el12el-12el-12el.out
 54 57 0 0 0
SMALL
GASTEIGER

@<TRIPOS>ATOM
      1 C          -0.0685    1.8110    0.2722 C.ar    1  LIG1        0.1118
      2 C           1.2782    1.6495    0.1402 C.ar    1  LIG1        0.1047
      3 C           1.8102    2.9803    0.0165 C.ar    1  LIG1        0.1842
      4 C           0.7422    3.8359    0.0770 C.ar    1  LIG1        0.2136
      5 O          -0.4038    3.1148    0.2326 O.2     1  LIG1       -0.4547
      6 H          -0.8778    1.1098    0.3957 H       1  LIG1        0.1043
      7 C           2.0142    0.4352    0.1305 C.1     1  LIG1       -0.0628
      8 C           2.6428   -0.5904    0.1160 C.1     1  LIG1       -0.1137
      9 H           3.2011   -1.4981    0.1088 H       1  LIG1        0.1232
     10 O           3.1220    3.2869   -0.0892 O.3     1  LIG1       -0.4901
     11 C           3.5721    3.5907   -1.4116 C.3     1  LIG1        0.0790
     12 H           4.6256    3.8514   -1.3186 H       1  LIG1        0.0660
     13 H           3.4549    2.7210   -2.0657 H       1  LIG1        0.0660
     14 H           3.0266    4.4454   -1.8186 H       1  LIG1        0.0660
     15 C           0.6263    5.2652    0.0217 C.ar    1  LIG1        0.1934
     16 C          -0.4397    6.1285    0.1251 C.ar    1  LIG1        0.1159
     17 C           0.1263    7.4442   -0.0167 C.ar    1  LIG1        0.1849
     18 C           1.4712    7.2862   -0.2003 C.ar    1  LIG1        0.2146
     19 O           1.7710    5.9505   -0.1814 O.2     1  LIG1       -0.4434
     20 C          -1.8106    5.8114    0.3025 C.1     1  LIG1       -0.0620
     21 C          -2.9804    5.5696    0.4527 C.1     1  LIG1       -0.1137
     22 H          -4.0147    5.3435    0.5733 H       1  LIG1        0.1232
     23 O          -0.5243    8.6240   -0.0027 O.3     1  LIG1       -0.4901
     24 C          -1.2041    8.9355    1.2117 C.3     1  LIG1        0.0790
     25 H          -1.6464    9.9203    1.0644 H       1  LIG1        0.0660
     26 H          -1.9902    8.2072    1.4255 H       1  LIG1        0.0660
     27 H          -0.4996    8.9729    2.0493 H       1  LIG1        0.0660
     28 C           2.5730    8.1921   -0.3712 C.ar    1  LIG1        0.1934
     29 C           2.6918    9.4868   -0.8224 C.ar    1  LIG1        0.1159
     30 C           4.0921    9.7998   -0.7112 C.ar    1  LIG1        0.1849
     31 C           4.7118    8.6892   -0.2101 C.ar    1  LIG1        0.2146
     32 O           3.7853    7.7110   -0.0108 O.2     1  LIG1       -0.4434
     33 C           1.6981   10.3304   -1.3802 C.1     1  LIG1       -0.0620
     34 C           0.8856   11.0720   -1.8689 C.1     1  LIG1       -0.1137
     35 H           0.1554   11.7073   -2.3141 H       1  LIG1        0.1232
     36 O           4.7021   10.9404   -1.0970 O.3     1  LIG1       -0.4901
     37 C           4.3566   12.0954   -0.3376 C.3     1  LIG1        0.0790
     38 H           4.9063   12.9262   -0.7794 H       1  LIG1        0.0660
     39 H           3.2835   12.2985   -0.3909 H       1  LIG1        0.0660
     40 H           4.6581   11.9736    0.7083 H       1  LIG1        0.0660
     41 C           6.0738    8.3781    0.1215 C.ar    1  LIG1        0.1924
     42 C           6.6744    7.2277    0.5776 C.ar    1  LIG1        0.1152
     43 C           8.0678    7.5741    0.7348 C.ar    1  LIG1        0.1737
     44 C           8.1938    8.8711    0.3664 C.ar    1  LIG1        0.1355
     45 O           6.9810    9.3720    0.0000 O.2     1  LIG1       -0.4547
     46 H           9.0320    9.5461    0.3316 H       1  LIG1        0.1068
     47 C           6.0476    5.9881    0.8619 C.1     1  LIG1       -0.0621
     48 C           5.5021    4.9412    1.1036 C.1     1  LIG1       -0.1137
     49 H           4.9535    4.0422    1.2803 H       1  LIG1        0.1232
     50 O           9.0668    6.7969    1.2160 O.3     1  LIG1       -0.4907
     51 C           9.3125    5.6046    0.4780 C.3     1  LIG1        0.0790
     52 H          10.1323    5.0951    0.9846 H       1  LIG1        0.0660
     53 H           8.4333    4.9554    0.4642 H       1  LIG1        0.0660
     54 H           9.6095    5.8391   -0.5506 H       1  LIG1        0.0660
@<TRIPOS>BOND
     1    35    34    1
     2    13    11    1
     3    34    33    3
     4    14    11    1
     5    11    12    1
     6    11    10    1
     7    33    29    1
     8    36    30    1
     9    36    37    1
    10    29    30   ar
    11    29    28   ar
    12    38    37    1
    13    30    31   ar
    14    54    51    1
    15    39    37    1
    16    28    18    1
    17    28    32   ar
    18    37    40    1
    19    31    32   ar
    20    31    41    1
    21    18    19   ar
    22    18    17   ar
    23    19    15   ar
    24    10     3    1
    25    17    23    1
    26    17    16   ar
    27    23    24    1
    28    45    41   ar
    29    45    44   ar
    30     3     4   ar
    31     3     2   ar
    32    15     4    1
    33    15    16   ar
    34     4     5   ar
    35     9     8    1
    36     8     7    3
    37    41    42   ar
    38    16    20    1
    39     7     2    1
    40     2     1   ar
    41     5     1   ar
    42     1     6    1
    43    20    21    3
    44    46    44    1
    45    44    43   ar
    46    21    22    1
    47    53    51    1
    48    51    52    1
    49    51    50    1
    50    42    43   ar
    51    42    47    1
    52    43    50    1
    53    47    48    3
    54    25    24    1
    55    48    49    1
    56    24    26    1
    57    24    27    1
