@<TRIPOS>MOLECULE
mol_data/opt/cam/geoms/mol2/12el12el-12el12el-.out
 54 57 0 0 0
SMALL
GASTEIGER

@<TRIPOS>ATOM
      1 C           0.1781    1.6182   -0.0401 C.ar    1  LIG1        0.1118
      2 C           1.5394    1.5903    0.0207 C.ar    1  LIG1        0.1047
      3 C           1.9469    2.9693    0.0691 C.ar    1  LIG1        0.1842
      4 C           0.7990    3.7164    0.0285 C.ar    1  LIG1        0.2136
      5 O          -0.2788    2.8847   -0.0398 O.2     1  LIG1       -0.4547
      6 H          -0.5650    0.8388   -0.0881 H       1  LIG1        0.1043
      7 C           2.3869    0.4510    0.0352 C.1     1  LIG1       -0.0628
      8 C           3.1086   -0.5115    0.0416 C.1     1  LIG1       -0.1137
      9 H           3.7487   -1.3634    0.0536 H       1  LIG1        0.1232
     10 O           3.2241    3.3985    0.1659 O.3     1  LIG1       -0.4901
     11 C           3.7888    3.8719   -1.0556 C.3     1  LIG1        0.0790
     12 H           4.8126    4.1644   -0.8260 H       1  LIG1        0.0660
     13 H           3.7887    3.0820   -1.8139 H       1  LIG1        0.0660
     14 H           3.2446    4.7451   -1.4247 H       1  LIG1        0.0660
     15 C           0.5485    5.1282    0.0546 C.ar    1  LIG1        0.1934
     16 C          -0.5908    5.8911   -0.0526 C.ar    1  LIG1        0.1159
     17 C          -0.1504    7.2541    0.0477 C.ar    1  LIG1        0.1849
     18 C           1.2112    7.2224    0.2079 C.ar    1  LIG1        0.2146
     19 O           1.6303    5.9224    0.2140 O.2     1  LIG1       -0.4434
     20 C          -1.9321    5.4666   -0.2267 C.1     1  LIG1       -0.0620
     21 C          -3.0790    5.1328   -0.3707 C.1     1  LIG1       -0.1137
     22 H          -4.0929    4.8334   -0.5024 H       1  LIG1        0.1232
     23 O          -0.9733    8.3183   -0.0386 O.3     1  LIG1       -0.4901
     24 C          -1.1312    9.0748    1.1618 C.3     1  LIG1        0.0790
     25 H          -1.8666    9.8465    0.9385 H       1  LIG1        0.0660
     26 H          -1.4974    8.4363    1.9721 H       1  LIG1        0.0660
     27 H          -0.1940    9.5538    1.4524 H       1  LIG1        0.0660
     28 C           2.2204    8.2281    0.3502 C.ar    1  LIG1        0.1934
     29 C           3.5468    8.1790    0.7175 C.ar    1  LIG1        0.1159
     30 C           4.0027    9.5434    0.6692 C.ar    1  LIG1        0.1849
     31 C           2.9369   10.3075    0.2812 C.ar    1  LIG1        0.2146
     32 O           1.8498    9.5010    0.0945 O.2     1  LIG1       -0.4434
     33 C           4.2753    7.0390    1.1416 C.1     1  LIG1       -0.0620
     34 C           4.8832    6.0671    1.5108 C.1     1  LIG1       -0.1137
     35 H           5.3835    5.1929    1.8590 H       1  LIG1        0.1232
     36 O           5.2205   10.0186    0.9998 O.3     1  LIG1       -0.4901
     37 C           6.3126    9.4798    0.2596 C.3     1  LIG1        0.0790
     38 H           7.2086    9.9643    0.6469 H       1  LIG1        0.0660
     39 H           6.3928    8.3987    0.3975 H       1  LIG1        0.0660
     40 H           6.2064    9.7079   -0.8063 H       1  LIG1        0.0660
     41 C           2.7507   11.7115    0.0503 C.ar    1  LIG1        0.1924
     42 C           1.6923   12.4268   -0.4599 C.ar    1  LIG1        0.1152
     43 C           2.1268   13.7981   -0.4379 C.ar    1  LIG1        0.1737
     44 C           3.3869   13.8120    0.0684 C.ar    1  LIG1        0.1355
     45 O           3.7709   12.5330    0.3698 O.2     1  LIG1       -0.4547
     46 H           4.1069   14.5847    0.2726 H       1  LIG1        0.1068
     47 C           0.4515   11.9414   -0.9417 C.1     1  LIG1       -0.0621
     48 C          -0.5983   11.5264   -1.3598 C.1     1  LIG1       -0.1137
     49 H          -1.5126   11.1346   -1.7418 H       1  LIG1        0.1232
     50 O           1.3480   14.8068   -0.8672 O.3     1  LIG1       -0.4907
     51 C           1.9334   16.0904   -0.7793 C.3     1  LIG1        0.0790
     52 H           1.1973   16.7981   -1.1583 H       1  LIG1        0.0660
     53 H           2.1796   16.3394    0.2601 H       1  LIG1        0.0660
     54 H           2.8445   16.1489   -1.3873 H       1  LIG1        0.0660
@<TRIPOS>BOND
     1    13    11    1
     2    49    48    1
     3    14    11    1
     4    54    51    1
     5    48    47    3
     6    52    51    1
     7    11    12    1
     8    11    10    1
     9    47    42    1
    10    50    51    1
    11    50    43    1
    12    40    37    1
    13    51    53    1
    14    22    21    1
    15    42    43   ar
    16    42    41   ar
    17    43    44   ar
    18    21    20    3
    19    20    16    1
    20     6     1    1
    21    16    17   ar
    22    16    15   ar
    23     1     5   ar
    24     1     2   ar
    25     5     4   ar
    26    23    17    1
    27    23    24    1
    28     2     7    1
    29     2     3   ar
    30     4    15    1
    31     4     3   ar
    32     7     8    3
    33     8     9    1
    34    17    18   ar
    35    41    31    1
    36    41    45   ar
    37    15    19   ar
    38    44    46    1
    39    44    45   ar
    40     3    10    1
    41    32    31   ar
    42    32    28   ar
    43    18    19   ar
    44    18    28    1
    45    37    39    1
    46    37    38    1
    47    37    36    1
    48    31    30   ar
    49    28    29   ar
    50    30    29   ar
    51    30    36    1
    52    29    33    1
    53    25    24    1
    54    33    34    3
    55    24    27    1
    56    24    26    1
    57    34    35    1
