@<TRIPOS>MOLECULE
mol_data/opt/cam/geoms/mol2/12el12el12el12el.out
 54 57 0 0 0
SMALL
GASTEIGER

@<TRIPOS>ATOM
      1 C           0.5975    1.6898    1.3849 C.ar    1  LIG1        0.1118
      2 C           1.7643    1.5684    0.6893 C.ar    1  LIG1        0.1047
      3 C           2.0227    2.8850    0.1585 C.ar    1  LIG1        0.1842
      4 C           1.0037    3.6867    0.5904 C.ar    1  LIG1        0.2136
      5 O           0.1264    2.9446    1.3328 O.2     1  LIG1       -0.4547
      6 H           0.0111    0.9750    1.9400 H       1  LIG1        0.1043
      7 C           2.5115    0.3760    0.4930 C.1     1  LIG1       -0.0628
      8 C           3.1397   -0.6377    0.3296 C.1     1  LIG1       -0.1137
      9 H           3.6877   -1.5390    0.1774 H       1  LIG1        0.1232
     10 O           3.0008    3.2653   -0.6859 O.3     1  LIG1       -0.4901
     11 C           4.3348    3.0372   -0.2380 C.3     1  LIG1        0.0790
     12 H           4.9847    3.3594   -1.0510 H       1  LIG1        0.0660
     13 H           4.5448    3.6349    0.6541 H       1  LIG1        0.0660
     14 H           4.5073    1.9789   -0.0290 H       1  LIG1        0.0660
     15 C           0.6819    5.0745    0.3903 C.ar    1  LIG1        0.1934
     16 C           1.4430    6.1943    0.1480 C.ar    1  LIG1        0.1159
     17 C           0.4999    7.2762    0.0393 C.ar    1  LIG1        0.1849
     18 C          -0.7421    6.7461    0.2430 C.ar    1  LIG1        0.2146
     19 O          -0.6263    5.4010    0.4561 O.2     1  LIG1       -0.4434
     20 C           2.8555    6.3145    0.1113 C.1     1  LIG1       -0.0620
     21 C           4.0494    6.4727    0.0942 C.1     1  LIG1       -0.1137
     22 H           5.1056    6.6129    0.0851 H       1  LIG1        0.1232
     23 O           0.7685    8.5786   -0.1821 O.3     1  LIG1       -0.4901
     24 C           1.4093    8.8670   -1.4224 C.3     1  LIG1        0.0790
     25 H           1.5324    9.9493   -1.4533 H       1  LIG1        0.0660
     26 H           2.3878    8.3844   -1.4871 H       1  LIG1        0.0660
     27 H           0.7856    8.5458   -2.2633 H       1  LIG1        0.0660
     28 C          -2.0679    7.3023    0.2654 C.ar    1  LIG1        0.1934
     29 C          -2.5631    8.5520    0.5581 C.ar    1  LIG1        0.1159
     30 C          -3.9854    8.4497    0.3602 C.ar    1  LIG1        0.1849
     31 C          -4.2472    7.1619   -0.0094 C.ar    1  LIG1        0.2146
     32 O          -3.0743    6.4634   -0.0671 O.2     1  LIG1       -0.4434
     33 C          -1.8639    9.6831    1.0508 C.1     1  LIG1       -0.0620
     34 C          -1.3004   10.6543    1.4847 C.1     1  LIG1       -0.1137
     35 H          -0.7854   11.4980    1.8822 H       1  LIG1        0.1232
     36 O          -4.9120    9.4135    0.5396 O.3     1  LIG1       -0.4901
     37 C          -4.7526   10.5727   -0.2730 C.3     1  LIG1        0.0790
     38 H          -5.5835   11.2324   -0.0237 H       1  LIG1        0.0660
     39 H          -3.8069   11.0790   -0.0641 H       1  LIG1        0.0660
     40 H          -4.8016   10.3101   -1.3354 H       1  LIG1        0.0660
     41 C          -5.4550    6.4495   -0.3348 C.ar    1  LIG1        0.1924
     42 C          -6.7660    6.5902    0.0524 C.ar    1  LIG1        0.1152
     43 C          -7.4823    5.5628   -0.6679 C.ar    1  LIG1        0.1737
     44 C          -6.5681    4.8934   -1.4088 C.ar    1  LIG1        0.1355
     45 O          -5.3311    5.4228   -1.2093 O.2     1  LIG1       -0.4547
     46 H          -6.6378    4.0460   -2.0697 H       1  LIG1        0.1068
     47 C          -7.3047    7.4673    1.0276 C.1     1  LIG1       -0.0621
     48 C          -7.7883    8.1896    1.8606 C.1     1  LIG1       -0.1137
     49 H          -8.1933    8.8274    2.6116 H       1  LIG1        0.1232
     50 O          -8.7985    5.2563   -0.5777 O.3     1  LIG1       -0.4907
     51 C          -9.6858    6.2986   -0.9673 C.3     1  LIG1        0.0790
     52 H         -10.6947    5.9062   -0.8377 H       1  LIG1        0.0660
     53 H          -9.5577    7.1862   -0.3421 H       1  LIG1        0.0660
     54 H          -9.5320    6.5675   -2.0186 H       1  LIG1        0.0660
@<TRIPOS>BOND
     1    27    24    1
     2    46    44    1
     3    54    51    1
     4    26    24    1
     5    25    24    1
     6    24    23    1
     7    44    45   ar
     8    44    43   ar
     9    40    37    1
    10    45    41   ar
    11    12    11    1
    12    51    52    1
    13    51    50    1
    14    51    53    1
    15    10    11    1
    16    10     3    1
    17    43    50    1
    18    43    42   ar
    19    41    31    1
    20    41    42   ar
    21    37    39    1
    22    37    38    1
    23    37    36    1
    24    11    14    1
    25    11    13    1
    26    23    17    1
    27    32    31   ar
    28    32    28   ar
    29    31    30   ar
    30    17    16   ar
    31    17    18   ar
    32    42    47    1
    33    22    21    1
    34    21    20    3
    35    20    16    1
    36    16    15   ar
    37     3     4   ar
    38     3     2   ar
    39     9     8    1
    40    18    28    1
    41    18    19   ar
    42    28    29   ar
    43     8     7    3
    44    30    36    1
    45    30    29   ar
    46    15    19   ar
    47    15     4    1
    48     7     2    1
    49    29    33    1
    50     4     5   ar
    51     2     1   ar
    52    47    48    3
    53    33    34    3
    54     5     1   ar
    55     1     6    1
    56    34    35    1
    57    48    49    1
