@<TRIPOS>MOLECULE
mol_data/opt/cam/geoms/mol2/12el12el-12el12el.out
 54 57 0 0 0
SMALL
GASTEIGER

@<TRIPOS>ATOM
      1 C           0.2705    1.6702   -0.6594 C.ar    1  LIG1        0.1118
      2 C           1.6137    1.6667   -0.4282 C.ar    1  LIG1        0.1047
      3 C           1.9546    3.0359   -0.1463 C.ar    1  LIG1        0.1842
      4 C           0.7920    3.7539   -0.2397 C.ar    1  LIG1        0.2136
      5 O          -0.2343    2.9137   -0.5526 O.2     1  LIG1       -0.4547
      6 H          -0.4287    0.8868   -0.9036 H       1  LIG1        0.1043
      7 C           2.4989    0.5566   -0.4519 C.1     1  LIG1       -0.0628
      8 C           3.2545   -0.3793   -0.4778 C.1     1  LIG1       -0.1137
      9 H           3.9229   -1.2090   -0.4937 H       1  LIG1        0.1232
     10 O           3.1846    3.4830    0.1871 O.3     1  LIG1       -0.4901
     11 C           3.9281    4.0461   -0.8921 C.3     1  LIG1        0.0790
     12 H           4.8820    4.3629   -0.4725 H       1  LIG1        0.0660
     13 H           4.0950    3.3020   -1.6780 H       1  LIG1        0.0660
     14 H           3.4133    4.9179   -1.3047 H       1  LIG1        0.0660
     15 C           0.4873    5.1447   -0.0635 C.ar    1  LIG1        0.1934
     16 C          -0.6832    5.8627   -0.0755 C.ar    1  LIG1        0.1159
     17 C          -0.3049    7.2243    0.1875 C.ar    1  LIG1        0.1849
     18 C           1.0634    7.2404    0.3234 C.ar    1  LIG1        0.2146
     19 O           1.5341    5.9578    0.1735 O.2     1  LIG1       -0.4434
     20 C          -2.0095    5.4008   -0.2653 C.1     1  LIG1       -0.0620
     21 C          -3.1435    5.0309   -0.4229 C.1     1  LIG1       -0.1137
     22 H          -4.1468    4.7010   -0.5624 H       1  LIG1        0.1232
     23 O          -1.2378    8.1804    0.2678 O.3     1  LIG1       -0.4901
     24 C          -1.0180    9.3005    1.1206 C.3     1  LIG1        0.0790
     25 H          -2.0048    9.7177    1.3205 H       1  LIG1        0.0660
     26 H          -0.5592    8.9829    2.0625 H       1  LIG1        0.0660
     27 H          -0.3860   10.0493    0.6424 H       1  LIG1        0.0660
     28 C           2.0776    8.2335    0.5373 C.ar    1  LIG1        0.1934
     29 C           3.3595    8.1432    1.0323 C.ar    1  LIG1        0.1159
     30 C           3.8822    9.4839    0.9807 C.ar    1  LIG1        0.1849
     31 C           2.9034   10.2758    0.4532 C.ar    1  LIG1        0.2146
     32 O           1.8012    9.5065    0.1823 O.2     1  LIG1       -0.4434
     33 C           3.9832    6.9927    1.5781 C.1     1  LIG1       -0.0620
     34 C           4.5009    6.0096    2.0426 C.1     1  LIG1       -0.1137
     35 H           4.9227    5.1258    2.4632 H       1  LIG1        0.1232
     36 O           5.0596    9.9291    1.4595 O.3     1  LIG1       -0.4901
     37 C           6.2264    9.3219    0.9106 C.3     1  LIG1        0.0790
     38 H           7.0711    9.7551    1.4454 H       1  LIG1        0.0660
     39 H           6.2162    8.2394    1.0579 H       1  LIG1        0.0660
     40 H           6.3124    9.5564   -0.1550 H       1  LIG1        0.0660
     41 C           2.7853   11.6836    0.1854 C.ar    1  LIG1        0.1924
     42 C           3.6883   12.6702   -0.1273 C.ar    1  LIG1        0.1152
     43 C           2.9001   13.8745   -0.2618 C.ar    1  LIG1        0.1737
     44 C           1.6110   13.5267   -0.0427 C.ar    1  LIG1        0.1355
     45 O           1.5317   12.1968    0.2400 O.2     1  LIG1       -0.4547
     46 H           0.6902   14.0851   -0.0359 H       1  LIG1        0.1068
     47 C           5.0899   12.5600   -0.3108 C.1     1  LIG1       -0.0621
     48 C           6.2786   12.5117   -0.5004 C.1     1  LIG1       -0.1137
     49 H           7.3337   12.4721   -0.6433 H       1  LIG1        0.1232
     50 O           3.3497   15.1273   -0.5108 O.3     1  LIG1       -0.4907
     51 C           3.9256   15.3110   -1.8003 C.3     1  LIG1        0.0790
     52 H           4.2457   16.3519   -1.8475 H       1  LIG1        0.0660
     53 H           4.7894   14.6573   -1.9478 H       1  LIG1        0.0660
     54 H           3.1858   15.1206   -2.5861 H       1  LIG1        0.0660
@<TRIPOS>BOND
     1    54    51    1
     2    53    51    1
     3    52    51    1
     4    51    50    1
     5    13    11    1
     6    14    11    1
     7     6     1    1
     8    11    12    1
     9    11    10    1
    10     1     5   ar
    11     1     2   ar
    12    49    48    1
    13    22    21    1
    14     5     4   ar
    15    50    43    1
    16    48    47    3
    17     9     8    1
    18     8     7    3
    19     7     2    1
    20     2     3   ar
    21    21    20    3
    22    47    42    1
    23    20    16    1
    24    43    42   ar
    25    43    44   ar
    26     4     3   ar
    27     4    15    1
    28    40    37    1
    29     3    10    1
    30    42    41   ar
    31    16    15   ar
    32    16    17   ar
    33    15    19   ar
    34    44    46    1
    35    44    45   ar
    36    19    18   ar
    37    32    31   ar
    38    32    28   ar
    39    41    45   ar
    40    41    31    1
    41    17    23    1
    42    17    18   ar
    43    23    24    1
    44    18    28    1
    45    31    30   ar
    46    28    29   ar
    47    27    24    1
    48    37    39    1
    49    37    38    1
    50    37    36    1
    51    30    29   ar
    52    30    36    1
    53    29    33    1
    54    24    25    1
    55    24    26    1
    56    33    34    3
    57    34    35    1
