@<TRIPOS>MOLECULE
mol_data/opt/cam/geoms/mol2/12el12el12el12el-.out
 54 57 0 0 0
SMALL
GASTEIGER

@<TRIPOS>ATOM
      1 C           0.3542    1.5451    0.2247 C.ar    1  LIG1        0.1118
      2 C           1.6783    1.5950    0.5452 C.ar    1  LIG1        0.1047
      3 C           2.0392    2.9873    0.4304 C.ar    1  LIG1        0.1842
      4 C           0.9123    3.6526    0.0370 C.ar    1  LIG1        0.2136
      5 O          -0.1225    2.7633   -0.0768 O.2     1  LIG1       -0.4547
      6 H          -0.3459    0.7259    0.1829 H       1  LIG1        0.1043
      7 C           2.4894    0.5047    0.9600 C.1     1  LIG1       -0.0628
      8 C           3.1709   -0.4230    1.3118 C.1     1  LIG1       -0.1137
      9 H           3.7691   -1.2442    1.6335 H       1  LIG1        0.1232
     10 O           3.2115    3.5720    0.7438 O.3     1  LIG1       -0.4901
     11 C           4.3574    3.0805    0.0527 C.3     1  LIG1        0.0790
     12 H           5.2088    3.6307    0.4520 H       1  LIG1        0.0660
     13 H           4.4975    2.0113    0.2280 H       1  LIG1        0.0660
     14 H           4.2687    3.2764   -1.0201 H       1  LIG1        0.0660
     15 C           0.6230    5.0383   -0.2202 C.ar    1  LIG1        0.1934
     16 C           1.3884    6.0990   -0.6460 C.ar    1  LIG1        0.1159
     17 C           0.4869    7.2200   -0.6979 C.ar    1  LIG1        0.1849
     18 C          -0.7388    6.7645   -0.3022 C.ar    1  LIG1        0.2146
     19 O          -0.6522    5.4305   -0.0186 O.2     1  LIG1       -0.4434
     20 C           2.7382    6.0972   -1.0809 C.1     1  LIG1       -0.0620
     21 C           3.8729    6.1434   -1.4822 C.1     1  LIG1       -0.1137
     22 H           4.8745    6.1829   -1.8434 H       1  LIG1        0.1232
     23 O           0.7492    8.4595   -1.1555 O.3     1  LIG1       -0.4901
     24 C           1.7322    9.1928   -0.4285 C.3     1  LIG1        0.0790
     25 H           1.8673   10.1310   -0.9659 H       1  LIG1        0.0660
     26 H           1.3783    9.4030    0.5853 H       1  LIG1        0.0660
     27 H           2.6814    8.6529   -0.3912 H       1  LIG1        0.0660
     28 C          -2.0389    7.3647   -0.1826 C.ar    1  LIG1        0.1934
     29 C          -2.4931    8.6503    0.0027 C.ar    1  LIG1        0.1159
     30 C          -3.9277    8.5472    0.0239 C.ar    1  LIG1        0.1849
     31 C          -4.2347    7.2237   -0.1205 C.ar    1  LIG1        0.2146
     32 O          -3.0840    6.5098   -0.2555 O.2     1  LIG1       -0.4434
     33 C          -1.7585    9.8500    0.1784 C.1     1  LIG1       -0.0620
     34 C          -1.1906   10.8960    0.3634 C.1     1  LIG1       -0.1137
     35 H          -0.6854   11.8239    0.5006 H       1  LIG1        0.1232
     36 O          -4.8046    9.5698    0.1276 O.3     1  LIG1       -0.4901
     37 C          -4.9365   10.1071    1.4403 C.3     1  LIG1        0.0790
     38 H          -5.6486   10.9290    1.3653 H       1  LIG1        0.0660
     39 H          -5.3240    9.3500    2.1301 H       1  LIG1        0.0660
     40 H          -3.9790   10.4869    1.8094 H       1  LIG1        0.0660
     41 C          -5.4673    6.4888   -0.1572 C.ar    1  LIG1        0.1924
     42 C          -5.7367    5.1550   -0.3489 C.ar    1  LIG1        0.1152
     43 C          -7.1688    5.0501   -0.2628 C.ar    1  LIG1        0.1737
     44 C          -7.6498    6.2988   -0.0295 C.ar    1  LIG1        0.1355
     45 O          -6.6072    7.1837    0.0377 O.2     1  LIG1       -0.4547
     46 H          -8.6339    6.7129    0.1019 H       1  LIG1        0.1068
     47 C          -4.8181    4.1008   -0.5780 C.1     1  LIG1       -0.0621
     48 C          -4.0279    3.2138   -0.7693 C.1     1  LIG1       -0.1137
     49 H          -3.2980    2.4554   -0.9313 H       1  LIG1        0.1232
     50 O          -7.8152    3.8792   -0.4037 O.3     1  LIG1       -0.4907
     51 C          -9.2222    3.9590   -0.2964 C.3     1  LIG1        0.0790
     52 H          -9.6055    2.9482   -0.4297 H       1  LIG1        0.0660
     53 H          -9.5203    4.3366    0.6894 H       1  LIG1        0.0660
     54 H          -9.6388    4.6137   -1.0716 H       1  LIG1        0.0660
@<TRIPOS>BOND
     1    22    21    1
     2    21    20    3
     3    23    17    1
     4    23    24    1
     5    20    16    1
     6    54    51    1
     7    14    11    1
     8    25    24    1
     9    49    48    1
    10    48    47    3
    11    17    16   ar
    12    17    18   ar
    13    16    15   ar
    14    47    42    1
    15    52    51    1
    16    24    27    1
    17    24    26    1
    18    50    51    1
    19    50    43    1
    20    42    43   ar
    21    42    41   ar
    22    18    28    1
    23    18    19   ar
    24    51    53    1
    25    43    44   ar
    26    32    28   ar
    27    32    31   ar
    28    15    19   ar
    29    15     4    1
    30    28    29   ar
    31    41    31    1
    32    41    45   ar
    33    31    30   ar
    34     5     4   ar
    35     5     1   ar
    36    44    45   ar
    37    44    46    1
    38    29    30   ar
    39    29    33    1
    40    30    36    1
    41     4     3   ar
    42    11    13    1
    43    11    12    1
    44    11    10    1
    45    36    37    1
    46    33    34    3
    47     6     1    1
    48     1     2   ar
    49    34    35    1
    50     3     2   ar
    51     3    10    1
    52     2     7    1
    53     7     8    3
    54     8     9    1
    55    38    37    1
    56    37    40    1
    57    37    39    1
