@<TRIPOS>MOLECULE
mol_data/opt/cam/geoms/mol2/12fa12fa12fa12fa.out
 34 37 0 0 0
SMALL
GASTEIGER

@<TRIPOS>ATOM
      1 C           0.8710    1.6005   -0.0001 C.ar    1  LIG1        0.1340
      2 C           2.2001    1.8774   -0.0000 C.ar    1  LIG1        0.1551
      3 C           2.3346    3.2983   -0.0000 C.ar    1  LIG1        0.0290
      4 C           1.0573    3.7842   -0.0001 C.ar    1  LIG1        0.1770
      5 O           0.1634    2.7716   -0.0001 O.2     1  LIG1       -0.4560
      6 H           0.3037    0.6863   -0.0001 H       1  LIG1        0.1068
      7 O           3.1900    0.9453    0.0000 O.3     1  LIG1       -0.5036
      8 H           4.0390    1.3992    0.0001 H       1  LIG1        0.2923
      9 H           3.2386    3.8887    0.0000 H       1  LIG1        0.0693
     10 C           0.5576    5.1292   -0.0001 C.ar    1  LIG1        0.2119
     11 C           1.1991    6.3372   -0.0001 C.ar    1  LIG1        0.1665
     12 C           0.2024    7.3490   -0.0001 C.ar    1  LIG1        0.0298
     13 C          -0.9927    6.6811   -0.0001 C.ar    1  LIG1        0.1780
     14 O          -0.7934    5.3444   -0.0001 O.2     1  LIG1       -0.4447
     15 O           2.5504    6.4744   -0.0000 O.3     1  LIG1       -0.5031
     16 H           2.7702    7.4122    0.0000 H       1  LIG1        0.2923
     17 H           0.3298    8.4209   -0.0001 H       1  LIG1        0.0693
     18 C          -2.3411    7.1629   -0.0002 C.ar    1  LIG1        0.2119
     19 C          -2.8520    8.4328   -0.0002 C.ar    1  LIG1        0.1665
     20 C          -4.2675    8.3212   -0.0002 C.ar    1  LIG1        0.0298
     21 C          -4.5252    6.9774   -0.0003 C.ar    1  LIG1        0.1780
     22 O          -3.3755    6.2685   -0.0002 O.2     1  LIG1       -0.4447
     23 O          -2.0855    9.5529   -0.0002 O.3     1  LIG1       -0.5031
     24 H          -2.6585   10.3272   -0.0002 H       1  LIG1        0.2923
     25 H          -5.0063    9.1084   -0.0003 H       1  LIG1        0.0693
     26 C          -5.7633    6.2530   -0.0003 C.ar    1  LIG1        0.2109
     27 C          -7.0625    6.6791   -0.0003 C.ar    1  LIG1        0.1657
     28 C          -7.8837    5.5134   -0.0003 C.ar    1  LIG1        0.0185
     29 C          -7.0208    4.4649   -0.0004 C.ar    1  LIG1        0.0964
     30 O          -5.7420    4.8889   -0.0003 O.2     1  LIG1       -0.4560
     31 H          -7.1659    3.3965   -0.0005 H       1  LIG1        0.1031
     32 O          -7.4290    7.9862   -0.0003 O.3     1  LIG1       -0.5031
     33 H          -8.3902    8.0479   -0.0003 H       1  LIG1        0.2923
     34 H          -8.9629    5.4658   -0.0003 H       1  LIG1        0.0686
@<TRIPOS>BOND
     1    31    29    1
     2    29    28   ar
     3    29    30   ar
     4    32    33    1
     5    32    27    1
     6    27    28   ar
     7    27    26   ar
     8    28    34    1
     9    26    30   ar
    10    26    21    1
    11    25    20    1
    12    21    20   ar
    13    21    22   ar
    14    20    19   ar
    15    22    18   ar
    16    19    18   ar
    17    19    23    1
    18    24    23    1
    19    18    13    1
    20    13    14   ar
    21    13    12   ar
    22    14    10   ar
    23     6     1    1
    24     5     1   ar
    25     5     4   ar
    26     1     2   ar
    27    12    17    1
    28    12    11   ar
    29    10     4    1
    30    10    11   ar
    31     4     3   ar
    32    11    15    1
    33     2     3   ar
    34     2     7    1
    35    15    16    1
    36     3     9    1
    37     7     8    1
