@<TRIPOS>MOLECULE
mol_data/opt/cam/geoms/mol2/12fa12fa12fa-12fa-.out
 34 37 0 0 0
SMALL
GASTEIGER

@<TRIPOS>ATOM
      1 C           0.2309    1.6927   -0.0001 C.ar    1  LIG1        0.1340
      2 C           1.5879    1.7326   -0.0000 C.ar    1  LIG1        0.1551
      3 C           1.9707    3.1086   -0.0000 C.ar    1  LIG1        0.0290
      4 C           0.7999    3.8107   -0.0001 C.ar    1  LIG1        0.1770
      5 O          -0.2606    2.9715   -0.0001 O.2     1  LIG1       -0.4560
      6 H          -0.4877    0.8920   -0.0001 H       1  LIG1        0.1068
      7 O           2.3966    0.6420    0.0000 O.3     1  LIG1       -0.5036
      8 H           3.3137    0.9353    0.0000 H       1  LIG1        0.2923
      9 H           2.9646    3.5303    0.0000 H       1  LIG1        0.0693
     10 C           0.5282    5.2182   -0.0001 C.ar    1  LIG1        0.2119
     11 C           1.3323    6.3221   -0.0000 C.ar    1  LIG1        0.1665
     12 C           0.4928    7.4735   -0.0001 C.ar    1  LIG1        0.0298
     13 C          -0.7851    6.9948   -0.0001 C.ar    1  LIG1        0.1780
     14 O          -0.7817    5.6340   -0.0001 O.2     1  LIG1       -0.4447
     15 O           2.6865    6.2616    0.0000 O.3     1  LIG1       -0.5031
     16 H           3.0455    7.1554    0.0001 H       1  LIG1        0.2923
     17 H           0.7868    8.5123   -0.0001 H       1  LIG1        0.0693
     18 C          -2.0891    7.5738   -0.0002 C.ar    1  LIG1        0.2119
     19 C          -3.3256    6.9837   -0.0002 C.ar    1  LIG1        0.1665
     20 C          -4.2807    8.0360   -0.0003 C.ar    1  LIG1        0.0298
     21 C          -3.5595    9.2005   -0.0003 C.ar    1  LIG1        0.1780
     22 O          -2.2320    8.9352   -0.0002 O.2     1  LIG1       -0.4447
     23 O          -3.6338    5.6753   -0.0002 O.3     1  LIG1       -0.5031
     24 H          -2.8116    5.1614   -0.0002 H       1  LIG1        0.2923
     25 H          -5.3514    7.8987   -0.0004 H       1  LIG1        0.0693
     26 C          -3.9422   10.5856   -0.0003 C.ar    1  LIG1        0.2109
     27 C          -5.1573   11.2204   -0.0002 C.ar    1  LIG1        0.1657
     28 C          -4.8958   12.6207   -0.0004 C.ar    1  LIG1        0.0185
     29 C          -3.5457   12.7374   -0.0004 C.ar    1  LIG1        0.0964
     30 O          -2.9493   11.5273   -0.0004 O.2     1  LIG1       -0.4560
     31 H          -2.8836   13.5886   -0.0005 H       1  LIG1        0.1031
     32 O          -6.4064   10.7049   -0.0000 O.3     1  LIG1       -0.5031
     33 H          -6.3699    9.7424    0.0001 H       1  LIG1        0.2923
     34 H          -5.6299   13.4112   -0.0004 H       1  LIG1        0.0686
@<TRIPOS>BOND
     1    31    29    1
     2    30    29   ar
     3    30    26   ar
     4    29    28   ar
     5    25    20    1
     6    34    28    1
     7    28    27   ar
     8    20    21   ar
     9    20    19   ar
    10    26    21    1
    11    26    27   ar
    12    21    22   ar
    13    23    19    1
    14    23    24    1
    15    19    18   ar
    16    27    32    1
    17    22    18   ar
    18    18    13    1
    19    13    14   ar
    20    13    12   ar
    21    14    10   ar
    22     5     1   ar
    23     5     4   ar
    24     6     1    1
    25    12    17    1
    26    12    11   ar
    27    10     4    1
    28    10    11   ar
    29     1     2   ar
    30     4     3   ar
    31    32    33    1
    32    11    15    1
    33     2     3   ar
    34     2     7    1
    35     3     9    1
    36     7     8    1
    37    15    16    1
