@<TRIPOS>MOLECULE
mol_data/opt/cam/geoms/mol2/12fa12ld12ee4fh-.out
 46 49 0 0 0
SMALL
GASTEIGER

@<TRIPOS>ATOM
      1 C           0.4999    1.5114    1.3921 C.ar    1  LIG1        0.1340
      2 C           1.7958    1.5189    0.9821 C.ar    1  LIG1        0.1551
      3 C           2.0475    2.8046    0.4175 C.ar    1  LIG1        0.0290
      4 C           0.8708    3.4870    0.5318 C.ar    1  LIG1        0.1770
      5 O          -0.0722    2.7200    1.1191 O.2     1  LIG1       -0.4560
      6 H          -0.1226    0.7707    1.8630 H       1  LIG1        0.1068
      7 O           2.6538    0.4749    1.1054 O.3     1  LIG1       -0.5036
      8 H           3.5011    0.7178    0.7179 H       1  LIG1        0.2923
      9 H           2.9583    3.1810   -0.0233 H       1  LIG1        0.0693
     10 C           0.5103    4.8270    0.1557 C.ar    1  LIG1        0.2135
     11 C           1.2504    5.8548   -0.3507 C.ar    1  LIG1        0.1869
     12 C           0.3413    6.9474   -0.5682 C.ar    1  LIG1        0.1428
     13 C          -0.8921    6.4957   -0.1536 C.ar    1  LIG1        0.1930
     14 O          -0.7897    5.2177    0.2692 O.2     1  LIG1       -0.4434
     15 O           2.5658    5.7761   -0.6467 O.3     1  LIG1       -0.4900
     16 C           3.3923    6.8046   -0.0983 C.3     1  LIG1        0.0790
     17 H           4.4138    6.5522   -0.3809 H       1  LIG1        0.0660
     18 H           3.1361    7.7839   -0.5089 H       1  LIG1        0.0660
     19 H           3.3072    6.8273    0.9927 H       1  LIG1        0.0660
     20 N           0.9746    9.1426   -1.7554 N.1     1  LIG1       -0.1906
     21 C           0.6591    8.1720   -1.2092 C.1     1  LIG1        0.1068
     22 C          -2.2009    7.0874   -0.0859 C.ar    1  LIG1        0.1885
     23 C          -2.6558    8.3678    0.0926 C.ar    1  LIG1        0.0895
     24 C          -4.0964    8.2806    0.0811 C.ar    1  LIG1        0.0866
     25 C          -4.4010    6.9516   -0.0756 C.ar    1  LIG1        0.1559
     26 O          -3.2522    6.2343   -0.1834 O.2     1  LIG1       -0.4490
     27 C          -1.8902    9.5421    0.2937 C.1     1  LIG1       -0.0645
     28 C          -1.2455   10.5410    0.4757 C.1     1  LIG1       -0.1138
     29 H          -0.6602   11.4206    0.6146 H       1  LIG1        0.1232
     30 C          -4.9722    9.3948    0.1461 C.1     1  LIG1       -0.0646
     31 C          -5.6734   10.3717    0.1738 C.1     1  LIG1       -0.1138
     32 H          -6.2961   11.2356    0.1989 H       1  LIG1        0.1232
     33 C          -6.7709    6.4667    0.5572 C.ar    1  LIG1        0.1276
     34 C          -7.9251    5.7154    0.3636 C.ar    1  LIG1       -0.0177
     35 C          -5.6378    6.1869   -0.2163 C.ar    1  LIG1        0.0616
     36 C          -7.9599    4.6860   -0.5634 C.ar    1  LIG1       -0.0376
     37 H          -8.8074    5.9304    0.9610 H       1  LIG1        0.0655
     38 C          -5.6805    5.1328   -1.1330 C.ar    1  LIG1       -0.0268
     39 C          -6.8303    4.3713   -1.3235 C.ar    1  LIG1        0.0254
     40 H          -4.7886    4.9139   -1.7107 H       1  LIG1        0.0644
     41 H          -8.8713    4.1093   -0.6901 H       1  LIG1        0.0637
     42 O          -6.6835    7.4434    1.4998 O.3     1  LIG1       -0.5061
     43 H          -7.5474    7.5809    1.9039 H       1  LIG1        0.2922
     44 N          -6.8411    3.2921   -2.2120 N.pl3   1  LIG1       -0.3579
     45 H          -7.7503    3.0673   -2.5891 H       1  LIG1        0.1423
     46 H          -6.1438    3.3414   -2.9406 H       1  LIG1        0.1423
@<TRIPOS>BOND
     1    46    44    1
     2    45    44    1
     3    44    39    1
     4    20    21    3
     5    40    38    1
     6    39    38   ar
     7    39    36   ar
     8    21    12    1
     9    38    35   ar
    10    41    36    1
    11    15    11    1
    12    15    16    1
    13    12    11   ar
    14    12    13   ar
    15    36    34   ar
    16    18    16    1
    17    17    16    1
    18    11    10   ar
    19    35    25    1
    20    35    33   ar
    21    26    22   ar
    22    26    25   ar
    23    13    22    1
    24    13    14   ar
    25    16    19    1
    26    22    23   ar
    27    25    24   ar
    28     9     3    1
    29    24    23   ar
    30    24    30    1
    31    23    27    1
    32    30    31    3
    33    10    14   ar
    34    10     4    1
    35    31    32    1
    36    27    28    3
    37    34    33   ar
    38    34    37    1
    39     3     4   ar
    40     3     2   ar
    41    28    29    1
    42     4     5   ar
    43    33    42    1
    44     8     7    1
    45     2     7    1
    46     2     1   ar
    47     5     1   ar
    48     1     6    1
    49    42    43    1
