@<TRIPOS>MOLECULE
mol_data/opt/cam/geoms/mol2/12fa13id13he-13fi-.out
 46 49 0 0 0
SMALL
GASTEIGER

@<TRIPOS>ATOM
      1 C           0.2149    1.8485    0.6950 C.ar    1  LIG1        0.1339
      2 C           1.5399    1.7632    0.4188 C.ar    1  LIG1        0.1551
      3 C           1.9830    3.0741    0.0581 C.ar    1  LIG1        0.0272
      4 C           0.8807    3.8745    0.1411 C.ar    1  LIG1        0.1548
      5 O          -0.1976    3.1452    0.5258 O.2     1  LIG1       -0.4577
      6 H          -0.5266    1.1322    1.0023 H       1  LIG1        0.1068
      7 O           2.2730    0.6240    0.4835 O.3     1  LIG1       -0.5036
      8 H           3.1860    0.8233    0.2512 H       1  LIG1        0.2923
      9 H           2.9813    3.3749   -0.2211 H       1  LIG1        0.0693
     10 C           0.6404    5.2770   -0.0802 C.ar    1  LIG1        0.0869
     11 C           1.4749    6.2982   -0.4688 C.ar    1  LIG1       -0.0041
     12 C           0.6658    7.4768   -0.5160 C.ar    1  LIG1        0.0820
     13 C          -0.6373    7.1435   -0.1402 C.ar    1  LIG1        0.0831
     14 N          -0.6255    5.8026    0.1031 N.ar    1  LIG1       -0.3493
     15 H          -1.3884    5.2869    0.5117 H       1  LIG1        0.1661
     16 C           2.9288    6.2133   -0.8015 C.3     1  LIG1       -0.0364
     17 H           3.3109    7.1878   -1.1114 H       1  LIG1        0.0279
     18 H           3.1138    5.5080   -1.6182 H       1  LIG1        0.0279
     19 H           3.5196    5.8836    0.0596 H       1  LIG1        0.0279
     20 N           1.4291    9.8198   -1.2607 N.1     1  LIG1       -0.1908
     21 C           1.0942    8.7580   -0.9330 C.1     1  LIG1        0.1016
     22 C          -1.8425    7.9147   -0.0106 C.ar    1  LIG1        0.0868
     23 C          -2.0816    9.2228    0.3718 C.ar    1  LIG1        0.0679
     24 C          -3.5086    9.3885    0.4536 C.ar    1  LIG1        0.0727
     25 C          -4.0946    8.1838    0.1087 C.ar    1  LIG1        0.0844
     26 N          -3.0899    7.2757   -0.1221 N.ar    1  LIG1       -0.3493
     27 H          -3.2344    6.5346   -0.7935 H       1  LIG1        0.1661
     28 N          -1.1914   10.1974    0.7565 N.pl3   1  LIG1       -0.3553
     29 H          -0.3142   10.2486    0.2569 H       1  LIG1        0.1424
     30 H          -1.6236   11.1011    0.8896 H       1  LIG1        0.1424
     31 C          -4.1330   10.5814    0.8968 C.1     1  LIG1       -0.0656
     32 C          -4.5907   11.6245    1.2908 C.1     1  LIG1       -0.1138
     33 H          -5.0224   12.5364    1.6324 H       1  LIG1        0.1232
     34 C          -5.4758    7.7895   -0.0202 C.ar    1  LIG1        0.1064
     35 C          -6.5923    8.4542   -0.4834 C.ar    1  LIG1        0.1463
     36 C          -7.7042    7.5669   -0.4465 C.ar    1  LIG1        0.0090
     37 C          -7.2257    6.3748    0.0416 C.ar    1  LIG1        0.0087
     38 N          -5.8860    6.4948    0.2675 N.ar    1  LIG1       -0.3563
     39 H          -5.3351    5.8528    0.8126 H       1  LIG1        0.1655
     40 H          -7.7496    5.4521    0.2420 H       1  LIG1        0.0811
     41 O          -6.5800    9.7287   -0.9489 O.3     1  LIG1       -0.5043
     42 H          -7.4773    9.9817   -1.1922 H       1  LIG1        0.2922
     43 C          -9.0975    7.8886   -0.8862 C.3     1  LIG1       -0.0348
     44 H          -9.7578    7.0302   -0.7472 H       1  LIG1        0.0279
     45 H          -9.1417    8.1605   -1.9474 H       1  LIG1        0.0279
     46 H          -9.5263    8.7200   -0.3147 H       1  LIG1        0.0279
@<TRIPOS>BOND
     1    45    43    1
     2    18    16    1
     3    20    21    3
     4    42    41    1
     5    17    16    1
     6    41    35    1
     7    21    12    1
     8    43    44    1
     9    43    36    1
    10    43    46    1
    11    16    11    1
    12    16    19    1
    13    27    26    1
    14    12    11   ar
    15    12    13   ar
    16    35    36   ar
    17    35    34   ar
    18    11    10   ar
    19    36    37   ar
    20     9     3    1
    21    13    22    1
    22    13    14   ar
    23    26    22   ar
    24    26    25   ar
    25    10    14   ar
    26    10     4    1
    27    34    25    1
    28    34    38   ar
    29    22    23   ar
    30    37    40    1
    31    37    38   ar
    32     3     4   ar
    33     3     2   ar
    34    14    15    1
    35    25    24   ar
    36     4     5   ar
    37     8     7    1
    38    29    28    1
    39    38    39    1
    40    23    24   ar
    41    23    28    1
    42     2     7    1
    43     2     1   ar
    44    24    31    1
    45     5     1   ar
    46     1     6    1
    47    28    30    1
    48    31    32    3
    49    32    33    1
