@<TRIPOS>MOLECULE
mol_data/opt/cam/geoms/mol2/12fa13ee-12hh6fh12ii6fl4ea4di-.out
 98 105 0 0 0
SMALL
GASTEIGER

@<TRIPOS>ATOM
      1 C           0.2803    4.2585    4.5356 C.ar    1  LIG1        0.1339
      2 C           1.6348    4.2093    4.6244 C.ar    1  LIG1        0.1551
      3 C           2.1575    4.9991    3.5556 C.ar    1  LIG1        0.0273
      4 C           1.0700    5.4764    2.8866 C.ar    1  LIG1        0.1557
      5 O          -0.0740    5.0377    3.4692 O.2     1  LIG1       -0.4577
      6 H          -0.5169    3.8218    5.1113 H       1  LIG1        0.1068
      7 O           2.3234    3.5261    5.5719 O.3     1  LIG1       -0.5036
      8 H           3.2669    3.6220    5.4050 H       1  LIG1        0.2923
      9 H           3.1904    5.1920    3.3083 H       1  LIG1        0.0693
     10 C           0.9002    6.3209    1.7336 C.ar    1  LIG1        0.0995
     11 C           1.8177    6.9413    0.9034 C.ar    1  LIG1        0.0690
     12 C           1.0684    7.6527   -0.0952 C.ar    1  LIG1        0.0691
     13 C          -0.2796    7.4489    0.1778 C.ar    1  LIG1        0.1013
     14 N          -0.3501    6.6402    1.2796 N.ar    1  LIG1       -0.3473
     15 H          -1.2044    6.3433    1.7263 H       1  LIG1        0.1662
     16 C           3.2298    6.8738    1.0042 C.1     1  LIG1       -0.0662
     17 C           4.4304    6.8182    1.0883 C.1     1  LIG1       -0.1138
     18 H           5.4935    6.7790    1.1480 H       1  LIG1        0.1232
     19 C           1.6284    8.3701   -1.1814 C.1     1  LIG1       -0.0662
     20 C           2.1235    8.9723   -2.1021 C.1     1  LIG1       -0.1138
     21 H           2.5861    9.4701   -2.9229 H       1  LIG1        0.1232
     22 C          -1.4848    7.9143   -0.4535 C.ar    1  LIG1        0.1754
     23 C          -1.8483    8.9877   -1.2197 C.ar    1  LIG1        0.0941
     24 C          -3.2670    8.8798   -1.4273 C.ar    1  LIG1        0.0928
     25 C          -3.6934    7.7606   -0.7679 C.ar    1  LIG1        0.1633
     26 O          -2.6157    7.1645   -0.1783 O.2     1  LIG1       -0.4493
     27 N          -1.1020   10.0642   -1.6593 N.pl3   1  LIG1       -0.3536
     28 H          -0.0998    9.9164   -1.6698 H       1  LIG1        0.1425
     29 H          -1.4320   10.4430   -2.5368 H       1  LIG1        0.1425
     30 N          -4.0659    9.7931   -2.1552 N.pl3   1  LIG1       -0.3536
     31 H          -3.7716   10.7508   -1.9968 H       1  LIG1        0.1425
     32 H          -4.0684    9.6072   -3.1530 H       1  LIG1        0.1425
     33 C          -5.1504    5.8036   -0.0989 C.ar    1  LIG1        0.2241
     34 C          -4.9922    7.1241   -0.5903 C.ar    1  LIG1        0.0822
     35 C          -6.1561    7.8160   -0.9157 C.ar    1  LIG1       -0.0230
     36 C          -7.4110    7.2415   -0.7421 C.ar    1  LIG1        0.0549
     37 C          -7.4480    5.9496   -0.1962 C.ar    1  LIG1        0.1306
     38 N          -6.3343    5.2636    0.0861 N.ar    1  LIG1       -0.2074
     39 H          -6.0641    8.8166   -1.3251 H       1  LIG1        0.0645
     40 O          -4.1135    4.9993    0.2144 O.3     1  LIG1       -0.4919
     41 H          -3.2831    5.4590    0.0302 H       1  LIG1        0.2938
     42 N          -8.5729    7.9468   -1.0750 N.pl3   1  LIG1       -0.3562
     43 H          -8.4252    8.6556   -1.7801 H       1  LIG1        0.1424
     44 H          -9.3520    7.3468   -1.3142 H       1  LIG1        0.1424
     45 C          -8.6990    5.2230    0.0491 C.ar    1  LIG1        0.1589
     46 C          -9.9062    5.5040    0.6244 C.ar    1  LIG1        0.0004
     47 C         -10.6469    4.2702    0.6443 C.ar    1  LIG1       -0.0010
     48 C          -9.8388    3.3261    0.0783 C.ar    1  LIG1        0.1441
     49 O          -8.6572    3.9000   -0.2867 O.2     1  LIG1       -0.4525
     50 C         -10.3666    6.7813    1.2543 C.3     1  LIG1       -0.0358
     51 H         -10.5050    6.6444    2.3317 H       1  LIG1        0.0279
     52 H         -11.3310    7.1020    0.8467 H       1  LIG1        0.0279
     53 H          -9.6539    7.5904    1.1008 H       1  LIG1        0.0279
     54 C         -12.0029    4.0881    1.2482 C.3     1  LIG1       -0.0358
     55 H         -12.1719    3.0498    1.5398 H       1  LIG1        0.0279
     56 H         -12.8044    4.3772    0.5587 H       1  LIG1        0.0279
     57 H         -12.1128    4.7070    2.1428 H       1  LIG1        0.0279
     58 C          -8.8355    1.0324   -0.1453 C.ar    1  LIG1        0.2240
     59 C          -9.9552    1.8949   -0.1711 C.ar    1  LIG1        0.0823
     60 C         -11.1970    1.3150   -0.4376 C.ar    1  LIG1       -0.0020
     61 C         -11.3106   -0.0564   -0.6056 C.ar    1  LIG1        0.1469
     62 C         -10.1533   -0.8344   -0.4618 C.ar    1  LIG1        0.1175
     63 N          -8.9582   -0.2780   -0.2773 N.ar    1  LIG1       -0.2087
     64 H         -12.0630    1.9551   -0.5433 H       1  LIG1        0.0663
     65 O          -7.5728    1.4545    0.0324 O.3     1  LIG1       -0.4919
     66 H          -7.5218    2.4233    0.0134 H       1  LIG1        0.2938
     67 O         -12.4573   -0.6982   -0.9546 O.3     1  LIG1       -0.4929
     68 C         -13.6761   -0.0126   -0.7845 C.3     1  LIG1        0.0789
     69 H         -14.4648   -0.7377   -0.9841 H       1  LIG1        0.0660
     70 H         -13.7830    0.3629    0.2400 H       1  LIG1        0.0660
     71 H         -13.7759    0.8233   -1.4881 H       1  LIG1        0.0660
     72 C         -11.0456   -3.1363    0.1612 C.ar    1  LIG1        0.0345
     73 C         -10.9948   -4.5244   -0.0029 C.ar    1  LIG1       -0.0379
     74 C         -10.1760   -2.3159   -0.5806 C.ar    1  LIG1        0.0195
     75 C         -10.0941   -5.1200   -0.8811 C.ar    1  LIG1       -0.0155
     76 H         -11.6794   -5.1331    0.5752 H       1  LIG1        0.0636
     77 C          -9.2527   -2.9223   -1.4302 C.ar    1  LIG1       -0.0507
     78 C          -9.2139   -4.2967   -1.5892 C.ar    1  LIG1       -0.0533
     79 H          -8.5511   -2.2893   -1.9610 H       1  LIG1        0.0625
     80 C         -11.9540   -2.6126    1.1389 C.1     1  LIG1       -0.0690
     81 C         -12.7077   -2.2345    1.9981 C.1     1  LIG1       -0.1139
     82 H         -13.3627   -1.9015    2.7695 H       1  LIG1        0.1232
     83 H          -8.4800   -4.7410   -2.2534 H       1  LIG1        0.0624
     84 C         -10.0862   -7.5208   -0.0438 C.ar    1  LIG1        0.0595
     85 C         -10.0584   -8.8924   -0.3176 C.ar    1  LIG1       -0.0435
     86 C         -10.0710   -6.5886   -1.0965 C.ar    1  LIG1       -0.0002
     87 C         -10.0125   -9.3488   -1.6218 C.ar    1  LIG1       -0.0576
     88 H         -10.0612   -9.5929    0.5100 H       1  LIG1        0.0631
     89 C         -10.0218   -7.0846   -2.4009 C.ar    1  LIG1       -0.0499
     90 C          -9.9943   -8.4463   -2.6865 C.ar    1  LIG1       -0.0498
     91 H         -10.0241   -6.3734   -3.2209 H       1  LIG1        0.0627
     92 H          -9.9882  -10.4163   -1.8175 H       1  LIG1        0.0621
     93 N         -10.0992   -6.8549    2.4613 N.1     1  LIG1       -0.1909
     94 C         -10.0923   -7.1198    1.3351 C.1     1  LIG1        0.0998
     95 C          -9.9767   -8.9364   -4.1089 C.3     1  LIG1       -0.0397
     96 H          -9.6362   -8.1588   -4.7956 H       1  LIG1        0.0278
     97 H         -10.9785   -9.2433   -4.4273 H       1  LIG1        0.0278
     98 H          -9.3204   -9.8030   -4.2215 H       1  LIG1        0.0278
@<TRIPOS>BOND
     1    96    95    1
     2    97    95    1
     3    98    95    1
     4    95    90    1
     5    91    89    1
     6    32    30    1
     7    21    20    1
     8    90    89   ar
     9    90    87   ar
    10    29    27    1
    11    89    86   ar
    12    83    78    1
    13    30    31    1
    14    30    24    1
    15    20    19    3
    16    79    77    1
    17    92    87    1
    18    43    42    1
    19    28    27    1
    20    27    23    1
    21    87    85   ar
    22    78    77   ar
    23    78    75   ar
    24    71    68    1
    25    77    74   ar
    26    24    23   ar
    27    24    25   ar
    28    39    35    1
    29    44    42    1
    30    23    22   ar
    31    19    12    1
    32    86    75    1
    33    86    84   ar
    34    42    36    1
    35    69    68    1
    36    67    68    1
    37    67    61    1
    38    35    36   ar
    39    35    34   ar
    40    75    73   ar
    41    68    70    1
    42    25    34    1
    43    25    26   ar
    44    36    37   ar
    45    61    62   ar
    46    61    60   ar
    47    34    33   ar
    48    74    62    1
    49    74    72   ar
    50    64    60    1
    51    62    63   ar
    52    22    26   ar
    53    22    13    1
    54    60    59   ar
    55    85    84   ar
    56    85    88    1
    57    49    45   ar
    58    49    48   ar
    59    63    58   ar
    60    37    45    1
    61    37    38   ar
    62    59    58   ar
    63    59    48    1
    64    58    65    1
    65    33    38   ar
    66    33    40    1
    67    12    13   ar
    68    12    11   ar
    69    84    94    1
    70    73    72   ar
    71    73    76    1
    72    66    65    1
    73    41    40    1
    74    45    46   ar
    75    48    47   ar
    76    72    80    1
    77    13    14   ar
    78    56    54    1
    79    46    47   ar
    80    46    50    1
    81    47    54    1
    82    52    50    1
    83    11    16    1
    84    11    10   ar
    85    16    17    3
    86    17    18    1
    87    53    50    1
    88    80    81    3
    89    54    55    1
    90    54    57    1
    91    50    51    1
    92    14    15    1
    93    14    10   ar
    94    94    93    3
    95    10     4    1
    96    81    82    1
    97     4     5   ar
    98     4     3   ar
    99     9     3    1
   100     5     1   ar
   101     3     2   ar
   102     1     2   ar
   103     1     6    1
   104     2     7    1
   105     8     7    1
