@<TRIPOS>MOLECULE
mol_data/opt/cam/geoms/mol2/12fa12fa12fa-12fa.out
 34 37 0 0 0
SMALL
GASTEIGER

@<TRIPOS>ATOM
      1 C           0.2574    1.6914   -0.0001 C.ar    1  LIG1        0.1340
      2 C           1.6136    1.7493   -0.0000 C.ar    1  LIG1        0.1551
      3 C           1.9785    3.1301   -0.0000 C.ar    1  LIG1        0.0290
      4 C           0.7985    3.8171   -0.0001 C.ar    1  LIG1        0.1770
      5 O          -0.2507    2.9638   -0.0001 O.2     1  LIG1       -0.4560
      6 H          -0.4508    0.8815   -0.0001 H       1  LIG1        0.1068
      7 O           2.4372    0.6693    0.0000 O.3     1  LIG1       -0.5036
      8 H           3.3500    0.9756    0.0001 H       1  LIG1        0.2923
      9 H           2.9669    3.5647    0.0000 H       1  LIG1        0.0693
     10 C           0.5087    5.2209   -0.0001 C.ar    1  LIG1        0.2119
     11 C           1.2995    6.3343   -0.0001 C.ar    1  LIG1        0.1665
     12 C           0.4471    7.4757   -0.0001 C.ar    1  LIG1        0.0298
     13 C          -0.8256    6.9820   -0.0001 C.ar    1  LIG1        0.1780
     14 O          -0.8062    5.6214   -0.0001 O.2     1  LIG1       -0.4447
     15 O           2.6550    6.2904   -0.0000 O.3     1  LIG1       -0.5031
     16 H           3.0013    7.1892   -0.0000 H       1  LIG1        0.2923
     17 H           0.7270    8.5184   -0.0001 H       1  LIG1        0.0693
     18 C          -2.1332    7.5511   -0.0002 C.ar    1  LIG1        0.2119
     19 C          -3.3692    6.9551   -0.0002 C.ar    1  LIG1        0.1665
     20 C          -4.3300    8.0014   -0.0002 C.ar    1  LIG1        0.0298
     21 C          -3.6108    9.1631   -0.0002 C.ar    1  LIG1        0.1780
     22 O          -2.2799    8.9118   -0.0002 O.2     1  LIG1       -0.4447
     23 O          -3.6646    5.6428   -0.0002 O.3     1  LIG1       -0.5031
     24 H          -2.8374    5.1373   -0.0002 H       1  LIG1        0.2923
     25 H          -5.4034    7.9014   -0.0002 H       1  LIG1        0.0693
     26 C          -4.0154   10.5394   -0.0003 C.ar    1  LIG1        0.2109
     27 C          -3.3432   11.7310   -0.0002 C.ar    1  LIG1        0.1657
     28 C          -4.3314   12.7627   -0.0003 C.ar    1  LIG1        0.0185
     29 C          -5.5280   12.1248   -0.0004 C.ar    1  LIG1        0.0964
     30 O          -5.3613   10.7874   -0.0003 O.2     1  LIG1       -0.4560
     31 H          -6.5472   12.4767   -0.0005 H       1  LIG1        0.1031
     32 O          -1.9960   11.8615   -0.0002 O.3     1  LIG1       -0.5031
     33 H          -1.7725   12.7985   -0.0001 H       1  LIG1        0.2923
     34 H          -4.1654   13.8304   -0.0002 H       1  LIG1        0.0686
@<TRIPOS>BOND
     1    31    29    1
     2    29    30   ar
     3    29    28   ar
     4    30    26   ar
     5    26    21    1
     6    26    27   ar
     7    28    27   ar
     8    28    34    1
     9    25    20    1
    10    21    20   ar
    11    21    22   ar
    12    27    32    1
    13    20    19   ar
    14    22    18   ar
    15    19    23    1
    16    19    18   ar
    17    23    24    1
    18    18    13    1
    19    32    33    1
    20    13    14   ar
    21    13    12   ar
    22    14    10   ar
    23    17    12    1
    24    12    11   ar
    25     6     1    1
    26    10    11   ar
    27    10     4    1
    28    11    15    1
    29     5     1   ar
    30     5     4   ar
    31     1     2   ar
    32     4     3   ar
    33    15    16    1
    34     3     2   ar
    35     3     9    1
    36     2     7    1
    37     7     8    1
