@<TRIPOS>MOLECULE
mol_data/opt/cam/geoms/mol2/12fa13df13ef13ff-6fd12eh13la12la.out
 86 93 0 0 0
SMALL
GASTEIGER

@<TRIPOS>ATOM
      1 C           0.8966    2.1315    0.7985 C.ar    1  LIG1        0.1339
      2 C           2.2002    2.1317    0.4144 C.ar    1  LIG1        0.1551
      3 C           2.5184    3.4611    0.0031 C.ar    1  LIG1        0.0273
      4 C           1.3718    4.1793    0.1684 C.ar    1  LIG1        0.1559
      5 O           0.3790    3.3882    0.6493 O.2     1  LIG1       -0.4577
      6 H           0.2368    1.3698    1.1759 H       1  LIG1        0.1068
      7 O           3.0108    1.0474    0.4342 O.3     1  LIG1       -0.5036
      8 H           3.8863    1.3006    0.1221 H       1  LIG1        0.2923
      9 H           3.4622    3.8376   -0.3638 H       1  LIG1        0.0693
     10 C           1.0255    5.5572   -0.0566 C.ar    1  LIG1        0.1039
     11 C           1.7914    6.6292   -0.5045 C.ar    1  LIG1        0.1220
     12 C           0.9578    7.7830   -0.4940 C.ar    1  LIG1        0.1616
     13 C          -0.2944    7.3914   -0.0462 C.ar    1  LIG1        0.1080
     14 N          -0.2205    6.0254    0.2001 N.ar    1  LIG1       -0.3466
     15 H          -0.9174    5.4846    0.6878 H       1  LIG1        0.1662
     16 N           4.2622    6.4520   -1.2040 N.1     1  LIG1       -0.1907
     17 C           3.1504    6.5608   -0.8975 C.1     1  LIG1        0.1051
     18 O           1.3820    8.9784   -0.9263 O.3     1  LIG1       -0.5034
     19 H           0.8425    9.6928   -0.5439 H       1  LIG1        0.2923
     20 C          -1.5347    8.1108    0.0794 C.ar    1  LIG1        0.0862
     21 C          -1.7833    9.4534    0.3323 C.ar    1  LIG1        0.0935
     22 C          -3.2003    9.6369    0.2911 C.ar    1  LIG1        0.1596
     23 C          -3.7792    8.4120    0.0344 C.ar    1  LIG1        0.1103
     24 N          -2.7447    7.4787   -0.0650 N.ar    1  LIG1       -0.3478
     25 H          -2.8365    6.6396   -0.6182 H       1  LIG1        0.1661
     26 C          -0.8138   10.4420    0.6309 C.1     1  LIG1       -0.0638
     27 C           0.0356   11.2669    0.8653 C.1     1  LIG1       -0.1137
     28 H           0.7662   12.0027    1.1131 H       1  LIG1        0.1232
     29 O          -3.7864   10.8182    0.5415 O.3     1  LIG1       -0.5034
     30 H          -4.7071   10.8056    0.2249 H       1  LIG1        0.2923
     31 C          -5.1643    8.0420   -0.0587 C.ar    1  LIG1        0.1127
     32 C          -6.2705    8.8160   -0.2748 C.ar    1  LIG1        0.1864
     33 C          -7.4221    7.9877   -0.2051 C.ar    1  LIG1        0.1850
     34 C          -7.0173    6.7059    0.0536 C.ar    1  LIG1        0.0979
     35 N          -5.6046    6.7205    0.0829 N.ar    1  LIG1       -0.3469
     36 H          -5.1458    6.1550    0.7884 H       1  LIG1        0.1662
     37 O          -6.2606   10.1502   -0.5656 O.3     1  LIG1       -0.5019
     38 H          -7.1725   10.4602   -0.6463 H       1  LIG1        0.2924
     39 O          -8.6539    8.5016   -0.4454 O.3     1  LIG1       -0.5019
     40 H          -9.2909    7.7878   -0.5793 H       1  LIG1        0.2924
     41 C          -7.3721    4.2671   -0.4653 C.ar    1  LIG1        0.2225
     42 C          -7.7954    5.4788    0.1473 C.ar    1  LIG1        0.0646
     43 C          -9.0055    5.4253    0.8191 C.ar    1  LIG1       -0.0278
     44 C          -9.7661    4.2511    0.8445 C.ar    1  LIG1        0.0816
     45 C          -9.2748    3.1293    0.1483 C.ar    1  LIG1        0.1284
     46 N          -8.0793    3.1620   -0.4599 N.ar    1  LIG1       -0.2080
     47 H          -9.3515    6.2899    1.3767 H       1  LIG1        0.0639
     48 O          -6.1928    4.1925   -1.1037 O.3     1  LIG1       -0.4919
     49 H          -5.7889    5.0761   -1.1266 H       1  LIG1        0.2937
     50 N         -11.8262    4.2823    2.4054 N.1     1  LIG1       -0.1908
     51 C         -10.9266    4.2295    1.6794 C.1     1  LIG1        0.1014
     52 C          -9.9963    1.8733    0.0365 C.ar    1  LIG1        0.1724
     53 C         -11.3246    1.5305   -0.1036 C.ar    1  LIG1        0.0932
     54 C         -11.3725    0.1053   -0.2521 C.ar    1  LIG1        0.0889
     55 C         -10.0657   -0.3193   -0.2199 C.ar    1  LIG1        0.1772
     56 O          -9.2385    0.7565   -0.0452 O.2     1  LIG1       -0.4485
     57 C         -12.4670    2.3621   -0.2169 C.1     1  LIG1       -0.0639
     58 C         -13.4744    3.0081   -0.3513 C.1     1  LIG1       -0.1137
     59 H         -14.3532    3.6054   -0.4318 H       1  LIG1        0.1232
     60 N         -12.5305   -0.6363   -0.3425 N.pl3   1  LIG1       -0.3540
     61 H         -13.3181   -0.1294   -0.7194 H       1  LIG1        0.1425
     62 H         -12.4074   -1.5700   -0.7119 H       1  LIG1        0.1425
     63 C          -9.4062   -1.5905   -0.3158 C.ar    1  LIG1        0.1267
     64 C          -9.8496   -2.8702   -0.6208 C.ar    1  LIG1        0.1490
     65 C          -8.7504   -3.7538   -0.5701 C.ar    1  LIG1        0.0093
     66 C          -7.6431   -2.9877   -0.2422 C.ar    1  LIG1        0.0898
     67 N          -8.0510   -1.6962   -0.0932 N.ar    1  LIG1       -0.3463
     68 H          -7.4520   -0.9153    0.1228 H       1  LIG1        0.1662
     69 O         -11.1473   -3.1522   -0.9354 O.3     1  LIG1       -0.4929
     70 C         -11.4486   -4.5185   -1.1368 C.3     1  LIG1        0.0789
     71 H         -12.5163   -4.5749   -1.3483 H       1  LIG1        0.0660
     72 H         -10.8891   -4.9251   -1.9867 H       1  LIG1        0.0660
     73 H         -11.2231   -5.1097   -0.2424 H       1  LIG1        0.0660
     74 H          -8.7348   -4.8160   -0.7503 H       1  LIG1        0.0677
     75 C          -6.2706   -3.3710   -0.0668 C.ar    1  LIG1        0.1923
     76 C          -5.6132   -4.5670   -0.1577 C.ar    1  LIG1        0.1670
     77 C          -4.2355   -4.3108    0.1272 C.ar    1  LIG1        0.0187
     78 C          -4.1552   -2.9788    0.3705 C.ar    1  LIG1        0.0963
     79 O          -5.3703   -2.3946    0.2592 O.2     1  LIG1       -0.4577
     80 H          -3.3355   -2.3269    0.6251 H       1  LIG1        0.1031
     81 O          -6.2304   -5.7320   -0.4669 O.3     1  LIG1       -0.4913
     82 C          -5.4026   -6.8762   -0.5194 C.3     1  LIG1        0.0790
     83 H          -6.0492   -7.7143   -0.7779 H       1  LIG1        0.0660
     84 H          -4.6248   -6.7724   -1.2850 H       1  LIG1        0.0660
     85 H          -4.9295   -7.0724    0.4498 H       1  LIG1        0.0660
     86 H          -3.4194   -5.0159    0.1481 H       1  LIG1        0.0686
@<TRIPOS>BOND
     1    72    70    1
     2    71    70    1
     3    84    82    1
     4    16    17    3
     5    70    69    1
     6    70    73    1
     7    49    48    1
     8    48    41    1
     9    69    64    1
    10    18    19    1
    11    18    12    1
    12    17    11    1
    13    83    82    1
    14    74    65    1
    15    61    60    1
    16    62    60    1
    17    38    37    1
    18    64    65   ar
    19    64    63   ar
    20    25    24    1
    21    40    39    1
    22    65    66   ar
    23    37    32    1
    24    82    81    1
    25    82    85    1
    26    11    12   ar
    27    11    10   ar
    28    12    13   ar
    29    81    76    1
    30    41    46   ar
    31    41    42   ar
    32    46    45   ar
    33    39    33    1
    34    59    58    1
    35     9     3    1
    36    58    57    3
    37    60    54    1
    38    63    55    1
    39    63    67   ar
    40    32    33   ar
    41    32    31   ar
    42    54    55   ar
    43    54    53   ar
    44    66    67   ar
    45    66    75    1
    46    55    56   ar
    47    57    53    1
    48    33    34   ar
    49    76    75   ar
    50    76    77   ar
    51    53    52   ar
    52    67    68    1
    53    75    79   ar
    54    24    23   ar
    55    24    20   ar
    56    31    23    1
    57    31    35   ar
    58    10     4    1
    59    10    14   ar
    60    13    20    1
    61    13    14   ar
    62    56    52   ar
    63     3     4   ar
    64     3     2   ar
    65    23    22   ar
    66    52    45    1
    67    34    35   ar
    68    34    42    1
    69    20    21   ar
    70    35    36    1
    71     8     7    1
    72    77    86    1
    73    77    78   ar
    74    42    43   ar
    75    45    44   ar
    76     4     5   ar
    77    14    15    1
    78    30    29    1
    79    79    78   ar
    80    22    21   ar
    81    22    29    1
    82    21    26    1
    83    78    80    1
    84     2     7    1
    85     2     1   ar
    86    26    27    3
    87     5     1   ar
    88     1     6    1
    89    43    44   ar
    90    43    47    1
    91    44    51    1
    92    27    28    1
    93    51    50    3
