@<TRIPOS>MOLECULE
mol_data/opt/cam/geoms/mol2/12fa12fa12fa12fa-.out
 34 37 0 0 0
SMALL
GASTEIGER

@<TRIPOS>ATOM
      1 C           0.5801    1.6413   -0.0001 C.ar    1  LIG1        0.1340
      2 C           1.9243    1.8330   -0.0000 C.ar    1  LIG1        0.1551
      3 C           2.1492    3.2427   -0.0000 C.ar    1  LIG1        0.0290
      4 C           0.9059    3.8088   -0.0001 C.ar    1  LIG1        0.1770
      5 O          -0.0516    2.8554   -0.0001 O.2     1  LIG1       -0.4560
      6 H          -0.0441    0.7650   -0.0001 H       1  LIG1        0.1068
      7 O           2.8516    0.8398    0.0000 O.3     1  LIG1       -0.5036
      8 H           3.7288    1.2364    0.0001 H       1  LIG1        0.2923
      9 H           3.0893    3.7738    0.0000 H       1  LIG1        0.0693
     10 C           0.4878    5.1811   -0.0001 C.ar    1  LIG1        0.2119
     11 C           1.1930    6.3527   -0.0001 C.ar    1  LIG1        0.1665
     12 C           0.2526    7.4185   -0.0001 C.ar    1  LIG1        0.0298
     13 C          -0.9762    6.8174   -0.0001 C.ar    1  LIG1        0.1780
     14 O          -0.8506    5.4702   -0.0001 O.2     1  LIG1       -0.4447
     15 O           2.5488    6.4153   -0.0000 O.3     1  LIG1       -0.5031
     16 H           2.8223    7.3388   -0.0000 H       1  LIG1        0.2923
     17 H           0.4399    8.4817   -0.0001 H       1  LIG1        0.0693
     18 C          -2.3034    7.3504   -0.0002 C.ar    1  LIG1        0.2119
     19 C          -2.7970    8.6247   -0.0002 C.ar    1  LIG1        0.1665
     20 C          -4.2189    8.5402   -0.0003 C.ar    1  LIG1        0.0298
     21 C          -4.5070    7.2062   -0.0003 C.ar    1  LIG1        0.1780
     22 O          -3.3616    6.4744   -0.0002 O.2     1  LIG1       -0.4447
     23 O          -2.0128    9.7298   -0.0002 O.3     1  LIG1       -0.5031
     24 H          -2.5694   10.5161   -0.0002 H       1  LIG1        0.2923
     25 H          -4.9334    9.3494   -0.0003 H       1  LIG1        0.0693
     26 C          -5.7029    6.4242   -0.0003 C.ar    1  LIG1        0.2109
     27 C          -5.8793    5.0650   -0.0003 C.ar    1  LIG1        0.1657
     28 C          -7.2883    4.8398   -0.0003 C.ar    1  LIG1        0.0185
     29 C          -7.8563    6.0705   -0.0004 C.ar    1  LIG1        0.0964
     30 O          -6.9202    7.0470   -0.0003 O.2     1  LIG1       -0.4560
     31 H          -8.8821    6.4033   -0.0005 H       1  LIG1        0.1031
     32 O          -4.9529    4.0911   -0.0003 O.3     1  LIG1       -0.5031
     33 H          -4.0696    4.4905   -0.0003 H       1  LIG1        0.2923
     34 H          -7.7874    3.8835   -0.0003 H       1  LIG1        0.0686
@<TRIPOS>BOND
     1    31    29    1
     2    29    30   ar
     3    29    28   ar
     4    30    26   ar
     5    28    27   ar
     6    28    34    1
     7    26    27   ar
     8    26    21    1
     9    27    32    1
    10    25    20    1
    11    32    33    1
    12    21    20   ar
    13    21    22   ar
    14    20    19   ar
    15    22    18   ar
    16    19    18   ar
    17    19    23    1
    18    24    23    1
    19    18    13    1
    20    13    14   ar
    21    13    12   ar
    22    14    10   ar
    23     6     1    1
    24    12    17    1
    25    12    11   ar
    26     5     1   ar
    27     5     4   ar
    28    10    11   ar
    29    10     4    1
    30     1     2   ar
    31    11    15    1
    32     4     3   ar
    33    15    16    1
    34     3     2   ar
    35     3     9    1
    36     2     7    1
    37     7     8    1
