@<TRIPOS>MOLECULE
mol_data/opt/cam/geoms/mol2/12fa12fa-12fa12fa.out
 34 37 0 0 0
SMALL
GASTEIGER

@<TRIPOS>ATOM
      1 C           0.1321    1.7214   -0.0001 C.ar    1  LIG1        0.1340
      2 C           1.4869    1.6739   -0.0000 C.ar    1  LIG1        0.1551
      3 C           1.9674    3.0218   -0.0000 C.ar    1  LIG1        0.0290
      4 C           0.8550    3.8076   -0.0001 C.ar    1  LIG1        0.1770
      5 O          -0.2684    3.0388   -0.0001 O.2     1  LIG1       -0.4560
      6 H          -0.6407    0.9735   -0.0001 H       1  LIG1        0.1068
      7 O           2.2210    0.5326    0.0000 O.3     1  LIG1       -0.5036
      8 H           3.1555    0.7644    0.0001 H       1  LIG1        0.2923
      9 H           2.9910    3.3654   -0.0000 H       1  LIG1        0.0693
     10 C           0.6211    5.2179   -0.0001 C.ar    1  LIG1        0.2119
     11 C          -0.5440    5.9393   -0.0001 C.ar    1  LIG1        0.1665
     12 C          -0.1824    7.3126   -0.0001 C.ar    1  LIG1        0.0298
     13 C           1.1847    7.3326   -0.0001 C.ar    1  LIG1        0.1780
     14 O           1.6887    6.0747   -0.0001 O.2     1  LIG1       -0.4447
     15 O          -1.8096    5.4750   -0.0001 O.3     1  LIG1       -0.5031
     16 H          -1.7737    4.5072   -0.0001 H       1  LIG1        0.2923
     17 H          -0.8437    8.1641   -0.0001 H       1  LIG1        0.0693
     18 C           2.1240    8.4130   -0.0001 C.ar    1  LIG1        0.2119
     19 C           3.4915    8.4936   -0.0001 C.ar    1  LIG1        0.1665
     20 C           3.8309    9.8751   -0.0001 C.ar    1  LIG1        0.0298
     21 C           2.6413   10.5478   -0.0002 C.ar    1  LIG1        0.1780
     22 O           1.6046    9.6821   -0.0002 O.2     1  LIG1       -0.4447
     23 O           4.3280    7.4300   -0.0000 O.3     1  LIG1       -0.5031
     24 H           5.2364    7.7507   -0.0000 H       1  LIG1        0.2923
     25 H           4.8131   10.3234   -0.0001 H       1  LIG1        0.0693
     26 C           2.3460   11.9516   -0.0002 C.ar    1  LIG1        0.2109
     27 C           3.1609   13.0494   -0.0002 C.ar    1  LIG1        0.1657
     28 C           2.3145   14.1972   -0.0002 C.ar    1  LIG1        0.0185
     29 C           1.0470   13.7105   -0.0003 C.ar    1  LIG1        0.0964
     30 O           1.0444   12.3626   -0.0002 O.2     1  LIG1       -0.4560
     31 H           0.0796   14.1865   -0.0004 H       1  LIG1        0.1031
     32 O           4.5162   12.9834   -0.0002 O.3     1  LIG1       -0.5031
     33 H           4.8802   13.8751   -0.0002 H       1  LIG1        0.2923
     34 H           2.6106   15.2361   -0.0002 H       1  LIG1        0.0686
@<TRIPOS>BOND
     1    31    29    1
     2    29    30   ar
     3    29    28   ar
     4    30    26   ar
     5    28    34    1
     6    28    27   ar
     7    27    26   ar
     8    27    32    1
     9    26    21    1
    10    32    33    1
    11    22    21   ar
    12    22    18   ar
    13    21    20   ar
    14    17    12    1
    15    12    13   ar
    16    12    11   ar
    17    18    13    1
    18    18    19   ar
    19    13    14   ar
    20    20    25    1
    21    20    19   ar
    22    11    15    1
    23    11    10   ar
    24    15    16    1
    25    14    10   ar
    26    10     4    1
    27    19    23    1
    28     5     4   ar
    29     5     1   ar
    30     6     1    1
    31     4     3   ar
    32     1     2   ar
    33    23    24    1
    34     3     2   ar
    35     3     9    1
    36     2     7    1
    37     7     8    1
