@<TRIPOS>MOLECULE
mol_data/opt/cam/geoms/mol2/12fa12fa-12fa12fa-.out
 34 37 0 0 0
SMALL
GASTEIGER

@<TRIPOS>ATOM
      1 C           0.0515    1.7869   -0.0001 C.ar    1  LIG1        0.1340
      2 C           1.4044    1.6997   -0.0000 C.ar    1  LIG1        0.1551
      3 C           1.9237    3.0333   -0.0000 C.ar    1  LIG1        0.0290
      4 C           0.8345    3.8505   -0.0001 C.ar    1  LIG1        0.1770
      5 O          -0.3107    3.1150   -0.0001 O.2     1  LIG1       -0.4560
      6 H          -0.7426    1.0616   -0.0001 H       1  LIG1        0.1068
      7 O           2.1042    0.5377    0.0000 O.3     1  LIG1       -0.5036
      8 H           3.0455    0.7402    0.0000 H       1  LIG1        0.2923
      9 H           2.9569    3.3470   -0.0000 H       1  LIG1        0.0693
     10 C           0.6396    5.2673   -0.0001 C.ar    1  LIG1        0.2119
     11 C          -0.5052    6.0192   -0.0001 C.ar    1  LIG1        0.1665
     12 C          -0.1060    7.3826   -0.0001 C.ar    1  LIG1        0.0298
     13 C           1.2616    7.3667   -0.0001 C.ar    1  LIG1        0.1780
     14 O           1.7295    6.0953   -0.0001 O.2     1  LIG1       -0.4447
     15 O          -1.7832    5.5925   -0.0001 O.3     1  LIG1       -0.5031
     16 H          -1.7769    4.6239   -0.0001 H       1  LIG1        0.2923
     17 H          -0.7541    8.2442   -0.0001 H       1  LIG1        0.0693
     18 C           2.2375    8.4135   -0.0001 C.ar    1  LIG1        0.2119
     19 C           3.6053    8.4481   -0.0001 C.ar    1  LIG1        0.1665
     20 C           4.0017    9.8174   -0.0001 C.ar    1  LIG1        0.0298
     21 C           2.8468   10.5403   -0.0002 C.ar    1  LIG1        0.1780
     22 O           1.7687    9.7102   -0.0002 O.2     1  LIG1       -0.4447
     23 O           4.4004    7.3558   -0.0000 O.3     1  LIG1       -0.5031
     24 H           5.3214    7.6388   -0.0000 H       1  LIG1        0.2923
     25 H           5.0050   10.2161   -0.0001 H       1  LIG1        0.0693
     26 C           2.5371   11.9362   -0.0002 C.ar    1  LIG1        0.2109
     27 C           1.3351   12.5929   -0.0002 C.ar    1  LIG1        0.1657
     28 C           1.6317   13.9879   -0.0003 C.ar    1  LIG1        0.0185
     29 C           2.9847   14.0729   -0.0003 C.ar    1  LIG1        0.0964
     30 O           3.5566   12.8474   -0.0002 O.2     1  LIG1       -0.4560
     31 H           3.6656   14.9090   -0.0003 H       1  LIG1        0.1031
     32 O           0.0931   12.0736   -0.0002 O.3     1  LIG1       -0.5031
     33 H           0.1656   11.1083   -0.0002 H       1  LIG1        0.2923
     34 H           0.9201   14.7987   -0.0003 H       1  LIG1        0.0686
@<TRIPOS>BOND
     1    31    29    1
     2    29    28   ar
     3    29    30   ar
     4    34    28    1
     5    28    27   ar
     6    32    27    1
     7    32    33    1
     8    27    26   ar
     9    30    26   ar
    10    26    21    1
    11    22    21   ar
    12    22    18   ar
    13    21    20   ar
    14    18    13    1
    15    18    19   ar
    16    20    25    1
    17    20    19   ar
    18    13    14   ar
    19    13    12   ar
    20    14    10   ar
    21    17    12    1
    22    12    11   ar
    23    19    23    1
    24    10    11   ar
    25    10     4    1
    26    11    15    1
    27     5     4   ar
    28     5     1   ar
    29    15    16    1
    30     4     3   ar
    31     6     1    1
    32     1     2   ar
    33    23    24    1
    34     3     9    1
    35     3     2   ar
    36     2     7    1
    37     7     8    1
