@<TRIPOS>MOLECULE
mol_data/opt/cam/geoms/mol2/12fa12ae4ah-4dh-.out
 44 47 0 0 0
SMALL
GASTEIGER

@<TRIPOS>ATOM
      1 C           0.6016    1.7274   -0.6604 C.ar    1  LIG1        0.1340
      2 C           1.9336    1.8158   -0.4074 C.ar    1  LIG1        0.1551
      3 C           2.2010    3.1734   -0.0598 C.ar    1  LIG1        0.0288
      4 C           0.9977    3.8145   -0.1287 C.ar    1  LIG1        0.1734
      5 O           0.0236    2.9518   -0.4903 O.2     1  LIG1       -0.4561
      6 H          -0.0429    0.9169   -0.9529 H       1  LIG1        0.1068
      7 O           2.8074    0.7807   -0.4828 O.3     1  LIG1       -0.5036
      8 H           3.6906    1.0969   -0.2660 H       1  LIG1        0.2923
      9 H           3.1529    3.6114    0.2036 H       1  LIG1        0.0693
     10 C           0.6200    5.1858    0.1094 C.ar    1  LIG1        0.1719
     11 C           1.3230    6.2874    0.4810 C.ar    1  LIG1        0.0033
     12 C           0.3816    7.3636    0.5525 C.ar    1  LIG1        0.0711
     13 C          -0.8437    6.8319    0.2148 C.ar    1  LIG1        0.1512
     14 O          -0.6888    5.5085   -0.0524 O.2     1  LIG1       -0.4505
     15 H           2.3807    6.3518    0.6840 H       1  LIG1        0.0669
     16 C           0.7039    8.7014    0.9057 C.1     1  LIG1       -0.0658
     17 C           1.0217    9.8223    1.2100 C.1     1  LIG1       -0.1138
     18 H           1.2952   10.8180    1.4735 H       1  LIG1        0.1232
     19 C          -2.4821    8.7031    0.3590 C.ar    1  LIG1       -0.0504
     20 C          -3.7818    9.1566    0.2262 C.ar    1  LIG1       -0.0516
     21 C          -2.1959    7.3608    0.0897 C.ar    1  LIG1        0.0203
     22 C          -4.8278    8.3186   -0.1634 C.ar    1  LIG1        0.0041
     23 H          -4.0019   10.1969    0.4400 H       1  LIG1        0.0624
     24 C          -3.2272    6.5115   -0.3111 C.ar    1  LIG1       -0.0298
     25 C          -4.5382    6.9677   -0.4424 C.ar    1  LIG1        0.0331
     26 H          -3.0054    5.4723   -0.5272 H       1  LIG1        0.0643
     27 H          -1.6988    9.3814    0.6682 H       1  LIG1        0.0625
     28 N          -5.5378    6.0693   -0.8146 N.pl3   1  LIG1       -0.3575
     29 H          -6.3381    6.4852   -1.2687 H       1  LIG1        0.1423
     30 H          -5.1982    5.2576   -1.3100 H       1  LIG1        0.1423
     31 C          -6.5261    9.9874   -1.0255 C.ar    1  LIG1        0.0596
     32 C          -7.8392   10.4721   -1.0448 C.ar    1  LIG1       -0.0420
     33 C          -6.2132    8.8506   -0.2527 C.ar    1  LIG1        0.0030
     34 C          -8.8402    9.8535   -0.3253 C.ar    1  LIG1       -0.0398
     35 H          -8.0669   11.3458   -1.6454 H       1  LIG1        0.0631
     36 C          -7.2359    8.2346    0.4621 C.ar    1  LIG1       -0.0320
     37 C          -8.5500    8.7172    0.4430 C.ar    1  LIG1        0.0252
     38 H          -6.9995    7.3614    1.0616 H       1  LIG1        0.0642
     39 H          -9.8517   10.2464   -0.3493 H       1  LIG1        0.0636
     40 N          -4.7868   11.2262   -2.4907 N.1     1  LIG1       -0.1909
     41 C          -5.5434   10.6557   -1.8255 C.1     1  LIG1        0.0998
     42 N          -9.5263    8.1145    1.2054 N.pl3   1  LIG1       -0.3579
     43 H         -10.4863    8.3010    0.9637 H       1  LIG1        0.1423
     44 H          -9.3513    7.1750    1.5243 H       1  LIG1        0.1423
@<TRIPOS>BOND
     1    40    41    3
     2    41    31    1
     3    35    32    1
     4    30    28    1
     5    29    28    1
     6    32    31   ar
     7    32    34   ar
     8    31    33   ar
     9     6     1    1
    10    28    25    1
    11     1     5   ar
    12     1     2   ar
    13    26    24    1
    14     5     4   ar
    15     7     2    1
    16     7     8    1
    17    25    24   ar
    18    25    22   ar
    19     2     3   ar
    20    39    34    1
    21    34    37   ar
    22    24    21   ar
    23    33    22    1
    24    33    36   ar
    25    22    20   ar
    26     4     3   ar
    27     4    10    1
    28     3     9    1
    29    14    10   ar
    30    14    13   ar
    31    21    13    1
    32    21    19   ar
    33    10    11   ar
    34    13    12   ar
    35    20    19   ar
    36    20    23    1
    37    19    27    1
    38    37    36   ar
    39    37    42    1
    40    36    38    1
    41    11    12   ar
    42    11    15    1
    43    12    16    1
    44    16    17    3
    45    43    42    1
    46    42    44    1
    47    17    18    1
