@<TRIPOS>MOLECULE
mol_data/opt/cam/geoms/mol2/12fa12fa-12fa-12fa-.out
 34 37 0 0 0
SMALL
GASTEIGER

@<TRIPOS>ATOM
      1 C          -0.1851    1.7330   -0.0000 C.ar    1  LIG1        0.1340
      2 C           1.1630    1.5900    0.0002 C.ar    1  LIG1        0.1551
      3 C           1.7370    2.9013    0.0002 C.ar    1  LIG1        0.0290
      4 C           0.6828    3.7625   -0.0000 C.ar    1  LIG1        0.1770
      5 O          -0.4919    3.0750   -0.0001 O.2     1  LIG1       -0.4560
      6 H          -1.0085    1.0411   -0.0001 H       1  LIG1        0.1068
      7 O           1.8135    0.4004    0.0004 O.3     1  LIG1       -0.5036
      8 H           2.7627    0.5626    0.0005 H       1  LIG1        0.2923
      9 H           2.7827    3.1705    0.0003 H       1  LIG1        0.0693
     10 C           0.5444    5.1862   -0.0001 C.ar    1  LIG1        0.2119
     11 C          -0.5701    5.9799   -0.0003 C.ar    1  LIG1        0.1665
     12 C          -0.1176    7.3270   -0.0004 C.ar    1  LIG1        0.0298
     13 C           1.2515    7.2629   -0.0002 C.ar    1  LIG1        0.1780
     14 O           1.6639    5.9736   -0.0001 O.2     1  LIG1       -0.4447
     15 O          -1.8643    5.6071   -0.0005 O.3     1  LIG1       -0.5031
     16 H          -1.8980    4.6388   -0.0004 H       1  LIG1        0.2923
     17 H          -0.7587    8.1954   -0.0006 H       1  LIG1        0.0693
     18 C           2.2738    8.2690   -0.0001 C.ar    1  LIG1        0.2119
     19 C           2.2406    9.6392    0.0000 C.ar    1  LIG1        0.1665
     20 C           3.5855   10.0923   -0.0000 C.ar    1  LIG1        0.0298
     21 C           4.3606    8.9639   -0.0002 C.ar    1  LIG1        0.1780
     22 O           3.5825    7.8603   -0.0002 O.2     1  LIG1       -0.4447
     23 O           1.1846   10.4812    0.0002 O.3     1  LIG1       -0.5031
     24 H           0.3611    9.9814    0.0003 H       1  LIG1        0.2923
     25 H           3.8858   11.1290    0.0000 H       1  LIG1        0.0693
     26 C           5.7828    8.7577   -0.0002 C.ar    1  LIG1        0.2109
     27 C           6.8518    9.6161   -0.0001 C.ar    1  LIG1        0.1657
     28 C           8.0295    8.8152   -0.0003 C.ar    1  LIG1        0.0185
     29 C           7.5944    7.5316   -0.0006 C.ar    1  LIG1        0.0964
     30 O           6.2472    7.4708   -0.0005 O.2     1  LIG1       -0.4560
     31 H           8.1085    6.5837   -0.0008 H       1  LIG1        0.1031
     32 O           6.8803   10.9674    0.0002 O.3     1  LIG1       -0.5031
     33 H           5.9838   11.3193    0.0003 H       1  LIG1        0.2923
     34 H           9.0480    9.1703   -0.0002 H       1  LIG1        0.0686
@<TRIPOS>BOND
     1    31    29    1
     2    17    12    1
     3    29    30   ar
     4    29    28   ar
     5    15    16    1
     6    15    11    1
     7    30    26   ar
     8    12    11   ar
     9    12    13   ar
    10    11    10   ar
    11    28    34    1
    12    28    27   ar
    13    26    21    1
    14    26    27   ar
    15    22    21   ar
    16    22    18   ar
    17    13    18    1
    18    13    14   ar
    19    21    20   ar
    20    10    14   ar
    21    10     4    1
    22     5     4   ar
    23     5     1   ar
    24    18    19   ar
    25    27    32    1
    26     6     1    1
    27     4     3   ar
    28    20    19   ar
    29    20    25    1
    30     1     2   ar
    31    19    23    1
    32    32    33    1
    33    23    24    1
    34     3     2   ar
    35     3     9    1
    36     2     7    1
    37     7     8    1
