@<TRIPOS>MOLECULE
mol_data/opt/cam/geoms/mol2/12fa13fi-12ed-13di-.out
 44 47 0 0 0
SMALL
GASTEIGER

@<TRIPOS>ATOM
      1 C           0.3267    1.8255   -1.0051 C.ar    1  LIG1        0.1339
      2 C           1.6507    1.7969   -0.7068 C.ar    1  LIG1        0.1551
      3 C           2.0208    3.1132   -0.2914 C.ar    1  LIG1        0.0273
      4 C           0.8803    3.8553   -0.3692 C.ar    1  LIG1        0.1581
      5 O          -0.1555    3.0922   -0.7985 O.2     1  LIG1       -0.4576
      6 H          -0.3714    1.0845   -1.3531 H       1  LIG1        0.1068
      7 O           2.4409    0.6980   -0.7979 O.3     1  LIG1       -0.5036
      8 H           3.3386    0.9367   -0.5440 H       1  LIG1        0.2923
      9 H           2.9889    3.4725    0.0237 H       1  LIG1        0.0693
     10 C           0.5874    5.2345   -0.0950 C.ar    1  LIG1        0.1249
     11 C           1.4027    6.2618    0.3430 C.ar    1  LIG1        0.1486
     12 C           0.6358    7.4424    0.4618 C.ar    1  LIG1        0.0200
     13 C          -0.6532    7.0999    0.0648 C.ar    1  LIG1        0.0904
     14 N          -0.6652    5.7645   -0.2479 N.ar    1  LIG1       -0.3462
     15 H          -1.4559    5.2524   -0.6040 H       1  LIG1        0.1662
     16 O           2.7195    6.0867    0.6432 O.3     1  LIG1       -0.5043
     17 H           3.1371    6.9496    0.7429 H       1  LIG1        0.2922
     18 C           1.1383    8.7472    0.9912 C.3     1  LIG1       -0.0341
     19 H           0.3376    9.3206    1.4602 H       1  LIG1        0.0279
     20 H           1.5655    9.3826    0.2094 H       1  LIG1        0.0279
     21 H           1.9080    8.5804    1.7529 H       1  LIG1        0.0279
     22 C          -1.8687    7.8639   -0.0095 C.ar    1  LIG1        0.1688
     23 C          -2.1827    9.1700   -0.2838 C.ar    1  LIG1        0.0899
     24 C          -3.6222    9.2624   -0.1890 C.ar    1  LIG1        0.1149
     25 C          -4.0827    8.0059    0.0861 C.ar    1  LIG1        0.1716
     26 O          -3.0231    7.1590    0.2059 O.2     1  LIG1       -0.4492
     27 C          -1.3173   10.2286   -0.6563 C.1     1  LIG1       -0.0645
     28 C          -0.6183   11.1487   -0.9920 C.1     1  LIG1       -0.1138
     29 H          -0.0094   11.9680   -1.2991 H       1  LIG1        0.1232
     30 N          -4.9615   11.4576   -0.3379 N.1     1  LIG1       -0.1907
     31 C          -4.3769   10.4610   -0.2885 C.1     1  LIG1        0.1043
     32 C          -5.3793    7.4188    0.3116 C.ar    1  LIG1        0.1013
     33 C          -6.6422    7.6991   -0.1960 C.ar    1  LIG1        0.0829
     34 C          -7.5656    6.7751    0.3827 C.ar    1  LIG1       -0.0151
     35 C          -6.8302    5.9651    1.2084 C.ar    1  LIG1        0.0064
     36 N          -5.5198    6.3555    1.1560 N.ar    1  LIG1       -0.3569
     37 H          -4.7573    5.9459    1.6717 H       1  LIG1        0.1655
     38 H          -7.1437    5.1395    1.8287 H       1  LIG1        0.0810
     39 N          -7.2778    9.3950   -2.0297 N.1     1  LIG1       -0.1908
     40 C          -6.9705    8.6543   -1.1949 C.1     1  LIG1        0.1016
     41 C          -9.0340    6.7136    0.1129 C.3     1  LIG1       -0.0371
     42 H          -9.4944    5.8813    0.6489 H       1  LIG1        0.0278
     43 H          -9.2354    6.5833   -0.9541 H       1  LIG1        0.0278
     44 H          -9.5335    7.6351    0.4247 H       1  LIG1        0.0278
@<TRIPOS>BOND
     1    39    40    3
     2     6     1    1
     3    29    28    1
     4    40    33    1
     5     1     5   ar
     6     1     2   ar
     7    28    27    3
     8    43    41    1
     9     5     4   ar
    10     7     2    1
    11     7     8    1
    12     2     3   ar
    13    27    23    1
    14    15    14    1
    15     4     3   ar
    16     4    10    1
    17    30    31    3
    18     3     9    1
    19    31    24    1
    20    23    24   ar
    21    23    22   ar
    22    14    10   ar
    23    14    13   ar
    24    33    32   ar
    25    33    34   ar
    26    24    25   ar
    27    10    11   ar
    28    22    13    1
    29    22    26   ar
    30    13    12   ar
    31    25    26   ar
    32    25    32    1
    33    41    34    1
    34    41    44    1
    35    41    42    1
    36    20    18    1
    37    32    36   ar
    38    11    12   ar
    39    11    16    1
    40    34    35   ar
    41    12    18    1
    42    16    17    1
    43    18    19    1
    44    18    21    1
    45    36    35   ar
    46    36    37    1
    47    35    38    1
