@<TRIPOS>MOLECULE
mol_data/opt/cam/geoms/mol2/12fa12fa12fa.out
 26 28 0 0 0
SMALL
GASTEIGER

@<TRIPOS>ATOM
      1 C           0.4445    1.6444   -0.0001 C.ar    1  LIG1        0.1340
      2 C           1.7893    1.8295   -0.0000 C.ar    1  LIG1        0.1551
      3 C           2.0204    3.2375   -0.0000 C.ar    1  LIG1        0.0290
      4 C           0.7799    3.8099   -0.0001 C.ar    1  LIG1        0.1770
      5 O          -0.1816    2.8608   -0.0001 O.2     1  LIG1       -0.4560
      6 H          -0.1840    0.7712   -0.0001 H       1  LIG1        0.1068
      7 O           2.7122    0.8311    0.0000 O.3     1  LIG1       -0.5036
      8 H           3.5914    1.2236    0.0000 H       1  LIG1        0.2923
      9 H           2.9624    3.7650    0.0000 H       1  LIG1        0.0693
     10 C           0.3725    5.1857   -0.0001 C.ar    1  LIG1        0.2119
     11 C           1.0934    6.3477   -0.0000 C.ar    1  LIG1        0.1665
     12 C           0.1663    7.4236   -0.0001 C.ar    1  LIG1        0.0298
     13 C          -1.0695    6.8382   -0.0001 C.ar    1  LIG1        0.1780
     14 O          -0.9607    5.4910   -0.0001 O.2     1  LIG1       -0.4447
     15 O           2.4511    6.3927    0.0000 O.3     1  LIG1       -0.5031
     16 H           2.7361    7.3127    0.0001 H       1  LIG1        0.2923
     17 H           0.3646    8.4848   -0.0001 H       1  LIG1        0.0693
     18 C          -2.3860    7.4085   -0.0002 C.ar    1  LIG1        0.2109
     19 C          -2.8106    8.7077   -0.0002 C.ar    1  LIG1        0.1657
     20 C          -4.2360    8.6816   -0.0003 C.ar    1  LIG1        0.0185
     21 C          -4.5727    7.3665   -0.0003 C.ar    1  LIG1        0.0964
     22 O          -3.4744    6.5850   -0.0002 O.2     1  LIG1       -0.4560
     23 H          -5.5200    6.8517   -0.0003 H       1  LIG1        0.1031
     24 O          -1.9723    9.7764   -0.0002 O.3     1  LIG1       -0.5031
     25 H          -2.4903   10.5884   -0.0002 H       1  LIG1        0.2923
     26 H          -4.9120    9.5243   -0.0004 H       1  LIG1        0.0686
@<TRIPOS>BOND
     1    26    20    1
     2    20    21   ar
     3    20    19   ar
     4    23    21    1
     5    21    22   ar
     6    22    18   ar
     7    25    24    1
     8    19    18   ar
     9    19    24    1
    10    18    13    1
    11    14    13   ar
    12    14    10   ar
    13    13    12   ar
    14     5     4   ar
    15     5     1   ar
    16    12    17    1
    17    12    11   ar
    18     6     1    1
    19    10     4    1
    20    10    11   ar
    21     4     3   ar
    22     1     2   ar
    23    11    15    1
    24     2     3   ar
    25     2     7    1
    26     3     9    1
    27     7     8    1
    28    15    16    1
