@<TRIPOS>MOLECULE
mol_data/opt/cam/geoms/mol2/12fa12fa-12fa.out
 26 28 0 0 0
SMALL
GASTEIGER

@<TRIPOS>ATOM
      1 C           0.1012    1.7994   -0.0000 C.ar    1  LIG1        0.1340
      2 C           1.4554    1.7355    0.0000 C.ar    1  LIG1        0.1551
      3 C           1.9518    3.0778   -0.0000 C.ar    1  LIG1        0.0290
      4 C           0.8489    3.8763   -0.0001 C.ar    1  LIG1        0.1770
      5 O          -0.2835    3.1212   -0.0001 O.2     1  LIG1       -0.4560
      6 H          -0.6804    1.0607   -0.0000 H       1  LIG1        0.1068
      7 O           2.1752    0.5855    0.0001 O.3     1  LIG1       -0.5036
      8 H           3.1127    0.8047    0.0001 H       1  LIG1        0.2923
      9 H           2.9794    3.4092   -0.0000 H       1  LIG1        0.0693
     10 C           0.6304    5.2898   -0.0001 C.ar    1  LIG1        0.2119
     11 C          -0.5270    6.0229   -0.0001 C.ar    1  LIG1        0.1665
     12 C          -0.1498    7.3928   -0.0001 C.ar    1  LIG1        0.0298
     13 C           1.2160    7.3976   -0.0001 C.ar    1  LIG1        0.1780
     14 O           1.7066    6.1350   -0.0001 O.2     1  LIG1       -0.4447
     15 O          -1.7977    5.5738   -0.0001 O.3     1  LIG1       -0.5031
     16 H          -1.7742    4.6055   -0.0001 H       1  LIG1        0.2923
     17 H          -0.8032    8.2504   -0.0002 H       1  LIG1        0.0693
     18 C           2.1702    8.4694   -0.0002 C.ar    1  LIG1        0.2109
     19 C           3.5368    8.5296   -0.0001 C.ar    1  LIG1        0.1657
     20 C           3.8894    9.9142   -0.0002 C.ar    1  LIG1        0.0185
     21 C           2.7150   10.5920   -0.0002 C.ar    1  LIG1        0.0964
     22 O           1.6683    9.7427   -0.0002 O.2     1  LIG1       -0.4560
     23 H           2.4743   11.6430   -0.0003 H       1  LIG1        0.1031
     24 O           4.3605    7.4553   -0.0000 O.3     1  LIG1       -0.5031
     25 H           5.2738    7.7613   -0.0000 H       1  LIG1        0.2923
     26 H           4.8832   10.3383   -0.0001 H       1  LIG1        0.0686
@<TRIPOS>BOND
     1    23    21    1
     2    21    22   ar
     3    21    20   ar
     4    22    18   ar
     5    17    12    1
     6    18    13    1
     7    18    19   ar
     8    20    26    1
     9    20    19   ar
    10    12    13   ar
    11    12    11   ar
    12    13    14   ar
    13    11    15    1
    14    11    10   ar
    15    19    24    1
    16    14    10   ar
    17    15    16    1
    18    10     4    1
    19     5     4   ar
    20     5     1   ar
    21     4     3   ar
    22    24    25    1
    23     1     6    1
    24     1     2   ar
    25     3     9    1
    26     3     2   ar
    27     2     7    1
    28     7     8    1
