@<TRIPOS>MOLECULE
mol_data/opt/cam/geoms/mol2/12fa12fa-12fa-12fa.out
 34 37 0 0 0
SMALL
GASTEIGER

@<TRIPOS>ATOM
      1 C          -0.1665    1.7406   -0.0000 C.ar    1  LIG1        0.1340
      2 C           1.1821    1.6036    0.0001 C.ar    1  LIG1        0.1551
      3 C           1.7508    2.9170    0.0001 C.ar    1  LIG1        0.0290
      4 C           0.6928    3.7740   -0.0000 C.ar    1  LIG1        0.1770
      5 O          -0.4791    3.0815   -0.0001 O.2     1  LIG1       -0.4560
      6 H          -0.9870    1.0454   -0.0001 H       1  LIG1        0.1068
      7 O           1.8384    0.4164    0.0003 O.3     1  LIG1       -0.5036
      8 H           2.7865    0.5844    0.0004 H       1  LIG1        0.2923
      9 H           2.7950    3.1918    0.0003 H       1  LIG1        0.0693
     10 C           0.5488    5.1967   -0.0001 C.ar    1  LIG1        0.2119
     11 C          -0.5688    5.9862   -0.0003 C.ar    1  LIG1        0.1665
     12 C          -0.1220    7.3347   -0.0003 C.ar    1  LIG1        0.0298
     13 C           1.2482    7.2765   -0.0002 C.ar    1  LIG1        0.1780
     14 O           1.6653    5.9887   -0.0001 O.2     1  LIG1       -0.4447
     15 O          -1.8615    5.6071   -0.0004 O.3     1  LIG1       -0.5031
     16 H          -1.8895    4.6387   -0.0004 H       1  LIG1        0.2923
     17 H          -0.7669    8.2003   -0.0005 H       1  LIG1        0.0693
     18 C           2.2648    8.2875   -0.0001 C.ar    1  LIG1        0.2119
     19 C           2.2208    9.6597   -0.0000 C.ar    1  LIG1        0.1665
     20 C           3.5601   10.1253   -0.0000 C.ar    1  LIG1        0.0298
     21 C           4.3378    9.0028   -0.0001 C.ar    1  LIG1        0.1780
     22 O           3.5760    7.8870   -0.0002 O.2     1  LIG1       -0.4447
     23 O           1.1524   10.4871    0.0001 O.3     1  LIG1       -0.5031
     24 H           0.3368    9.9749    0.0003 H       1  LIG1        0.2923
     25 H           3.8922   11.1509    0.0000 H       1  LIG1        0.0693
     26 C           5.7624    8.8323   -0.0002 C.ar    1  LIG1        0.2109
     27 C           6.5978    7.7489   -0.0002 C.ar    1  LIG1        0.1657
     28 C           7.9332    8.2572   -0.0003 C.ar    1  LIG1        0.0185
     29 C           7.8122    9.6077   -0.0002 C.ar    1  LIG1        0.0964
     30 O           6.5159    9.9756   -0.0002 O.2     1  LIG1       -0.4560
     31 H           8.5337   10.4089   -0.0001 H       1  LIG1        0.1031
     32 O           6.1942    6.4583   -0.0003 O.3     1  LIG1       -0.5031
     33 H           6.9700    5.8874   -0.0003 H       1  LIG1        0.2923
     34 H           8.8516    7.6880   -0.0004 H       1  LIG1        0.0686
@<TRIPOS>BOND
     1    17    12    1
     2    15    16    1
     3    15    11    1
     4    34    28    1
     5    33    32    1
     6    12    11   ar
     7    12    13   ar
     8    28    27   ar
     9    28    29   ar
    10    11    10   ar
    11    32    27    1
    12    27    26   ar
    13    26    30   ar
    14    26    21    1
    15    13    18    1
    16    13    14   ar
    17    22    21   ar
    18    22    18   ar
    19    29    30   ar
    20    29    31    1
    21     5     4   ar
    22     5     1   ar
    23    10    14   ar
    24    10     4    1
    25    21    20   ar
    26    18    19   ar
    27     6     1    1
    28     4     3   ar
    29    20    19   ar
    30    20    25    1
    31     1     2   ar
    32    19    23    1
    33    23    24    1
    34     3     2   ar
    35     3     9    1
    36     2     7    1
    37     7     8    1
