@<TRIPOS>MOLECULE
mol_data/opt/cam/geoms/mol2/12fa12fa.out
 18 19 0 0 0
SMALL
GASTEIGER

@<TRIPOS>ATOM
      1 C           0.2306    1.7864   -0.0001 C.ar    1  LIG1        0.1340
      2 C           1.5850    1.8803    0.0000 C.ar    1  LIG1        0.1551
      3 C           1.9099    3.2708    0.0000 C.ar    1  LIG1        0.0290
      4 C           0.7110    3.9234   -0.0001 C.ar    1  LIG1        0.1769
      5 O          -0.3122    3.0419   -0.0001 O.2     1  LIG1       -0.4560
      6 H          -0.4549    0.9571   -0.0001 H       1  LIG1        0.1068
      7 O           2.4383    0.8231    0.0001 O.3     1  LIG1       -0.5036
      8 H           3.3421    1.1549    0.0001 H       1  LIG1        0.2923
      9 H           2.8853    3.7338    0.0001 H       1  LIG1        0.0693
     10 C           0.3944    5.3261   -0.0001 C.ar    1  LIG1        0.2108
     11 C           1.1907    6.4359   -0.0001 C.ar    1  LIG1        0.1657
     12 C           0.3262    7.5710   -0.0002 C.ar    1  LIG1        0.0185
     13 C          -0.9332    7.0649   -0.0002 C.ar    1  LIG1        0.0964
     14 O          -0.9135    5.7166   -0.0002 O.2     1  LIG1       -0.4560
     15 H          -1.9083    7.5249   -0.0002 H       1  LIG1        0.1031
     16 O           2.5485    6.3938    0.0000 O.3     1  LIG1       -0.5031
     17 H           2.8946    7.2924    0.0000 H       1  LIG1        0.2923
     18 H           0.6064    8.6144   -0.0002 H       1  LIG1        0.0686
@<TRIPOS>BOND
     1    15    13    1
     2    14    13   ar
     3    14    10   ar
     4    18    12    1
     5    13    12   ar
     6    12    11   ar
     7     5     4   ar
     8     5     1   ar
     9    10    11   ar
    10    10     4    1
    11     6     1    1
    12    11    16    1
    13     4     3   ar
    14     1     2   ar
    15    17    16    1
    16     2     3   ar
    17     2     7    1
    18     3     9    1
    19     7     8    1
