@<TRIPOS>MOLECULE
mol_data/opt/cam/geoms/mol2/12fa12fa-.out
 18 19 0 0 0
SMALL
GASTEIGER

@<TRIPOS>ATOM
      1 C           0.1825    1.8657    0.0000 C.ar    1  LIG1        0.1340
      2 C           1.5374    1.8363    0.0000 C.ar    1  LIG1        0.1551
      3 C           1.9982    3.1913   -0.0000 C.ar    1  LIG1        0.0290
      4 C           0.8767    3.9615   -0.0001 C.ar    1  LIG1        0.1769
      5 O          -0.2351    3.1770   -0.0001 O.2     1  LIG1       -0.4560
      6 H          -0.5802    1.1075    0.0000 H       1  LIG1        0.1068
      7 O           2.2855    0.7048    0.0000 O.3     1  LIG1       -0.5036
      8 H           3.2180    0.9449    0.0000 H       1  LIG1        0.2923
      9 H           3.0179    3.5463   -0.0000 H       1  LIG1        0.0693
     10 C           0.6174    5.3711   -0.0001 C.ar    1  LIG1        0.2108
     11 C          -0.5613    6.0654   -0.0001 C.ar    1  LIG1        0.1657
     12 C          -0.2209    7.4505   -0.0002 C.ar    1  LIG1        0.0185
     13 C           1.1337    7.4930   -0.0001 C.ar    1  LIG1        0.0964
     14 O           1.6656    6.2487   -0.0002 O.2     1  LIG1       -0.4560
     15 H           1.8421    8.3060   -0.0001 H       1  LIG1        0.1031
     16 O          -1.8200    5.5825   -0.0001 O.3     1  LIG1       -0.5031
     17 H          -1.7719    4.6150   -0.0001 H       1  LIG1        0.2923
     18 H          -0.9060    8.2837   -0.0002 H       1  LIG1        0.0686
@<TRIPOS>BOND
     1    18    12    1
     2    12    13   ar
     3    12    11   ar
     4    14    13   ar
     5    14    10   ar
     6    15    13    1
     7    11    10   ar
     8    11    16    1
     9    10     4    1
    10    16    17    1
    11     4     5   ar
    12     4     3   ar
    13     5     1   ar
    14     9     3    1
    15     3     2   ar
    16     2     1   ar
    17     2     7    1
    18     1     6    1
    19     8     7    1
