@<TRIPOS>MOLECULE
mol_data/opt/cam/geoms/mol2/12fd12eh-6ai4aa.out
 44 47 0 0 0
SMALL
GASTEIGER

@<TRIPOS>ATOM
      1 C           0.4539    1.6547   -0.4078 C.ar    1  LIG1        0.1354
      2 C           1.7391    1.7004    0.0174 C.ar    1  LIG1        0.1729
      3 C           2.0557    3.0893    0.2137 C.ar    1  LIG1        0.1418
      4 C           0.9174    3.7895   -0.1223 C.ar    1  LIG1        0.1920
      5 O          -0.0420    2.9258   -0.4940 O.2     1  LIG1       -0.4547
      6 H          -0.2111    0.8516   -0.6725 H       1  LIG1        0.1068
      7 O           2.5548    0.6499    0.2258 O.3     1  LIG1       -0.5028
      8 H           3.4058    0.9644    0.5592 H       1  LIG1        0.2923
      9 N           4.3487    3.7298    1.1806 N.1     1  LIG1       -0.1906
     10 C           3.3003    3.5161    0.7364 C.1     1  LIG1        0.1068
     11 C           0.5730    5.1851   -0.1520 C.ar    1  LIG1        0.1891
     12 C           1.3112    6.3412   -0.2494 C.ar    1  LIG1        0.0947
     13 C           0.3625    7.4178   -0.2365 C.ar    1  LIG1        0.0874
     14 C          -0.8774    6.8436   -0.1337 C.ar    1  LIG1        0.1591
     15 O          -0.7405    5.4802   -0.0949 O.2     1  LIG1       -0.4485
     16 C           2.7083    6.5055   -0.4130 C.1     1  LIG1       -0.0639
     17 C           3.8863    6.7012   -0.5686 C.1     1  LIG1       -0.1137
     18 H           4.9384    6.8308   -0.6821 H       1  LIG1        0.1232
     19 N           0.6972    8.7634   -0.3051 N.pl3   1  LIG1       -0.3541
     20 H           1.6671    8.9065   -0.5570 H       1  LIG1        0.1425
     21 H           0.0813    9.3157   -0.8869 H       1  LIG1        0.1425
     22 C          -3.3400    6.5748   -0.3226 C.ar    1  LIG1        0.0390
     23 C          -2.2228    7.3797   -0.0748 C.ar    1  LIG1        0.0375
     24 C          -2.4740    8.7100    0.2618 C.ar    1  LIG1       -0.0446
     25 C          -3.7711    9.2099    0.2986 C.ar    1  LIG1       -0.0238
     26 C          -4.8158    8.3214   -0.0210 C.ar    1  LIG1        0.0739
     27 N          -4.5814    7.0289   -0.2931 N.ar    1  LIG1       -0.2540
     28 H          -1.6500    9.3578    0.5456 H       1  LIG1        0.0628
     29 H          -3.2105    5.5203   -0.5498 H       1  LIG1        0.0837
     30 C          -3.9843   10.6385    0.7305 C.3     1  LIG1       -0.0377
     31 H          -4.9220   10.7620    1.2741 H       1  LIG1        0.0278
     32 H          -4.0094   11.3250   -0.1218 H       1  LIG1        0.0278
     33 H          -3.1663   10.9602    1.3795 H       1  LIG1        0.0278
     34 C          -6.6981    9.9124   -0.5938 C.ar    1  LIG1       -0.0526
     35 C          -8.0529   10.2219   -0.6236 C.ar    1  LIG1       -0.0611
     36 C          -6.2531    8.7081   -0.0444 C.ar    1  LIG1        0.0006
     37 C          -8.9838    9.3332   -0.1014 C.ar    1  LIG1       -0.0617
     38 H          -8.3804   11.1583   -1.0637 H       1  LIG1        0.0618
     39 C          -7.2019    7.8121    0.4572 C.ar    1  LIG1       -0.0526
     40 C          -8.5529    8.1247    0.4368 C.ar    1  LIG1       -0.0611
     41 H          -6.8594    6.8641    0.8553 H       1  LIG1        0.0624
     42 H         -10.0412    9.5768   -0.1202 H       1  LIG1        0.0618
     43 H          -5.9865   10.6038   -1.0300 H       1  LIG1        0.0624
     44 H          -9.2742    7.4208    0.8393 H       1  LIG1        0.0618
@<TRIPOS>BOND
     1    38    35    1
     2    43    34    1
     3    21    19    1
     4    18    17    1
     5     6     1    1
     6    35    34   ar
     7    35    37   ar
     8    34    36   ar
     9    17    16    3
    10    20    19    1
    11    29    22    1
    12     5     1   ar
    13     5     4   ar
    14    16    12    1
    15     1     2   ar
    16    22    27   ar
    17    22    23   ar
    18    19    13    1
    19    27    26   ar
    20    12    13   ar
    21    12    11   ar
    22    13    14   ar
    23    11     4    1
    24    11    15   ar
    25    14    15   ar
    26    14    23    1
    27     4     3   ar
    28    32    30    1
    29    42    37    1
    30    37    40   ar
    31    23    24   ar
    32    36    26    1
    33    36    39   ar
    34    26    25   ar
    35     2     3   ar
    36     2     7    1
    37     3    10    1
    38     7     8    1
    39    24    25   ar
    40    24    28    1
    41    25    30    1
    42    40    39   ar
    43    40    44    1
    44    39    41    1
    45    30    31    1
    46    30    33    1
    47    10     9    3
