@<TRIPOS>MOLECULE
mol_data/opt/cam/geoms/mol2/12fd12hh13aa-6ih-.out
 44 47 0 0 0
SMALL
GASTEIGER

@<TRIPOS>ATOM
      1 C           0.4660    1.7611   -0.9571 C.ar    1  LIG1        0.1354
      2 C           1.7908    1.7662   -0.6971 C.ar    1  LIG1        0.1729
      3 C           2.1395    3.1228   -0.3571 C.ar    1  LIG1        0.1418
      4 C           0.9683    3.8563   -0.4515 C.ar    1  LIG1        0.1926
      5 O          -0.0336    3.0363   -0.8095 O.2     1  LIG1       -0.4547
      6 H          -0.2335    0.9939   -1.2372 H       1  LIG1        0.1068
      7 O           2.6210    0.7034   -0.7373 O.3     1  LIG1       -0.5028
      8 H           3.5139    0.9827   -0.4991 H       1  LIG1        0.2923
      9 N           4.4806    3.8573    0.4070 N.1     1  LIG1       -0.1906
     10 C           3.4172    3.5443    0.0605 C.1     1  LIG1        0.1068
     11 C           0.6500    5.2319   -0.2639 C.ar    1  LIG1        0.1944
     12 C           1.3784    6.3978   -0.1361 C.ar    1  LIG1        0.0958
     13 C           0.4180    7.4540   -0.0066 C.ar    1  LIG1        0.0942
     14 C          -0.8178    6.8734   -0.0724 C.ar    1  LIG1        0.1743
     15 O          -0.7011    5.5366   -0.2197 O.2     1  LIG1       -0.4464
     16 N           2.7163    6.6532   -0.1791 N.pl3   1  LIG1       -0.3535
     17 H           3.3779    5.9299    0.0585 H       1  LIG1        0.1425
     18 H           2.9484    7.5846    0.1389 H       1  LIG1        0.1425
     19 N           0.8024    8.8016    0.1874 N.pl3   1  LIG1       -0.3535
     20 H           0.6933    9.3648   -0.6498 H       1  LIG1        0.1425
     21 H           0.2899    9.2421    0.9431 H       1  LIG1        0.1425
     22 C          -2.1560    7.3947    0.0008 C.ar    1  LIG1        0.0845
     23 C          -2.6424    8.6868    0.0865 C.ar    1  LIG1       -0.0327
     24 C          -4.0495    8.6020    0.1178 C.ar    1  LIG1       -0.0357
     25 C          -4.4012    7.2644    0.0538 C.ar    1  LIG1        0.0488
     26 N          -3.2346    6.5498   -0.0116 N.ar    1  LIG1       -0.3517
     27 H          -3.1546    5.5502   -0.1086 H       1  LIG1        0.1660
     28 H          -2.0464    9.5860    0.1203 H       1  LIG1        0.0640
     29 H          -4.7433    9.4247    0.2082 H       1  LIG1        0.0639
     30 C          -6.0610    5.4331    0.6355 C.ar    1  LIG1        0.0474
     31 C          -5.7371    6.6570    0.0184 C.ar    1  LIG1        0.0210
     32 C          -6.7506    7.3475   -0.6464 C.ar    1  LIG1       -0.0287
     33 C          -8.0434    6.8373   -0.6919 C.ar    1  LIG1        0.0435
     34 C          -8.2528    5.6092   -0.0574 C.ar    1  LIG1        0.0485
     35 N          -7.3010    4.9423    0.5779 N.ar    1  LIG1       -0.2577
     36 H          -6.5184    8.2847   -1.1431 H       1  LIG1        0.0643
     37 H          -9.2437    5.1565   -0.0652 H       1  LIG1        0.0848
     38 C          -5.0725    4.6011    1.4115 C.3     1  LIG1       -0.0217
     39 H          -4.3962    5.2141    2.0115 H       1  LIG1        0.0293
     40 H          -4.4615    3.9672    0.7566 H       1  LIG1        0.0293
     41 H          -5.6272    3.9321    2.0691 H       1  LIG1        0.0293
     42 N          -9.0872    7.5242   -1.2988 N.pl3   1  LIG1       -0.3568
     43 H          -8.8168    8.1779   -2.0185 H       1  LIG1        0.1424
     44 H          -9.8740    6.9557   -1.5753 H       1  LIG1        0.1424
@<TRIPOS>BOND
     1    43    42    1
     2    44    42    1
     3    42    33    1
     4     6     1    1
     5    36    32    1
     6     1     5   ar
     7     1     2   ar
     8     5     4   ar
     9     7     2    1
    10     7     8    1
    11     2     3   ar
    12    33    32   ar
    13    33    34   ar
    14    20    19    1
    15    32    31   ar
    16     4     3   ar
    17     4    11    1
    18     3    10    1
    19    11    15   ar
    20    11    12   ar
    21    15    14   ar
    22    16    12    1
    23    16    17    1
    24    16    18    1
    25    12    13   ar
    26    27    26    1
    27    14    13   ar
    28    14    22    1
    29    37    34    1
    30    34    35   ar
    31    26    22   ar
    32    26    25   ar
    33    13    19    1
    34    22    23   ar
    35    31    25    1
    36    31    30   ar
    37    25    24   ar
    38    10     9    3
    39    23    24   ar
    40    23    28    1
    41    24    29    1
    42    19    21    1
    43    35    30   ar
    44    30    38    1
    45    40    38    1
    46    38    39    1
    47    38    41    1
