@<TRIPOS>MOLECULE
mol_data/opt/cam/geoms/mol2/12fd4ll-12le6ef.out
 49 52 0 0 0
SMALL
GASTEIGER

@<TRIPOS>ATOM
      1 C           0.3326    1.6040   -0.5811 C.ar    1  LIG1        0.1338
      2 C           1.5345    1.5809    0.0656 C.ar    1  LIG1        0.1550
      3 C           1.8701    2.9351    0.3732 C.ar    1  LIG1        0.0259
      4 C           0.8407    3.7082   -0.1102 C.ar    1  LIG1        0.1419
      5 O          -0.0978    2.8994   -0.6925 O.2     1  LIG1       -0.4591
      6 H          -0.3025    0.8396   -0.9954 H       1  LIG1        0.1068
      7 O           2.2472    0.4518    0.3443 O.3     1  LIG1       -0.5036
      8 H           3.0531    0.7069    0.8093 H       1  LIG1        0.2923
      9 H           2.7485    3.2988    0.8816 H       1  LIG1        0.0692
     10 C           1.4354    6.0903    0.4304 C.ar    1  LIG1        0.1281
     11 C           1.1366    7.4513    0.3900 C.ar    1  LIG1       -0.0117
     12 C           0.5582    5.1352   -0.1289 C.ar    1  LIG1        0.0588
     13 C          -0.0452    7.9291   -0.2011 C.ar    1  LIG1       -0.0125
     14 H           1.8277    8.1556    0.8465 H       1  LIG1        0.0660
     15 C          -0.6216    5.6241   -0.7197 C.ar    1  LIG1       -0.0470
     16 C          -0.9205    6.9790   -0.7582 C.ar    1  LIG1       -0.0531
     17 H          -1.3053    4.9095   -1.1632 H       1  LIG1        0.0626
     18 O           2.5865    5.6417    1.0223 O.3     1  LIG1       -0.5060
     19 H           3.0704    6.4018    1.3716 H       1  LIG1        0.2922
     20 H          -1.8309    7.3120   -1.2457 H       1  LIG1        0.0624
     21 C           0.5494   10.3852   -0.5189 C.ar    1  LIG1        0.0332
     22 C           0.1351   11.7223   -0.4944 C.ar    1  LIG1       -0.0278
     23 C          -0.3838    9.3737   -0.2031 C.ar    1  LIG1        0.0064
     24 C          -1.1634   12.1306   -0.1560 C.ar    1  LIG1        0.0421
     25 H           0.8552   12.4800   -0.7786 H       1  LIG1        0.0644
     26 C          -1.7006    9.7672    0.0989 C.ar    1  LIG1       -0.0098
     27 C          -2.0973   11.0978    0.1258 C.ar    1  LIG1        0.1299
     28 H          -2.4098    8.9881    0.3476 H       1  LIG1        0.0661
     29 N           1.8864   10.0887   -0.8412 N.pl3   1  LIG1       -0.3575
     30 H           2.0059    9.1909   -1.2948 H       1  LIG1        0.1423
     31 H           2.3351   10.8220   -1.3760 H       1  LIG1        0.1423
     32 O          -3.3904   11.4843    0.4296 O.3     1  LIG1       -0.4944
     33 C          -4.3268   10.4868    0.8030 C.3     1  LIG1        0.0788
     34 H          -5.2547   11.0138    1.0315 H       1  LIG1        0.0660
     35 H          -4.5088    9.7738   -0.0114 H       1  LIG1        0.0660
     36 H          -3.9963    9.9374    1.6930 H       1  LIG1        0.0660
     37 C          -1.4967   13.5556   -0.1177 C.ar    1  LIG1        0.0566
     38 C          -0.6775   14.6867    0.0280 C.ar    1  LIG1        0.0163
     39 C          -1.5392   15.8122   -0.0284 C.ar    1  LIG1        0.1375
     40 C          -2.8398   15.3754   -0.1982 C.ar    1  LIG1        0.0444
     41 N          -2.7925   14.0056   -0.2531 N.ar    1  LIG1       -0.3573
     42 H          -3.5786   13.3764   -0.2676 H       1  LIG1        0.1655
     43 H          -3.7686   15.9198   -0.2817 H       1  LIG1        0.0844
     44 C           0.8012   14.7899    0.2627 C.3     1  LIG1       -0.0342
     45 H           1.0307   15.7539    0.7250 H       1  LIG1        0.0279
     46 H           1.3861   14.7373   -0.6658 H       1  LIG1        0.0279
     47 H           1.1659   13.9993    0.9259 H       1  LIG1        0.0279
     48 O          -1.0720   17.0983    0.0792 O.3     1  LIG1       -0.5050
     49 H          -1.8261   17.6960    0.1515 H       1  LIG1        0.2922
@<TRIPOS>BOND
     1    31    29    1
     2    30    29    1
     3    20    16    1
     4    17    15    1
     5     6     1    1
     6    29    21    1
     7    25    22    1
     8    16    15   ar
     9    16    13   ar
    10    15    12   ar
    11     5     1   ar
    12     5     4   ar
    13    46    44    1
    14     1     2   ar
    15    21    22   ar
    16    21    23   ar
    17    22    24   ar
    18    43    40    1
    19    42    41    1
    20    41    40   ar
    21    41    37   ar
    22    23    13    1
    23    23    26   ar
    24    13    11   ar
    25    40    39   ar
    26    24    37    1
    27    24    27   ar
    28    12     4    1
    29    12    10   ar
    30    37    38   ar
    31     4     3   ar
    32    39    38   ar
    33    39    48    1
    34    35    33    1
    35    38    44    1
    36     2     7    1
    37     2     3   ar
    38    48    49    1
    39    26    27   ar
    40    26    28    1
    41    27    32    1
    42    44    45    1
    43    44    47    1
    44     7     8    1
    45     3     9    1
    46    11    10   ar
    47    11    14    1
    48    32    33    1
    49    10    18    1
    50    33    34    1
    51    33    36    1
    52    18    19    1
