@<TRIPOS>MOLECULE
mol_data/opt/cam/geoms/mol2/12fe12fe-12fe12fe.out
 42 45 0 0 0
SMALL
GASTEIGER

@<TRIPOS>ATOM
      1 C           0.0978    1.7414   -0.0001 C.ar    1  LIG1        0.1353
      2 C           1.4472    1.6759   -0.0001 C.ar    1  LIG1        0.1709
      3 C           1.9500    3.0277   -0.0001 C.ar    1  LIG1        0.1149
      4 C           0.8386    3.8318   -0.0001 C.ar    1  LIG1        0.1924
      5 O          -0.2840    3.0692   -0.0001 O.2     1  LIG1       -0.4547
      6 H          -0.6888    1.0082   -0.0000 H       1  LIG1        0.1068
      7 O           2.2075    0.5627   -0.0000 O.3     1  LIG1       -0.5028
      8 H           3.1350    0.8385   -0.0000 H       1  LIG1        0.2923
      9 C           3.3261    3.3553   -0.0001 C.1     1  LIG1       -0.0621
     10 C           4.5174    3.5390   -0.0001 C.1     1  LIG1       -0.1137
     11 H           5.5631    3.7426    0.0003 H       1  LIG1        0.1232
     12 C           0.6102    5.2387   -0.0001 C.ar    1  LIG1        0.2144
     13 C          -0.5599    5.9490   -0.0001 C.ar    1  LIG1        0.1823
     14 C          -0.2108    7.3360   -0.0001 C.ar    1  LIG1        0.1157
     15 C           1.1697    7.3582   -0.0001 C.ar    1  LIG1        0.1934
     16 O           1.6704    6.1052   -0.0001 O.2     1  LIG1       -0.4434
     17 O          -1.8201    5.4895   -0.0001 O.3     1  LIG1       -0.5023
     18 H          -1.7903    4.5212   -0.0001 H       1  LIG1        0.2923
     19 C          -1.1171    8.4249   -0.0001 C.1     1  LIG1       -0.0621
     20 C          -1.9066    9.3330   -0.0001 C.1     1  LIG1       -0.1137
     21 H          -2.6035   10.1383   -0.0000 H       1  LIG1        0.1232
     22 C           2.1218    8.4224   -0.0001 C.ar    1  LIG1        0.2144
     23 C           3.4883    8.4631   -0.0001 C.ar    1  LIG1        0.1823
     24 C           3.8721    9.8442   -0.0001 C.ar    1  LIG1        0.1157
     25 C           2.6914   10.5561   -0.0002 C.ar    1  LIG1        0.1934
     26 O           1.6453    9.7094   -0.0002 O.2     1  LIG1       -0.4434
     27 O           4.3316    7.4202   -0.0001 O.3     1  LIG1       -0.5023
     28 H           5.2340    7.7733   -0.0001 H       1  LIG1        0.2923
     29 C           5.2331   10.2352   -0.0001 C.1     1  LIG1       -0.0621
     30 C           6.4249   10.4168   -0.0001 C.1     1  LIG1       -0.1137
     31 H           7.4688   10.6310    0.0003 H       1  LIG1        0.1232
     32 C           2.3680   11.9535   -0.0002 C.ar    1  LIG1        0.2134
     33 C           3.0984   13.1101   -0.0002 C.ar    1  LIG1        0.1815
     34 C           2.1604   14.1965   -0.0002 C.ar    1  LIG1        0.1045
     35 C           0.9280   13.6118   -0.0002 C.ar    1  LIG1        0.1118
     36 O           1.0331   12.2783   -0.0002 O.2     1  LIG1       -0.4547
     37 H          -0.0694   14.0214   -0.0002 H       1  LIG1        0.1043
     38 O           4.4364   13.2204   -0.0003 O.3     1  LIG1       -0.5023
     39 H           4.6641   14.1609   -0.0003 H       1  LIG1        0.2923
     40 C           2.5260   15.5671   -0.0003 C.1     1  LIG1       -0.0628
     41 C           2.9129   16.7078   -0.0003 C.1     1  LIG1       -0.1137
     42 H           3.2275   17.7264   -0.0004 H       1  LIG1        0.1232
@<TRIPOS>BOND
     1    42    41    1
     2    41    40    3
     3    39    38    1
     4    40    34    1
     5    38    33    1
     6    34    33   ar
     7    34    35   ar
     8    33    32   ar
     9    35    37    1
    10    35    36   ar
    11    32    25    1
    12    32    36   ar
    13    25    26   ar
    14    25    24   ar
    15    26    22   ar
    16    24    29    1
    17    24    23   ar
    18    22    23   ar
    19    22    15    1
    20    19    20    3
    21    19    14    1
    22    29    30    3
    23    23    27    1
    24    20    21    1
    25    15    14   ar
    26    15    16   ar
    27    14    13   ar
    28    16    12   ar
    29    13    12   ar
    30    13    17    1
    31    27    28    1
    32    12     4    1
    33    17    18    1
    34     9     3    1
    35     9    10    3
    36     4     3   ar
    37     4     5   ar
    38    30    31    1
    39     3     2   ar
    40     5     1   ar
    41    10    11    1
    42     2     1   ar
    43     2     7    1
    44     1     6    1
    45     8     7    1
