@<TRIPOS>MOLECULE
mol_data/opt/cam/geoms/mol2/12fe12fe-12fe-12fe-.out
 42 45 0 0 0
SMALL
GASTEIGER

@<TRIPOS>ATOM
      1 C          -0.1611    1.7453   -0.0000 C.ar    1  LIG1        0.1353
      2 C           1.1835    1.6110   -0.0000 C.ar    1  LIG1        0.1709
      3 C           1.7541    2.9357   -0.0000 C.ar    1  LIG1        0.1149
      4 C           0.6851    3.7940   -0.0000 C.ar    1  LIG1        0.1924
      5 O          -0.4753    3.0905   -0.0000 O.2     1  LIG1       -0.4547
      6 H          -0.9836    1.0527   -0.0000 H       1  LIG1        0.1068
      7 O           1.8840    0.4601   -0.0000 O.3     1  LIG1       -0.5028
      8 H           2.8253    0.6842   -0.0000 H       1  LIG1        0.2923
      9 C           3.1443    3.1980   -0.0000 C.1     1  LIG1       -0.0621
     10 C           4.3421    3.3312   -0.0001 C.1     1  LIG1       -0.1137
     11 H           5.3950    3.4936   -0.0003 H       1  LIG1        0.1232
     12 C           0.5258    5.2113   -0.0001 C.ar    1  LIG1        0.2144
     13 C          -0.6082    5.9743   -0.0001 C.ar    1  LIG1        0.1823
     14 C          -0.1899    7.3418   -0.0001 C.ar    1  LIG1        0.1157
     15 C           1.1940    7.3050   -0.0001 C.ar    1  LIG1        0.1934
     16 O           1.6258    6.0292   -0.0001 O.2     1  LIG1       -0.4434
     17 O          -1.8900    5.5820   -0.0000 O.3     1  LIG1       -0.5023
     18 H          -1.9118    4.6131   -0.0000 H       1  LIG1        0.2923
     19 C          -1.0482    8.4680   -0.0001 C.1     1  LIG1       -0.0621
     20 C          -1.8036    9.4092   -0.0001 C.1     1  LIG1       -0.1137
     21 H          -2.4859   10.2288   -0.0005 H       1  LIG1        0.1232
     22 C           2.2013    8.3199   -0.0001 C.ar    1  LIG1        0.2144
     23 C           2.1883    9.6936   -0.0001 C.ar    1  LIG1        0.1823
     24 C           3.5541   10.1209   -0.0001 C.ar    1  LIG1        0.1157
     25 C           4.3110    8.9657   -0.0001 C.ar    1  LIG1        0.1934
     26 O           3.5099    7.8892   -0.0001 O.2     1  LIG1       -0.4434
     27 O           1.1827   10.5707   -0.0001 O.3     1  LIG1       -0.5023
     28 H           0.3191   10.1204   -0.0001 H       1  LIG1        0.2923
     29 C           3.9855   11.4700   -0.0001 C.1     1  LIG1       -0.0621
     30 C           4.3241   12.6281   -0.0001 C.1     1  LIG1       -0.1137
     31 H           4.6076   13.6561   -0.0002 H       1  LIG1        0.1232
     32 C           5.7222    8.7155   -0.0001 C.ar    1  LIG1        0.2134
     33 C           6.8432    9.5125   -0.0001 C.ar    1  LIG1        0.1815
     34 C           7.9745    8.6278   -0.0001 C.ar    1  LIG1        0.1045
     35 C           7.4495    7.3700   -0.0001 C.ar    1  LIG1        0.1118
     36 O           6.1109    7.3966   -0.0000 O.2     1  LIG1       -0.4547
     37 H           7.9156    6.3975   -0.0000 H       1  LIG1        0.1043
     38 O           6.9864   10.8395   -0.0002 O.3     1  LIG1       -0.5023
     39 H           6.1231   11.2894   -0.0002 H       1  LIG1        0.2923
     40 C           9.3446    8.9990   -0.0001 C.1     1  LIG1       -0.0628
     41 C          10.5063    9.3108   -0.0002 C.1     1  LIG1       -0.1137
     42 H          11.5338    9.5932   -0.0001 H       1  LIG1        0.1232
@<TRIPOS>BOND
     1    21    20    1
     2    11    10    1
     3    31    30    1
     4    38    39    1
     5    38    33    1
     6    41    40    3
     7    41    42    1
     8    40    34    1
     9    33    34   ar
    10    33    32   ar
    11    30    29    3
    12    34    35   ar
    13    27    28    1
    14    27    23    1
    15    29    24    1
    16    24    23   ar
    17    24    25   ar
    18    23    22   ar
    19    20    19    3
    20    32    25    1
    21    32    36   ar
    22    25    26   ar
    23    22    26   ar
    24    22    15    1
    25    15    14   ar
    26    15    16   ar
    27    14    19    1
    28    14    13   ar
    29    16    12   ar
    30    10     9    3
    31    13    12   ar
    32    13    17    1
    33    12     4    1
    34    35    36   ar
    35    35    37    1
    36    17    18    1
    37     4     5   ar
    38     4     3   ar
    39     5     1   ar
    40     3     9    1
    41     3     2   ar
    42     2     1   ar
    43     2     7    1
    44     1     6    1
    45     8     7    1
