@<TRIPOS>MOLECULE
mol_data/opt/cam/geoms/mol2/12fe12fe.out
 22 23 0 0 0
SMALL
GASTEIGER

@<TRIPOS>ATOM
      1 C           0.2009    1.7920   -0.0001 C.ar    1  LIG1        0.1353
      2 C           1.5524    1.8339   -0.0000 C.ar    1  LIG1        0.1709
      3 C           1.9351    3.2225   -0.0000 C.ar    1  LIG1        0.1149
      4 C           0.7528    3.9267   -0.0001 C.ar    1  LIG1        0.1923
      5 O          -0.2889    3.0720   -0.0001 O.2     1  LIG1       -0.4547
      6 H          -0.5211    0.9946   -0.0001 H       1  LIG1        0.1068
      7 O           2.4054    0.7891   -0.0000 O.3     1  LIG1       -0.5028
      8 H           3.3056    1.1453    0.0000 H       1  LIG1        0.2923
      9 C           3.2937    3.6214    0.0000 C.1     1  LIG1       -0.0621
     10 C           4.4846    3.8104    0.0001 C.1     1  LIG1       -0.1137
     11 H           5.5270    4.0310    0.0002 H       1  LIG1        0.1232
     12 C           0.4198    5.3259   -0.0001 C.ar    1  LIG1        0.2134
     13 C           1.1394    6.4873   -0.0000 C.ar    1  LIG1        0.1815
     14 C           0.1920    7.5670   -0.0001 C.ar    1  LIG1        0.1045
     15 C          -1.0355    6.9736   -0.0001 C.ar    1  LIG1        0.1118
     16 O          -0.9179    5.6399   -0.0001 O.2     1  LIG1       -0.4547
     17 H          -2.0364    7.3742   -0.0001 H       1  LIG1        0.1043
     18 O           2.4781    6.6099   -0.0000 O.3     1  LIG1       -0.5023
     19 H           2.6962    7.5524    0.0000 H       1  LIG1        0.2923
     20 C           0.5458    8.9408   -0.0001 C.1     1  LIG1       -0.0628
     21 C           0.9226   10.0849   -0.0001 C.1     1  LIG1       -0.1137
     22 H           1.2285   11.1061   -0.0004 H       1  LIG1        0.1232
@<TRIPOS>BOND
     1    22    21    1
     2    17    15    1
     3     6     1    1
     4    16    15   ar
     5    16    12   ar
     6    15    14   ar
     7     5     1   ar
     8     5     4   ar
     9     1     2   ar
    10    21    20    3
    11    14    20    1
    12    14    13   ar
    13    12     4    1
    14    12    13   ar
    15     4     3   ar
    16    13    18    1
    17     2     3   ar
    18     2     7    1
    19     3     9    1
    20     7     8    1
    21    18    19    1
    22     9    10    3
    23    10    11    1
