@<TRIPOS>MOLECULE
mol_data/opt/cam/geoms/mol2/12fe4hh6il13df.out
 52 55 0 0 0
SMALL
GASTEIGER

@<TRIPOS>ATOM
      1 C           0.1631    1.5966   -0.3059 C.ar    1  LIG1        0.1351
      2 C           1.5041    1.5355   -0.1474 C.ar    1  LIG1        0.1708
      3 C           1.9641    2.8897    0.0194 C.ar    1  LIG1        0.1118
      4 C           0.8436    3.6874   -0.0413 C.ar    1  LIG1        0.1556
      5 O          -0.2380    2.9039   -0.2414 O.2     1  LIG1       -0.4579
      6 H          -0.6028    0.8558   -0.4551 H       1  LIG1        0.1068
      7 O           2.2757    0.4277   -0.1541 O.3     1  LIG1       -0.5028
      8 H           3.1940    0.6981   -0.0204 H       1  LIG1        0.2923
      9 C           3.3351    3.2288    0.1263 C.1     1  LIG1       -0.0622
     10 C           4.5192    3.4394    0.2270 C.1     1  LIG1       -0.1137
     11 H           5.5629    3.6479    0.2877 H       1  LIG1        0.1232
     12 C           1.2496    6.0065    0.8842 C.ar    1  LIG1        0.0361
     13 C           0.8813    7.3544    0.8425 C.ar    1  LIG1       -0.0308
     14 C           0.5888    5.1274    0.0041 C.ar    1  LIG1        0.0410
     15 C          -0.1127    7.8475    0.0054 C.ar    1  LIG1        0.0063
     16 H           1.3735    8.0475    1.5195 H       1  LIG1        0.0643
     17 C          -0.4002    5.6273   -0.8502 C.ar    1  LIG1       -0.0280
     18 C          -0.7672    6.9655   -0.8732 C.ar    1  LIG1        0.0332
     19 H          -0.8941    4.9319   -1.5211 H       1  LIG1        0.0644
     20 N           2.1612    5.5766    1.8449 N.pl3   1  LIG1       -0.3574
     21 H           2.7900    4.8339    1.5769 H       1  LIG1        0.1423
     22 H           2.6544    6.3301    2.3010 H       1  LIG1        0.1423
     23 N          -1.7865    7.4135   -1.7256 N.pl3   1  LIG1       -0.3575
     24 H          -1.6852    8.3760   -2.0182 H       1  LIG1        0.1423
     25 H          -1.9519    6.8077   -2.5170 H       1  LIG1        0.1423
     26 C          -1.6550    9.8002    0.4946 C.ar    1  LIG1        0.0469
     27 C          -0.4270    9.3025    0.0268 C.ar    1  LIG1        0.0085
     28 C           0.5364   10.2198   -0.3911 C.ar    1  LIG1       -0.0083
     29 C           0.2655   11.5808   -0.3577 C.ar    1  LIG1        0.1480
     30 C          -0.9957   11.9965    0.0924 C.ar    1  LIG1        0.1302
     31 N          -1.9036   11.1095    0.5107 N.ar    1  LIG1       -0.2461
     32 H           1.4949    9.8572   -0.7427 H       1  LIG1        0.0661
     33 C          -2.7359    8.8951    1.0161 C.3     1  LIG1       -0.0217
     34 H          -2.3526    8.2353    1.7993 H       1  LIG1        0.0293
     35 H          -3.1274    8.2569    0.2188 H       1  LIG1        0.0293
     36 H          -3.5459    9.4993    1.4246 H       1  LIG1        0.0293
     37 O           1.1179   12.5528   -0.7215 O.3     1  LIG1       -0.4929
     38 C           2.3786   12.2296   -1.2700 C.3     1  LIG1        0.0789
     39 H           2.8277   13.1860   -1.5346 H       1  LIG1        0.0660
     40 H           3.0095   11.7102   -0.5396 H       1  LIG1        0.0660
     41 H           2.2746   11.6097   -2.1676 H       1  LIG1        0.0660
     42 C          -1.4273   13.4001    0.1646 C.ar    1  LIG1        0.0898
     43 C          -0.9233   14.6577   -0.2001 C.ar    1  LIG1        0.1199
     44 C          -1.9142   15.6152    0.1654 C.ar    1  LIG1        0.1521
     45 C          -2.9709   14.9454    0.7279 C.ar    1  LIG1        0.0455
     46 N          -2.6481   13.6151    0.7134 N.ar    1  LIG1       -0.3553
     47 H          -3.1976   12.8282    1.0302 H       1  LIG1        0.1655
     48 H          -3.9045   15.3057    1.1301 H       1  LIG1        0.0845
     49 N           1.2374   15.4639   -1.3503 N.1     1  LIG1       -0.1907
     50 C           0.2868   15.0509   -0.8332 C.1     1  LIG1        0.1050
     51 O          -1.7471   16.9424   -0.0486 O.3     1  LIG1       -0.5040
     52 H          -2.5269   17.4178    0.2582 H       1  LIG1        0.2923
@<TRIPOS>BOND
     1    25    23    1
     2    41    38    1
     3    24    23    1
     4    23    18    1
     5    39    38    1
     6    19    17    1
     7    49    50    3
     8    38    37    1
     9    38    40    1
    10    18    17   ar
    11    18    15   ar
    12    17    14   ar
    13    50    43    1
    14    32    28    1
    15    37    29    1
    16     6     1    1
    17    28    29   ar
    18    28    27   ar
    19    29    30   ar
    20     1     5   ar
    21     1     2   ar
    22     5     4   ar
    23    43    42   ar
    24    43    44   ar
    25     7     2    1
    26     7     8    1
    27     2     3   ar
    28    51    44    1
    29    51    52    1
    30     4    14    1
    31     4     3   ar
    32    14    12   ar
    33    15    27    1
    34    15    13   ar
    35     3     9    1
    36    27    26   ar
    37    30    42    1
    38    30    31   ar
    39     9    10    3
    40    42    46   ar
    41    44    45   ar
    42    35    33    1
    43    10    11    1
    44    26    31   ar
    45    26    33    1
    46    46    45   ar
    47    46    47    1
    48    45    48    1
    49    13    12   ar
    50    13    16    1
    51    12    20    1
    52    33    36    1
    53    33    34    1
    54    21    20    1
    55    20    22    1
