@<TRIPOS>MOLECULE
mol_data/opt/cam/geoms/mol2/12fe12fe-12fe.out
 32 34 0 0 0
SMALL
GASTEIGER

@<TRIPOS>ATOM
      1 C           0.0870    1.8124   -0.0000 C.ar    1  LIG1        0.1353
      2 C           1.4362    1.7424   -0.0000 C.ar    1  LIG1        0.1709
      3 C           1.9433    3.0928   -0.0000 C.ar    1  LIG1        0.1149
      4 C           0.8346    3.9001   -0.0001 C.ar    1  LIG1        0.1924
      5 O          -0.2903    3.1412   -0.0001 O.2     1  LIG1       -0.4547
      6 H          -0.7018    1.0818   -0.0000 H       1  LIG1        0.1068
      7 O           2.1920    0.6265    0.0000 O.3     1  LIG1       -0.5028
      8 H           3.1209    0.8976    0.0000 H       1  LIG1        0.2923
      9 C           3.3208    3.4147   -0.0001 C.1     1  LIG1       -0.0621
     10 C           4.5132    3.5910    0.0000 C.1     1  LIG1       -0.1137
     11 H           5.5605    3.7864    0.0000 H       1  LIG1        0.1232
     12 C           0.6078    5.3081   -0.0001 C.ar    1  LIG1        0.2144
     13 C          -0.5621    6.0184   -0.0001 C.ar    1  LIG1        0.1823
     14 C          -0.2117    7.4057   -0.0001 C.ar    1  LIG1        0.1157
     15 C           1.1673    7.4266   -0.0001 C.ar    1  LIG1        0.1934
     16 O           1.6678    6.1742   -0.0001 O.2     1  LIG1       -0.4434
     17 O          -1.8226    5.5609   -0.0001 O.3     1  LIG1       -0.5023
     18 H          -1.7946    4.5924   -0.0001 H       1  LIG1        0.2923
     19 C          -1.1191    8.4944   -0.0001 C.1     1  LIG1       -0.0621
     20 C          -1.9126    9.3989   -0.0002 C.1     1  LIG1       -0.1137
     21 H          -2.6148   10.1999   -0.0002 H       1  LIG1        0.1232
     22 C           2.1228    8.4924   -0.0001 C.ar    1  LIG1        0.2134
     23 C           3.4902    8.5271   -0.0001 C.ar    1  LIG1        0.1815
     24 C           3.8679    9.9130   -0.0001 C.ar    1  LIG1        0.1045
     25 C           2.6956   10.6106   -0.0002 C.ar    1  LIG1        0.1118
     26 O           1.6465    9.7785   -0.0002 O.2     1  LIG1       -0.4547
     27 H           2.4787   11.6667   -0.0002 H       1  LIG1        0.1043
     28 O           4.3258    7.4756   -0.0000 O.3     1  LIG1       -0.5023
     29 H           5.2325    7.8135   -0.0000 H       1  LIG1        0.2923
     30 C           5.2086   10.3768   -0.0001 C.1     1  LIG1       -0.0628
     31 C           6.3702   10.6955   -0.0001 C.1     1  LIG1       -0.1137
     32 H           7.3902   11.0053   -0.0002 H       1  LIG1        0.1232
@<TRIPOS>BOND
     1    27    25    1
     2    21    20    1
     3    26    25   ar
     4    26    22   ar
     5    25    24   ar
     6    20    19    3
     7    32    31    1
     8    24    30    1
     9    24    23   ar
    10    22    15    1
    11    22    23   ar
    12    30    31    3
    13    15    14   ar
    14    15    16   ar
    15    19    14    1
    16    14    13   ar
    17    23    28    1
    18    13    17    1
    19    13    12   ar
    20    17    18    1
    21    16    12   ar
    22    12     4    1
    23     9     3    1
    24     9    10    3
    25     5     4   ar
    26     5     1   ar
    27     4     3   ar
    28     3     2   ar
    29    28    29    1
    30     1     6    1
    31     1     2   ar
    32     2     7    1
    33    11    10    1
    34     8     7    1
