@<TRIPOS>MOLECULE
mol_data/opt/cam/geoms/mol2/12fe12fe12fe12fe.out
 42 45 0 0 0
SMALL
GASTEIGER

@<TRIPOS>ATOM
      1 C           0.4674    1.7344   -0.0001 C.ar    1  LIG1        0.1353
      2 C           1.8167    1.8191   -0.0001 C.ar    1  LIG1        0.1709
      3 C           2.1561    3.2187   -0.0000 C.ar    1  LIG1        0.1149
      4 C           0.9512    3.8868   -0.0001 C.ar    1  LIG1        0.1924
      5 O          -0.0627    2.9989   -0.0001 O.2     1  LIG1       -0.4547
      6 H          -0.2292    0.9148   -0.0002 H       1  LIG1        0.1068
      7 O           2.7037    0.8021   -0.0000 O.3     1  LIG1       -0.5028
      8 H           3.5908    1.1899   -0.0000 H       1  LIG1        0.2923
      9 C           3.5015    3.6585    0.0000 C.1     1  LIG1       -0.0621
     10 C           4.6866    3.8825    0.0001 C.1     1  LIG1       -0.1137
     11 H           5.7214    4.1362    0.0001 H       1  LIG1        0.1232
     12 C           0.5781    5.2721   -0.0001 C.ar    1  LIG1        0.2144
     13 C           1.2608    6.4545   -0.0001 C.ar    1  LIG1        0.1823
     14 C           0.2928    7.5114   -0.0001 C.ar    1  LIG1        0.1157
     15 C          -0.9362    6.8855   -0.0001 C.ar    1  LIG1        0.1934
     16 O          -0.7691    5.5502   -0.0001 O.2     1  LIG1       -0.4434
     17 O           2.5926    6.6236   -0.0000 O.3     1  LIG1       -0.5023
     18 H           2.7693    7.5763   -0.0000 H       1  LIG1        0.2923
     19 C           0.6821    8.8725   -0.0001 C.1     1  LIG1       -0.0621
     20 C           1.1603    9.9793   -0.0001 C.1     1  LIG1       -0.1137
     21 H           1.5313   10.9783   -0.0001 H       1  LIG1        0.1232
     22 C          -2.2895    7.3525   -0.0002 C.ar    1  LIG1        0.2144
     23 C          -2.8845    8.5830   -0.0002 C.ar    1  LIG1        0.1823
     24 C          -4.3019    8.3749   -0.0002 C.ar    1  LIG1        0.1157
     25 C          -4.4732    7.0071   -0.0002 C.ar    1  LIG1        0.1934
     26 O          -3.2760    6.3948   -0.0002 O.2     1  LIG1       -0.4434
     27 O          -2.2758    9.7779   -0.0002 O.3     1  LIG1       -0.5023
     28 H          -2.9629   10.4613   -0.0002 H       1  LIG1        0.2923
     29 C          -5.2098    9.4617   -0.0002 C.1     1  LIG1       -0.0621
     30 C          -5.8567   10.4789   -0.0003 C.1     1  LIG1       -0.1137
     31 H          -6.4738   11.3478   -0.0003 H       1  LIG1        0.1232
     32 C          -5.6201    6.1457   -0.0002 C.ar    1  LIG1        0.2134
     33 C          -6.9735    6.3448   -0.0003 C.ar    1  LIG1        0.1815
     34 C          -7.5863    5.0469   -0.0003 C.ar    1  LIG1        0.1045
     35 C          -6.5521    4.1571   -0.0002 C.ar    1  LIG1        0.1118
     36 O          -5.3761    4.7940   -0.0002 O.2     1  LIG1       -0.4547
     37 H          -6.5214    3.0793   -0.0002 H       1  LIG1        0.1043
     38 O          -7.6165    7.5232   -0.0003 O.3     1  LIG1       -0.5023
     39 H          -8.5687    7.3502   -0.0004 H       1  LIG1        0.2923
     40 C          -8.9876    4.8259   -0.0003 C.1     1  LIG1       -0.0628
     41 C         -10.1872    4.7179   -0.0004 C.1     1  LIG1       -0.1137
     42 H         -11.2460    4.5928   -0.0004 H       1  LIG1        0.1232
@<TRIPOS>BOND
     1    42    41    1
     2    41    40    3
     3    39    38    1
     4    40    34    1
     5    38    33    1
     6    31    30    1
     7    33    34   ar
     8    33    32   ar
     9    34    35   ar
    10    30    29    3
    11    29    24    1
    12    32    25    1
    13    32    36   ar
    14    35    37    1
    15    35    36   ar
    16    24    25   ar
    17    24    23   ar
    18    25    26   ar
    19    28    27    1
    20    23    27    1
    21    23    22   ar
    22    26    22   ar
    23    22    15    1
    24     6     1    1
    25     5     1   ar
    26     5     4   ar
    27    16    15   ar
    28    16    12   ar
    29    21    20    1
    30    15    14   ar
    31     1     2   ar
    32    12     4    1
    33    12    13   ar
    34    14    19    1
    35    14    13   ar
    36     4     3   ar
    37     2     3   ar
    38     2     7    1
    39    19    20    3
    40    13    17    1
    41     3     9    1
    42     7     8    1
    43    17    18    1
    44     9    10    3
    45    10    11    1
