@<TRIPOS>MOLECULE
mol_data/opt/cam/geoms/mol2/12fe12fe12fe12fe-.out
 42 45 0 0 0
SMALL
GASTEIGER

@<TRIPOS>ATOM
      1 C           0.1784    1.7974   -0.0001 C.ar    1  LIG1        0.1353
      2 C           1.5305    1.8056   -0.0001 C.ar    1  LIG1        0.1709
      3 C           1.9494    3.1836   -0.0000 C.ar    1  LIG1        0.1149
      4 C           0.7853    3.9189   -0.0001 C.ar    1  LIG1        0.1924
      5 O          -0.2791    3.0905   -0.0001 O.2     1  LIG1       -0.4547
      6 H          -0.5639    1.0189   -0.0001 H       1  LIG1        0.1068
      7 O           2.3566    0.7392   -0.0000 O.3     1  LIG1       -0.5028
      8 H           3.2654    1.0726    0.0000 H       1  LIG1        0.2923
      9 C           3.3163    3.5514    0.0000 C.1     1  LIG1       -0.0621
     10 C           4.5106    3.7185    0.0000 C.1     1  LIG1       -0.1137
     11 H           5.5569    3.9193    0.0001 H       1  LIG1        0.1232
     12 C           0.4867    5.3220   -0.0001 C.ar    1  LIG1        0.2144
     13 C           1.2213    6.4730   -0.0001 C.ar    1  LIG1        0.1823
     14 C           0.3014    7.5737   -0.0001 C.ar    1  LIG1        0.1157
     15 C          -0.9531    7.0048   -0.0001 C.ar    1  LIG1        0.1934
     16 O          -0.8474    5.6614   -0.0001 O.2     1  LIG1       -0.4434
     17 O           2.5591    6.5798   -0.0000 O.3     1  LIG1       -0.5023
     18 H           2.7827    7.5223   -0.0000 H       1  LIG1        0.2923
     19 C           0.7380    8.9201   -0.0001 C.1     1  LIG1       -0.0621
     20 C           1.2393   10.0165   -0.0001 C.1     1  LIG1       -0.1137
     21 H           1.6370   11.0052   -0.0001 H       1  LIG1        0.1232
     22 C          -2.2895    7.5121   -0.0002 C.ar    1  LIG1        0.2144
     23 C          -2.8795    8.7444   -0.0002 C.ar    1  LIG1        0.1823
     24 C          -4.3017    8.5484   -0.0002 C.ar    1  LIG1        0.1157
     25 C          -4.4870    7.1868   -0.0002 C.ar    1  LIG1        0.1934
     26 O          -3.2908    6.5591   -0.0002 O.2     1  LIG1       -0.4434
     27 O          -2.2565    9.9311   -0.0002 O.3     1  LIG1       -0.5023
     28 H          -2.9308   10.6263   -0.0002 H       1  LIG1        0.2923
     29 C          -5.2374    9.6103   -0.0003 C.1     1  LIG1       -0.0621
     30 C          -5.9558   10.5780   -0.0003 C.1     1  LIG1       -0.1137
     31 H          -6.6202   11.4116   -0.0004 H       1  LIG1        0.1232
     32 C          -5.6059    6.3064   -0.0003 C.ar    1  LIG1        0.2134
     33 C          -5.6452    4.9350   -0.0003 C.ar    1  LIG1        0.1815
     34 C          -7.0336    4.5704   -0.0003 C.ar    1  LIG1        0.1045
     35 C          -7.7145    5.7538   -0.0003 C.ar    1  LIG1        0.1118
     36 O          -6.8794    6.8064   -0.0003 O.2     1  LIG1       -0.4547
     37 H          -8.7696    5.9752   -0.0004 H       1  LIG1        0.1043
     38 O          -4.6407    4.0531   -0.0002 O.3     1  LIG1       -0.5023
     39 H          -3.7917    4.5224   -0.0002 H       1  LIG1        0.2923
     40 C          -7.5760    3.2585   -0.0003 C.1     1  LIG1       -0.0628
     41 C          -8.0361    2.1473   -0.0003 C.1     1  LIG1       -0.1137
     42 H          -8.4368    1.1599   -0.0004 H       1  LIG1        0.1232
@<TRIPOS>BOND
     1    31    30    1
     2    42    41    1
     3    37    35    1
     4    41    40    3
     5    35    36   ar
     6    35    34   ar
     7    40    34    1
     8    36    32   ar
     9    34    33   ar
    10    30    29    3
    11    32    33   ar
    12    32    25    1
    13    33    38    1
    14    29    24    1
    15    25    24   ar
    16    25    26   ar
    17    38    39    1
    18    24    23   ar
    19    26    22   ar
    20    28    27    1
    21    23    27    1
    22    23    22   ar
    23    22    15    1
    24    15    16   ar
    25    15    14   ar
    26    16    12   ar
    27     6     1    1
    28     5     1   ar
    29     5     4   ar
    30     1     2   ar
    31    14    19    1
    32    14    13   ar
    33    21    20    1
    34    12     4    1
    35    12    13   ar
    36    19    20    3
    37     4     3   ar
    38    13    17    1
    39     2     3   ar
    40     2     7    1
    41     3     9    1
    42    17    18    1
    43     7     8    1
    44     9    10    3
    45    10    11    1
