@<TRIPOS>MOLECULE
mol_data/opt/cam/geoms/mol2/12fe12fe-12fe-12fe.out
 42 45 0 0 0
SMALL
GASTEIGER

@<TRIPOS>ATOM
      1 C          -0.0349    1.7200   -0.1039 C.ar    1  LIG1        0.1353
      2 C           1.3021    1.6555   -0.2962 C.ar    1  LIG1        0.1709
      3 C           1.8084    3.0045   -0.2846 C.ar    1  LIG1        0.1149
      4 C           0.7122    3.8018   -0.0801 C.ar    1  LIG1        0.1924
      5 O          -0.4058    3.0444    0.0310 O.2     1  LIG1       -0.4547
      6 H          -0.8179    0.9860   -0.0395 H       1  LIG1        0.1068
      7 O           2.0421    0.5416   -0.4696 O.3     1  LIG1       -0.5028
      8 H           2.9626    0.8115   -0.5926 H       1  LIG1        0.2923
      9 C           3.1601    3.3831   -0.4629 C.1     1  LIG1       -0.0621
     10 C           4.3151    3.6870   -0.6215 C.1     1  LIG1       -0.1137
     11 H           5.3125    4.0380   -0.7519 H       1  LIG1        0.1232
     12 C           0.5228    5.2105    0.0266 C.ar    1  LIG1        0.2144
     13 C          -0.6065    5.9609    0.1979 C.ar    1  LIG1        0.1823
     14 C          -0.1917    7.3302    0.2375 C.ar    1  LIG1        0.1157
     15 C           1.1824    7.3045    0.0745 C.ar    1  LIG1        0.1934
     16 O           1.6125    6.0360   -0.0512 O.2     1  LIG1       -0.4434
     17 O          -1.8788    5.5529    0.3223 O.3     1  LIG1       -0.5023
     18 H          -1.8953    4.5853    0.2767 H       1  LIG1        0.2923
     19 C          -1.0211    8.4584    0.4464 C.1     1  LIG1       -0.0621
     20 C          -1.7306    9.4180    0.6256 C.1     1  LIG1       -0.1137
     21 H          -2.3705   10.2510    0.8088 H       1  LIG1        0.1232
     22 C           2.1817    8.3234   -0.0046 C.ar    1  LIG1        0.2144
     23 C           2.1578    9.6844   -0.1939 C.ar    1  LIG1        0.1823
     24 C           3.5202   10.1249   -0.2339 C.ar    1  LIG1        0.1157
     25 C           4.2770    8.9859   -0.0678 C.ar    1  LIG1        0.1934
     26 O           3.4901    7.9059    0.0706 O.2     1  LIG1       -0.4434
     27 O           1.1348   10.5286   -0.3528 O.3     1  LIG1       -0.5023
     28 H           0.2864   10.0898   -0.1676 H       1  LIG1        0.2923
     29 C           3.9494   11.4644   -0.4076 C.1     1  LIG1       -0.0621
     30 C           4.2872   12.6097   -0.5556 C.1     1  LIG1       -0.1137
     31 H           4.5862   13.6236   -0.6872 H       1  LIG1        0.1232
     32 C           5.6901    8.7605    0.0007 C.ar    1  LIG1        0.2134
     33 C           6.4593    7.6614    0.2693 C.ar    1  LIG1        0.1815
     34 C           7.8284    8.0919    0.2187 C.ar    1  LIG1        0.1045
     35 C           7.7817    9.4220   -0.0800 C.ar    1  LIG1        0.1118
     36 O           6.5151    9.8343   -0.2155 O.2     1  LIG1       -0.4547
     37 H           8.5521   10.1630   -0.2203 H       1  LIG1        0.1043
     38 O           6.0337    6.4129    0.5360 O.3     1  LIG1       -0.5023
     39 H           6.7988    5.8924    0.8195 H       1  LIG1        0.2923
     40 C           8.9413    7.2439    0.4531 C.1     1  LIG1       -0.0628
     41 C           9.8346    6.4650    0.6685 C.1     1  LIG1       -0.1137
     42 H          10.6447    5.7970    0.8529 H       1  LIG1        0.1232
@<TRIPOS>BOND
     1    11    10    1
     2    31    30    1
     3    10     9    3
     4     8     7    1
     5    30    29    3
     6     7     2    1
     7     9     3    1
     8    29    24    1
     9    27    23    1
    10    27    28    1
    11     2     3   ar
    12     2     1   ar
    13     3     4   ar
    14    24    23   ar
    15    24    25   ar
    16    37    35    1
    17    36    35   ar
    18    36    32   ar
    19    23    22   ar
    20     1     6    1
    21     1     5   ar
    22     4    12    1
    23     4     5   ar
    24    35    34   ar
    25    25    32    1
    26    25    26   ar
    27    16    12   ar
    28    16    15   ar
    29    22    26   ar
    30    22    15    1
    31    32    33   ar
    32    12    13   ar
    33    15    14   ar
    34    13    14   ar
    35    13    17    1
    36    34    33   ar
    37    34    40    1
    38    14    19    1
    39    33    38    1
    40    18    17    1
    41    19    20    3
    42    40    41    3
    43    38    39    1
    44    20    21    1
    45    41    42    1
