@<TRIPOS>MOLECULE
mol_data/opt/cam/geoms/mol2/12fe13di6id12ae.out
 46 49 0 0 0
SMALL
GASTEIGER

@<TRIPOS>ATOM
      1 C           0.3158    1.7681   -0.6470 C.ar    1  LIG1        0.1352
      2 C           1.6612    1.7759   -0.7936 C.ar    1  LIG1        0.1709
      3 C           2.1077    3.1229   -0.5513 C.ar    1  LIG1        0.1132
      4 C           0.9758    3.8407   -0.2571 C.ar    1  LIG1        0.1711
      5 O          -0.1085    3.0289   -0.3177 O.2     1  LIG1       -0.4564
      6 H          -0.4372    1.0040   -0.7290 H       1  LIG1        0.1068
      7 O           2.4499    0.7341   -1.1167 O.3     1  LIG1       -0.5028
      8 H           3.3642    1.0497   -1.1543 H       1  LIG1        0.2923
      9 C           3.4612    3.5161   -0.6806 C.1     1  LIG1       -0.0621
     10 C           4.6324    3.7589   -0.8226 C.1     1  LIG1       -0.1137
     11 H           5.6597    4.0285   -0.9158 H       1  LIG1        0.1232
     12 C           0.6802    5.2193    0.0460 C.ar    1  LIG1        0.1017
     13 C           1.4337    6.2961    0.5028 C.ar    1  LIG1        0.0835
     14 C           0.5700    7.4286    0.6089 C.ar    1  LIG1       -0.0071
     15 C          -0.6866    7.0062    0.2259 C.ar    1  LIG1        0.0529
     16 N          -0.5945    5.6728   -0.1032 N.ar    1  LIG1       -0.3504
     17 H          -1.3434    5.0966   -0.4531 H       1  LIG1        0.1660
     18 N           3.8948    6.3801    1.2602 N.1     1  LIG1       -0.1908
     19 C           2.7969    6.3071    0.8999 C.1     1  LIG1        0.1017
     20 C           0.9826    8.7820    1.0922 C.3     1  LIG1       -0.0365
     21 H           0.1260    9.3529    1.4558 H       1  LIG1        0.0279
     22 H           1.4640    9.3655    0.3007 H       1  LIG1        0.0279
     23 H           1.7052    8.6951    1.9072 H       1  LIG1        0.0279
     24 C          -3.1714    7.2878    0.6522 C.ar    1  LIG1        0.0482
     25 C          -1.9464    7.7531    0.1275 C.ar    1  LIG1        0.0209
     26 C          -1.9612    8.9962   -0.4930 C.ar    1  LIG1       -0.0313
     27 C          -3.1396    9.7318   -0.5896 C.ar    1  LIG1        0.0813
     28 C          -4.3197    9.1771   -0.0558 C.ar    1  LIG1        0.1236
     29 N          -4.2974    7.9853    0.5455 N.ar    1  LIG1       -0.2468
     30 H          -1.0505    9.3985   -0.9214 H       1  LIG1        0.0638
     31 C          -3.2939    5.9787    1.3829 C.3     1  LIG1       -0.0217
     32 H          -2.4032    5.7553    1.9729 H       1  LIG1        0.0293
     33 H          -3.4520    5.1481    0.6854 H       1  LIG1        0.0293
     34 H          -4.1673    6.0213    2.0326 H       1  LIG1        0.0293
     35 N          -3.0269   12.0338   -1.7657 N.1     1  LIG1       -0.1908
     36 C          -3.0917   11.0064   -1.2375 C.1     1  LIG1        0.1014
     37 C          -5.6186    9.8424   -0.1092 C.ar    1  LIG1        0.1554
     38 C          -6.0729   11.0267   -0.6131 C.ar    1  LIG1        0.0011
     39 C          -7.4752   11.0769   -0.3324 C.ar    1  LIG1        0.0630
     40 C          -7.7580    9.9125    0.3221 C.ar    1  LIG1        0.1080
     41 O          -6.6556    9.1633    0.4627 O.2     1  LIG1       -0.4601
     42 H          -8.6723    9.5093    0.7275 H       1  LIG1        0.1042
     43 H          -5.5037   11.7857   -1.1237 H       1  LIG1        0.0668
     44 C          -8.3881   12.1161   -0.6622 C.1     1  LIG1       -0.0665
     45 C          -9.1561   12.9982   -0.9437 C.1     1  LIG1       -0.1138
     46 H          -9.8355   13.7804   -1.1934 H       1  LIG1        0.1232
@<TRIPOS>BOND
     1    35    36    3
     2    36    27    1
     3    46    45    1
     4     8     7    1
     5    43    38    1
     6     7     2    1
     7    45    44    3
     8    30    26    1
     9    11    10    1
    10    10     9    3
    11     2     1   ar
    12     2     3   ar
    13     6     1    1
    14     9     3    1
    15    44    39    1
    16     1     5   ar
    17    38    39   ar
    18    38    37   ar
    19    27    26   ar
    20    27    28   ar
    21     3     4   ar
    22    26    25   ar
    23    17    16    1
    24    39    40   ar
    25     5     4   ar
    26     4    12    1
    27    37    28    1
    28    37    41   ar
    29    16    12   ar
    30    16    15   ar
    31    28    29   ar
    32    12    13   ar
    33    25    15    1
    34    25    24   ar
    35    15    14   ar
    36    22    20    1
    37    40    41   ar
    38    40    42    1
    39    13    14   ar
    40    13    19    1
    41    29    24   ar
    42    14    20    1
    43    24    31    1
    44    33    31    1
    45    19    18    3
    46    20    21    1
    47    20    23    1
    48    31    32    1
    49    31    34    1
