@<TRIPOS>MOLECULE
mol_data/opt/cam/geoms/mol2/12fe12fe12fe.out
 32 34 0 0 0
SMALL
GASTEIGER

@<TRIPOS>ATOM
      1 C           0.3044    1.7376   -0.0000 C.ar    1  LIG1        0.1353
      2 C           1.6551    1.7975   -0.0000 C.ar    1  LIG1        0.1709
      3 C           2.0202    3.1906   -0.0000 C.ar    1  LIG1        0.1149
      4 C           0.8279    3.8803   -0.0001 C.ar    1  LIG1        0.1924
      5 O          -0.2024    3.0115   -0.0001 O.2     1  LIG1       -0.4547
      6 H          -0.4071    0.9309   -0.0000 H       1  LIG1        0.1068
      7 O           2.5225    0.7641    0.0000 O.3     1  LIG1       -0.5028
      8 H           3.4172    1.1340    0.0000 H       1  LIG1        0.2923
      9 C           3.3732    3.6068   -0.0000 C.1     1  LIG1       -0.0621
     10 C           4.5617    3.8115    0.0000 C.1     1  LIG1       -0.1137
     11 H           5.6008    4.0471    0.0000 H       1  LIG1        0.1232
     12 C           0.4793    5.2726   -0.0001 C.ar    1  LIG1        0.2144
     13 C           1.1816    6.4433   -0.0001 C.ar    1  LIG1        0.1823
     14 C           0.2300    7.5160   -0.0001 C.ar    1  LIG1        0.1157
     15 C          -1.0073    6.9103   -0.0001 C.ar    1  LIG1        0.1934
     16 O          -0.8623    5.5727   -0.0001 O.2     1  LIG1       -0.4434
     17 O           2.5159    6.5898   -0.0001 O.3     1  LIG1       -0.5023
     18 H           2.7102    7.5389   -0.0001 H       1  LIG1        0.2923
     19 C           0.6405    8.8713   -0.0001 C.1     1  LIG1       -0.0621
     20 C           1.1347    9.9709   -0.0001 C.1     1  LIG1       -0.1137
     21 H           1.5216   10.9638   -0.0001 H       1  LIG1        0.1232
     22 C          -2.3578    7.3959   -0.0001 C.ar    1  LIG1        0.2134
     23 C          -2.9353    8.6356   -0.0002 C.ar    1  LIG1        0.1815
     24 C          -4.3568    8.4345   -0.0002 C.ar    1  LIG1        0.1045
     25 C          -4.5322    7.0819   -0.0001 C.ar    1  LIG1        0.1118
     26 O          -3.3533    6.4492   -0.0001 O.2     1  LIG1       -0.4547
     27 H          -5.4159    6.4641   -0.0001 H       1  LIG1        0.1043
     28 O          -2.3040    9.8209   -0.0002 O.3     1  LIG1       -0.5023
     29 H          -2.9719   10.5211   -0.0003 H       1  LIG1        0.2923
     30 C          -5.3118    9.4834   -0.0003 C.1     1  LIG1       -0.0628
     31 C          -6.0621   10.4258   -0.0003 C.1     1  LIG1       -0.1137
     32 H          -6.7488   11.2412   -0.0003 H       1  LIG1        0.1232
@<TRIPOS>BOND
     1    32    31    1
     2    31    30    3
     3    29    28    1
     4    30    24    1
     5    28    23    1
     6    24    23   ar
     7    24    25   ar
     8    23    22   ar
     9    22    15    1
    10    22    26   ar
    11    25    27    1
    12    25    26   ar
    13    20    19    3
    14    20    21    1
    15    15    14   ar
    16    15    16   ar
    17    19    14    1
    18    14    13   ar
    19    16    12   ar
    20    13    12   ar
    21    13    17    1
    22    18    17    1
    23    12     4    1
    24     5     4   ar
    25     5     1   ar
    26     4     3   ar
    27     6     1    1
    28     1     2   ar
    29     3     2   ar
    30     3     9    1
    31     2     7    1
    32     9    10    3
    33    10    11    1
    34     7     8    1
