@<TRIPOS>MOLECULE
mol_data/opt/cam/geoms/mol2/12fe12fe12fe-12fe-.out
 42 45 0 0 0
SMALL
GASTEIGER

@<TRIPOS>ATOM
      1 C           0.0845    1.8092   -0.0000 C.ar    1  LIG1        0.1353
      2 C           1.4342    1.7315   -0.0000 C.ar    1  LIG1        0.1709
      3 C           1.9413    3.0801   -0.0000 C.ar    1  LIG1        0.1149
      4 C           0.8280    3.8885   -0.0001 C.ar    1  LIG1        0.1924
      5 O          -0.2897    3.1306   -0.0001 O.2     1  LIG1       -0.4547
      6 H          -0.7056    1.0793   -0.0000 H       1  LIG1        0.1068
      7 O           2.1891    0.6146    0.0000 O.3     1  LIG1       -0.5028
      8 H           3.1181    0.8868    0.0000 H       1  LIG1        0.2923
      9 C           3.3278    3.3643    0.0000 C.1     1  LIG1       -0.0621
     10 C           4.5293    3.4658    0.0000 C.1     1  LIG1       -0.1137
     11 H           5.5856    3.6060   -0.0002 H       1  LIG1        0.1232
     12 C           0.6149    5.3055   -0.0001 C.ar    1  LIG1        0.2144
     13 C           1.4020    6.4205   -0.0001 C.ar    1  LIG1        0.1823
     14 C           0.5387    7.5689   -0.0001 C.ar    1  LIG1        0.1157
     15 C          -0.7407    7.0689   -0.0001 C.ar    1  LIG1        0.1934
     16 O          -0.7060    5.7157   -0.0001 O.2     1  LIG1       -0.4434
     17 O           2.7428    6.4569   -0.0001 O.3     1  LIG1       -0.5023
     18 H           3.0189    7.3850   -0.0001 H       1  LIG1        0.2923
     19 C           1.0111    8.9026   -0.0001 C.1     1  LIG1       -0.0621
     20 C           1.5055   10.0017   -0.0001 C.1     1  LIG1       -0.1137
     21 H           1.9078   10.9887    0.0000 H       1  LIG1        0.1232
     22 C          -2.0544    7.6125   -0.0002 C.ar    1  LIG1        0.2144
     23 C          -3.2653    6.9725   -0.0002 C.ar    1  LIG1        0.1823
     24 C          -4.2692    7.9909   -0.0002 C.ar    1  LIG1        0.1157
     25 C          -3.5811    9.1912   -0.0002 C.ar    1  LIG1        0.1934
     26 O          -2.2527    8.9685   -0.0002 O.2     1  LIG1       -0.4434
     27 O          -3.5315    5.6621   -0.0001 O.3     1  LIG1       -0.5023
     28 H          -2.6957    5.1688   -0.0001 H       1  LIG1        0.2923
     29 C          -5.6682    7.7688   -0.0002 C.1     1  LIG1       -0.0621
     30 C          -6.8542    7.5471   -0.0002 C.1     1  LIG1       -0.1137
     31 H          -7.8992    7.3345   -0.0002 H       1  LIG1        0.1232
     32 C          -3.9958   10.5624   -0.0002 C.ar    1  LIG1        0.2134
     33 C          -5.2123   11.2047   -0.0003 C.ar    1  LIG1        0.1815
     34 C          -4.9310   12.6130   -0.0003 C.ar    1  LIG1        0.1045
     35 C          -3.5713   12.7105   -0.0002 C.ar    1  LIG1        0.1118
     36 O          -2.9933   11.5029   -0.0002 O.2     1  LIG1       -0.4547
     37 H          -2.9112   13.5633   -0.0002 H       1  LIG1        0.1043
     38 O          -6.4615   10.7348   -0.0003 O.3     1  LIG1       -0.5023
     39 H          -6.4743    9.7616   -0.0003 H       1  LIG1        0.2923
     40 C          -5.8792   13.6694   -0.0003 C.1     1  LIG1       -0.0628
     41 C          -6.6805   14.5663   -0.0004 C.1     1  LIG1       -0.1137
     42 H          -7.3950   15.3569   -0.0004 H       1  LIG1        0.1232
@<TRIPOS>BOND
     1    42    41    1
     2    41    40    3
     3    40    34    1
     4    38    39    1
     5    38    33    1
     6    34    33   ar
     7    34    35   ar
     8    33    32   ar
     9    35    37    1
    10    35    36   ar
    11    32    36   ar
    12    32    25    1
    13    30    29    3
    14    30    31    1
    15    29    24    1
    16    25    24   ar
    17    25    26   ar
    18    24    23   ar
    19    26    22   ar
    20    11    10    1
    21    23    22   ar
    22    23    27    1
    23    22    15    1
    24    27    28    1
    25    19    20    3
    26    19    14    1
    27    20    21    1
    28    15    14   ar
    29    15    16   ar
    30    14    13   ar
    31    16    12   ar
    32    13    12   ar
    33    13    17    1
    34    18    17    1
    35    12     4    1
    36     5     4   ar
    37     5     1   ar
    38     4     3   ar
    39     6     1    1
    40     1     2   ar
    41     3     2   ar
    42     3     9    1
    43     2     7    1
    44     9    10    3
    45     7     8    1
