@<TRIPOS>MOLECULE
mol_data/opt/cam/geoms/mol2/12fe12fe-12fe12fe-.out
 42 45 0 0 0
SMALL
GASTEIGER

@<TRIPOS>ATOM
      1 C          -0.0233    1.8304   -0.0000 C.ar    1  LIG1        0.1353
      2 C           1.3219    1.7039   -0.0000 C.ar    1  LIG1        0.1709
      3 C           1.8850    3.0319   -0.0001 C.ar    1  LIG1        0.1149
      4 C           0.8110    3.8847   -0.0001 C.ar    1  LIG1        0.1924
      5 O          -0.3449    3.1738   -0.0000 O.2     1  LIG1       -0.4547
      6 H          -0.8420    1.1333   -0.0000 H       1  LIG1        0.1068
      7 O           2.0298    0.5573   -0.0000 O.3     1  LIG1       -0.5028
      8 H           2.9695    0.7885   -0.0000 H       1  LIG1        0.2923
      9 C           3.2745    3.2976   -0.0001 C.1     1  LIG1       -0.0621
     10 C           4.4728    3.4279   -0.0001 C.1     1  LIG1       -0.1137
     11 H           5.5269    3.5823   -0.0001 H       1  LIG1        0.1232
     12 C           0.6436    5.3007   -0.0001 C.ar    1  LIG1        0.2144
     13 C          -0.4955    6.0592   -0.0001 C.ar    1  LIG1        0.1823
     14 C          -0.0871    7.4302   -0.0001 C.ar    1  LIG1        0.1157
     15 C           1.2936    7.3937   -0.0001 C.ar    1  LIG1        0.1934
     16 O           1.7403    6.1227   -0.0001 O.2     1  LIG1       -0.4434
     17 O          -1.7739    5.6555   -0.0001 O.3     1  LIG1       -0.5023
     18 H          -1.7871    4.6865   -0.0001 H       1  LIG1        0.2923
     19 C          -0.9495    8.5558   -0.0001 C.1     1  LIG1       -0.0621
     20 C          -1.7208    9.4819   -0.0001 C.1     1  LIG1       -0.1137
     21 H          -2.4073   10.2979   -0.0000 H       1  LIG1        0.1232
     22 C           2.2767    8.4263   -0.0001 C.ar    1  LIG1        0.2144
     23 C           3.6432    8.4551   -0.0001 C.ar    1  LIG1        0.1823
     24 C           4.0463    9.8330   -0.0001 C.ar    1  LIG1        0.1157
     25 C           2.8796   10.5600   -0.0001 C.ar    1  LIG1        0.1934
     26 O           1.8164    9.7269   -0.0001 O.2     1  LIG1       -0.4434
     27 O           4.4682    7.3992   -0.0000 O.3     1  LIG1       -0.5023
     28 H           5.3778    7.7316   -0.0000 H       1  LIG1        0.2923
     29 C           5.3982   10.2521   -0.0001 C.1     1  LIG1       -0.0621
     30 C           6.5755   10.5102   -0.0001 C.1     1  LIG1       -0.1137
     31 H           7.6081   10.7744   -0.0001 H       1  LIG1        0.1232
     32 C           2.5452   11.9443   -0.0002 C.ar    1  LIG1        0.2134
     33 C           1.3211   12.5641   -0.0002 C.ar    1  LIG1        0.1815
     34 C           1.5837   13.9759   -0.0003 C.ar    1  LIG1        0.1045
     35 C           2.9440   14.0885   -0.0002 C.ar    1  LIG1        0.1118
     36 O           3.5398   12.8848   -0.0002 O.2     1  LIG1       -0.4547
     37 H           3.5939   14.9488   -0.0002 H       1  LIG1        0.1043
     38 O           0.0927   12.0396   -0.0002 O.3     1  LIG1       -0.5023
     39 H           0.1286   11.0680   -0.0002 H       1  LIG1        0.2923
     40 C           0.6273   15.0250   -0.0003 C.1     1  LIG1       -0.0628
     41 C          -0.1820   15.9147   -0.0003 C.1     1  LIG1       -0.1137
     42 H          -0.9035   16.6989   -0.0005 H       1  LIG1        0.1232
@<TRIPOS>BOND
     1    42    41    1
     2    41    40    3
     3    40    34    1
     4    34    35   ar
     5    34    33   ar
     6    37    35    1
     7    35    36   ar
     8    38    33    1
     9    38    39    1
    10    33    32   ar
    11    36    32   ar
    12    32    25    1
    13    25    26   ar
    14    25    24   ar
    15    26    22   ar
    16    24    29    1
    17    24    23   ar
    18    29    30    3
    19    22    15    1
    20    22    23   ar
    21    30    31    1
    22    15    16   ar
    23    15    14   ar
    24    16    12   ar
    25    14    19    1
    26    14    13   ar
    27    23    27    1
    28    11    10    1
    29    19    20    3
    30    12    13   ar
    31    12     4    1
    32    13    17    1
    33    20    21    1
    34    10     9    3
    35     9     3    1
    36     4     3   ar
    37     4     5   ar
    38    17    18    1
    39     3     2   ar
    40     5     1   ar
    41     8     7    1
    42     2     7    1
    43     2     1   ar
    44     1     6    1
    45    27    28    1
