@<TRIPOS>MOLECULE
mol_data/opt/cam/geoms/mol2/12fe12fe-.out
 22 23 0 0 0
SMALL
GASTEIGER

@<TRIPOS>ATOM
      1 C           0.1703    1.8750   -0.0000 C.ar    1  LIG1        0.1353
      2 C           1.5209    1.8354    0.0000 C.ar    1  LIG1        0.1709
      3 C           1.9958    3.1978   -0.0000 C.ar    1  LIG1        0.1149
      4 C           0.8691    3.9779   -0.0000 C.ar    1  LIG1        0.1923
      5 O          -0.2372    3.1941   -0.0000 O.2     1  LIG1       -0.4547
      6 H          -0.6015    1.1262    0.0000 H       1  LIG1        0.1068
      7 O           2.3004    0.7366    0.0000 O.3     1  LIG1       -0.5028
      8 H           3.2239    1.0254    0.0000 H       1  LIG1        0.2923
      9 C           3.3660    3.5525   -0.0000 C.1     1  LIG1       -0.0621
     10 C           4.5545    3.7537   -0.0000 C.1     1  LIG1       -0.1137
     11 H           5.5986    3.9678   -0.0000 H       1  LIG1        0.1232
     12 C           0.6096    5.3835   -0.0001 C.ar    1  LIG1        0.2134
     13 C          -0.5770    6.0649   -0.0001 C.ar    1  LIG1        0.1815
     14 C          -0.2477    7.4619   -0.0001 C.ar    1  LIG1        0.1045
     15 C           1.1168    7.5054   -0.0001 C.ar    1  LIG1        0.1118
     16 O           1.6498    6.2713   -0.0001 O.2     1  LIG1       -0.4547
     17 H           1.8102    8.3308   -0.0002 H       1  LIG1        0.1043
     18 O          -1.8285    5.5820   -0.0001 O.3     1  LIG1       -0.5023
     19 H          -1.7823    4.6143   -0.0001 H       1  LIG1        0.2923
     20 C          -1.1503    8.5577   -0.0002 C.1     1  LIG1       -0.0628
     21 C          -1.9147    9.4864   -0.0002 C.1     1  LIG1       -0.1137
     22 H          -2.5968   10.3050   -0.0002 H       1  LIG1        0.1232
@<TRIPOS>BOND
     1    22    21    1
     2    21    20    3
     3    20    14    1
     4    17    15    1
     5    15    14   ar
     6    15    16   ar
     7    14    13   ar
     8    13    18    1
     9    13    12   ar
    10    18    19    1
    11    16    12   ar
    12    12     4    1
    13     4     5   ar
    14     4     3   ar
    15     5     1   ar
    16     3     9    1
    17     3     2   ar
    18     9    10    3
    19    11    10    1
    20     1     6    1
    21     1     2   ar
    22     2     7    1
    23     7     8    1
