@<TRIPOS>MOLECULE
mol_data/opt/cam/geoms/mol2/12fe12fe12fe-12fe.out
 42 45 0 0 0
SMALL
GASTEIGER

@<TRIPOS>ATOM
      1 C           0.1148    1.7966   -0.0000 C.ar    1  LIG1        0.1353
      2 C           1.4655    1.7416   -0.0000 C.ar    1  LIG1        0.1709
      3 C           1.9499    3.0984    0.0000 C.ar    1  LIG1        0.1149
      4 C           0.8230    3.8883   -0.0000 C.ar    1  LIG1        0.1924
      5 O          -0.2814    3.1117   -0.0000 O.2     1  LIG1       -0.4547
      6 H          -0.6633    1.0539   -0.0000 H       1  LIG1        0.1068
      7 O           2.2399    0.6376    0.0000 O.3     1  LIG1       -0.5028
      8 H           3.1636    0.9269    0.0000 H       1  LIG1        0.2923
      9 C           3.3315    3.4052    0.0000 C.1     1  LIG1       -0.0621
     10 C           4.5315    3.5248    0.0000 C.1     1  LIG1       -0.1137
     11 H           5.5854    3.6812   -0.0001 H       1  LIG1        0.1232
     12 C           0.5872    5.3015   -0.0000 C.ar    1  LIG1        0.2144
     13 C           1.3580    6.4281   -0.0000 C.ar    1  LIG1        0.1823
     14 C           0.4784    7.5632   -0.0001 C.ar    1  LIG1        0.1157
     15 C          -0.7942    7.0449   -0.0001 C.ar    1  LIG1        0.1934
     16 O          -0.7398    5.6925   -0.0001 O.2     1  LIG1       -0.4434
     17 O           2.6984    6.4853    0.0000 O.3     1  LIG1       -0.5023
     18 H           2.9582    7.4182    0.0000 H       1  LIG1        0.2923
     19 C           0.9309    8.9036   -0.0000 C.1     1  LIG1       -0.0621
     20 C           1.4071   10.0107   -0.0001 C.1     1  LIG1       -0.1137
     21 H           1.7916   11.0044   -0.0008 H       1  LIG1        0.1232
     22 C          -2.1124    7.5757   -0.0001 C.ar    1  LIG1        0.2144
     23 C          -3.3212    6.9277   -0.0002 C.ar    1  LIG1        0.1823
     24 C          -4.3348    7.9370   -0.0002 C.ar    1  LIG1        0.1157
     25 C          -3.6499    9.1349   -0.0002 C.ar    1  LIG1        0.1934
     26 O          -2.3171    8.9294   -0.0002 O.2     1  LIG1       -0.4434
     27 O          -3.5723    5.6138   -0.0002 O.3     1  LIG1       -0.5023
     28 H          -2.7312    5.1304   -0.0001 H       1  LIG1        0.2923
     29 C          -5.7340    7.7121   -0.0002 C.1     1  LIG1       -0.0621
     30 C          -6.9167    7.4913   -0.0003 C.1     1  LIG1       -0.1137
     31 H          -7.9639    7.2956   -0.0006 H       1  LIG1        0.1232
     32 C          -4.0814   10.4990   -0.0002 C.ar    1  LIG1        0.2134
     33 C          -3.4150   11.6939   -0.0002 C.ar    1  LIG1        0.1815
     34 C          -4.4152   12.7244   -0.0002 C.ar    1  LIG1        0.1045
     35 C          -5.6125   12.0704   -0.0003 C.ar    1  LIG1        0.1118
     36 O          -5.4308   10.7439   -0.0003 O.2     1  LIG1       -0.4547
     37 H          -6.6319   12.4214   -0.0003 H       1  LIG1        0.1043
     38 O          -2.0849   11.8775   -0.0001 O.3     1  LIG1       -0.5023
     39 H          -1.9137   12.8299   -0.0001 H       1  LIG1        0.2923
     40 C          -4.1314   14.1143   -0.0002 C.1     1  LIG1       -0.0628
     41 C          -3.8139   15.2762   -0.0002 C.1     1  LIG1       -0.1137
     42 H          -3.5610   16.3119   -0.0001 H       1  LIG1        0.1232
@<TRIPOS>BOND
     1    21    20    1
     2    31    30    1
     3    37    35    1
     4    30    29    3
     5    35    36   ar
     6    35    34   ar
     7    36    32   ar
     8    29    24    1
     9    34    40    1
    10    34    33   ar
    11    32    25    1
    12    32    33   ar
    13    40    41    3
    14    24    25   ar
    15    24    23   ar
    16    41    42    1
    17    25    26   ar
    18    33    38    1
    19    23    27    1
    20    23    22   ar
    21    27    28    1
    22    26    22   ar
    23    22    15    1
    24    38    39    1
    25    20    19    3
    26    15    16   ar
    27    15    14   ar
    28    11    10    1
    29    16    12   ar
    30    14    19    1
    31    14    13   ar
    32     5     1   ar
    33     5     4   ar
    34     6     1    1
    35    12     4    1
    36    12    13   ar
    37     1     2   ar
    38     4     3   ar
    39    13    17    1
    40     2     3   ar
    41     2     7    1
    42     3     9    1
    43    17    18    1
    44     7     8    1
    45     9    10    3
