@<TRIPOS>MOLECULE
mol_data/opt/cam/geoms/mol2/12ff12ff.out
 20 21 0 0 0
SMALL
GASTEIGER

@<TRIPOS>ATOM
      1 C           0.2149    1.7336   -0.0001 C.ar    1  LIG1        0.1379
      2 C           1.5663    1.8444    0.0000 C.ar    1  LIG1        0.1977
      3 C           1.8609    3.2403   -0.0000 C.ar    1  LIG1        0.2084
      4 C           0.6579    3.8891   -0.0001 C.ar    1  LIG1        0.2184
      5 O          -0.3520    2.9748   -0.0001 O.2     1  LIG1       -0.4521
      6 H          -0.4558    0.8918   -0.0001 H       1  LIG1        0.1069
      7 O           2.4905    0.8547    0.0001 O.3     1  LIG1       -0.5012
      8 H           3.3600    1.2770    0.0001 H       1  LIG1        0.2924
      9 O           3.1400    3.6810   -0.0000 O.3     1  LIG1       -0.5007
     10 H           3.1589    4.6538   -0.0000 H       1  LIG1        0.2924
     11 C           0.3317    5.2890   -0.0001 C.ar    1  LIG1        0.2184
     12 C           1.1275    6.3946   -0.0001 C.ar    1  LIG1        0.2084
     13 C           0.2671    7.5264   -0.0001 C.ar    1  LIG1        0.1977
     14 C          -1.0019    7.0443   -0.0002 C.ar    1  LIG1        0.1379
     15 O          -0.9693    5.6795   -0.0002 O.2     1  LIG1       -0.4521
     16 H          -1.9754    7.5052   -0.0003 H       1  LIG1        0.1069
     17 O           2.4956    6.4072    0.0000 O.3     1  LIG1       -0.5007
     18 H           2.8012    7.3231    0.0000 H       1  LIG1        0.2924
     19 O           0.7812    8.7855   -0.0001 O.3     1  LIG1       -0.5012
     20 H           0.0711    9.4367   -0.0001 H       1  LIG1        0.2924
@<TRIPOS>BOND
     1    16    14    1
     2    14    15   ar
     3    14    13   ar
     4    15    11   ar
     5    13    19    1
     6    13    12   ar
     7    20    19    1
     8    11    12   ar
     9    11     4    1
    10     6     1    1
    11    12    17    1
    12     4     5   ar
    13     4     3   ar
    14     1     5   ar
    15     1     2   ar
    16    10     9    1
    17     3     9    1
    18     3     2   ar
    19    17    18    1
    20     2     7    1
    21     7     8    1
