@<TRIPOS>MOLECULE
mol_data/opt/cam/geoms/mol2/12ff12ff-12ff12ff-.out
 38 41 0 0 0
SMALL
GASTEIGER

@<TRIPOS>ATOM
      1 C           0.1855    1.7069    0.0000 C.ar    1  LIG1        0.1379
      2 C           1.5407    1.7613    0.0000 C.ar    1  LIG1        0.1977
      3 C           1.8989    3.1450   -0.0000 C.ar    1  LIG1        0.2084
      4 C           0.7304    3.8424   -0.0001 C.ar    1  LIG1        0.2184
      5 O          -0.3287    2.9812   -0.0000 O.2     1  LIG1       -0.4521
      6 H          -0.5207    0.8953    0.0001 H       1  LIG1        0.1069
      7 O           2.4110    0.7267    0.0000 O.3     1  LIG1       -0.5012
      8 H           3.3042    1.0959   -0.0000 H       1  LIG1        0.2924
      9 O           3.1873    3.5601   -0.0001 O.3     1  LIG1       -0.5007
     10 H           3.2210    4.5292   -0.0001 H       1  LIG1        0.2924
     11 C           0.4749    5.2456   -0.0001 C.ar    1  LIG1        0.2194
     12 C          -0.6504    6.0120   -0.0001 C.ar    1  LIG1        0.2092
     13 C          -0.2215    7.3709   -0.0001 C.ar    1  LIG1        0.2092
     14 C           1.1449    7.3518   -0.0001 C.ar    1  LIG1        0.2195
     15 O           1.5773    6.0529   -0.0001 O.2     1  LIG1       -0.4407
     16 O          -1.9607    5.6627   -0.0001 O.3     1  LIG1       -0.5007
     17 H          -2.0286    4.6979   -0.0001 H       1  LIG1        0.2924
     18 O          -1.0214    8.4654   -0.0001 O.3     1  LIG1       -0.5007
     19 H          -1.9387    8.1608   -0.0001 H       1  LIG1        0.2924
     20 C           2.1455    8.3675   -0.0001 C.ar    1  LIG1        0.2195
     21 C           3.5120    8.3484   -0.0001 C.ar    1  LIG1        0.2092
     22 C           3.9408    9.7073   -0.0001 C.ar    1  LIG1        0.2092
     23 C           2.8155   10.4737   -0.0002 C.ar    1  LIG1        0.2194
     24 O           1.7131    9.6664   -0.0002 O.2     1  LIG1       -0.4407
     25 O           4.3119    7.2538   -0.0001 O.3     1  LIG1       -0.5007
     26 H           5.2291    7.5585   -0.0000 H       1  LIG1        0.2924
     27 O           5.2512   10.0565   -0.0001 O.3     1  LIG1       -0.5007
     28 H           5.3191   11.0213   -0.0001 H       1  LIG1        0.2924
     29 C           2.5601   11.8768   -0.0002 C.ar    1  LIG1        0.2184
     30 C           1.3916   12.5743   -0.0002 C.ar    1  LIG1        0.2084
     31 C           1.7497   13.9580   -0.0002 C.ar    1  LIG1        0.1977
     32 C           3.1050   14.0124   -0.0002 C.ar    1  LIG1        0.1379
     33 O           3.6191   12.7381   -0.0002 O.2     1  LIG1       -0.4521
     34 H           3.8112   14.8239   -0.0002 H       1  LIG1        0.1069
     35 O           0.1032   12.1592   -0.0003 O.3     1  LIG1       -0.5007
     36 H           0.0695   11.1900   -0.0003 H       1  LIG1        0.2924
     37 O           0.8794   14.9926   -0.0003 O.3     1  LIG1       -0.5012
     38 H          -0.0137   14.6234   -0.0003 H       1  LIG1        0.2924
@<TRIPOS>BOND
     1    38    37    1
     2    37    31    1
     3    35    36    1
     4    35    30    1
     5    31    30   ar
     6    31    32   ar
     7    30    29   ar
     8    33    29   ar
     9    33    32   ar
    10    29    23    1
    11    32    34    1
    12    24    23   ar
    13    24    20   ar
    14    23    22   ar
    15    18    19    1
    16    18    13    1
    17    20    14    1
    18    20    21   ar
    19    22    27    1
    20    22    21   ar
    21    28    27    1
    22    14    13   ar
    23    14    15   ar
    24    13    12   ar
    25    21    25    1
    26    15    11   ar
    27    12    16    1
    28    12    11   ar
    29    10     9    1
    30    16    17    1
    31    11     4    1
    32     9     3    1
    33    25    26    1
    34     4     3   ar
    35     4     5   ar
    36     3     2   ar
    37     5     1   ar
    38     8     7    1
    39     2     7    1
    40     2     1   ar
    41     1     6    1
