@<TRIPOS>MOLECULE
mol_data/opt/cam/geoms/mol2/12ff12ff-12ff-12ff-.out
 38 41 0 0 0
SMALL
GASTEIGER

@<TRIPOS>ATOM
      1 C          -0.2786    1.6592   -0.0000 C.ar    1  LIG1        0.1379
      2 C           1.0722    1.5428   -0.0000 C.ar    1  LIG1        0.1977
      3 C           1.6017    2.8708   -0.0000 C.ar    1  LIG1        0.2084
      4 C           0.5328    3.7118   -0.0001 C.ar    1  LIG1        0.2184
      5 O          -0.6273    2.9889   -0.0001 O.2     1  LIG1       -0.4521
      6 H          -1.0818    0.9434   -0.0000 H       1  LIG1        0.1069
      7 O           1.8049    0.4075   -0.0000 O.3     1  LIG1       -0.5012
      8 H           2.7381    0.6590   -0.0000 H       1  LIG1        0.2924
      9 O           2.9329    3.1164   -0.0000 O.3     1  LIG1       -0.5007
     10 H           3.0878    4.0720   -0.0001 H       1  LIG1        0.2924
     11 C           0.4266    5.1346   -0.0001 C.ar    1  LIG1        0.2194
     12 C          -0.6376    5.9853   -0.0001 C.ar    1  LIG1        0.2092
     13 C          -0.0970    7.2980   -0.0001 C.ar    1  LIG1        0.2092
     14 C           1.2627    7.1804   -0.0001 C.ar    1  LIG1        0.2195
     15 O           1.5923    5.8540   -0.0001 O.2     1  LIG1       -0.4407
     16 O          -1.9690    5.7353   -0.0001 O.3     1  LIG1       -0.5007
     17 H          -2.1047    4.7769   -0.0001 H       1  LIG1        0.2924
     18 O          -0.7910    8.4748   -0.0001 O.3     1  LIG1       -0.5007
     19 H          -1.7379    8.2846   -0.0001 H       1  LIG1        0.2924
     20 C           2.3025    8.1619   -0.0001 C.ar    1  LIG1        0.2195
     21 C           2.2646    9.5316   -0.0001 C.ar    1  LIG1        0.2092
     22 C           3.6148    9.9607   -0.0001 C.ar    1  LIG1        0.2092
     23 C           4.4004    8.8451   -0.0001 C.ar    1  LIG1        0.2194
     24 O           3.6042    7.7411   -0.0001 O.2     1  LIG1       -0.4407
     25 O           1.2428   10.4148   -0.0001 O.3     1  LIG1       -0.5007
     26 H           0.3917    9.9420   -0.0001 H       1  LIG1        0.2924
     27 O           4.0518   11.2551   -0.0002 O.3     1  LIG1       -0.5007
     28 H           3.2835   11.8411   -0.0002 H       1  LIG1        0.2924
     29 C           5.8261    8.6928   -0.0001 C.ar    1  LIG1        0.2184
     30 C           6.8350    9.6166   -0.0002 C.ar    1  LIG1        0.2084
     31 C           8.0562    8.8798   -0.0001 C.ar    1  LIG1        0.1977
     32 C           7.7172    7.5667   -0.0001 C.ar    1  LIG1        0.1379
     33 O           6.3584    7.4381   -0.0001 O.2     1  LIG1       -0.4521
     34 H           8.2928    6.6572   -0.0001 H       1  LIG1        0.1069
     35 O           6.8379   10.9688   -0.0002 O.3     1  LIG1       -0.5007
     36 H           5.9253   11.3067   -0.0002 H       1  LIG1        0.2924
     37 O           9.2944    9.4268   -0.0002 O.3     1  LIG1       -0.5012
     38 H           9.1824   10.3870   -0.0002 H       1  LIG1        0.2924
@<TRIPOS>BOND
     1    35    36    1
     2    35    30    1
     3    38    37    1
     4    28    27    1
     5    27    22    1
     6    37    31    1
     7    30    31   ar
     8    30    29   ar
     9    25    26    1
    10    25    21    1
    11    22    21   ar
    12    22    23   ar
    13    31    32   ar
    14    21    20   ar
    15    29    23    1
    16    29    33   ar
    17    23    24   ar
    18    20    24   ar
    19    20    14    1
    20    18    19    1
    21    18    13    1
    22    32    33   ar
    23    32    34    1
    24    14    13   ar
    25    14    15   ar
    26    13    12   ar
    27    15    11   ar
    28    12    16    1
    29    12    11   ar
    30    16    17    1
    31    11     4    1
    32     4     5   ar
    33     4     3   ar
    34     5     1   ar
    35    10     9    1
    36     3     9    1
    37     3     2   ar
    38     1     6    1
    39     1     2   ar
    40     2     7    1
    41     7     8    1
