@<TRIPOS>MOLECULE
mol_data/opt/cam/geoms/mol2/12ff12ff12ff12ff.out
 38 41 0 0 0
SMALL
GASTEIGER

@<TRIPOS>ATOM
      1 C           1.0282    1.5262   -0.0000 C.ar    1  LIG1        0.1379
      2 C           2.3459    1.8471   -0.0000 C.ar    1  LIG1        0.1977
      3 C           2.4190    3.2711   -0.0000 C.ar    1  LIG1        0.2084
      4 C           1.1282    3.7247   -0.0000 C.ar    1  LIG1        0.2184
      5 O           0.2744    2.6632   -0.0000 O.2     1  LIG1       -0.4521
      6 H           0.4973    0.5900    0.0000 H       1  LIG1        0.1069
      7 O           3.4144    1.0146    0.0000 O.3     1  LIG1       -0.5012
      8 H           4.2060    1.5696    0.0000 H       1  LIG1        0.2924
      9 O           3.6139    3.9059   -0.0000 O.3     1  LIG1       -0.5007
     10 H           3.4810    4.8700   -0.0000 H       1  LIG1        0.2924
     11 C           0.5915    5.0550   -0.0001 C.ar    1  LIG1        0.2194
     12 C           1.2105    6.2709   -0.0001 C.ar    1  LIG1        0.2092
     13 C           0.2003    7.2629   -0.0001 C.ar    1  LIG1        0.2092
     14 C          -0.9937    6.5888   -0.0001 C.ar    1  LIG1        0.2195
     15 O          -0.7553    5.2426   -0.0001 O.2     1  LIG1       -0.4407
     16 O           2.5591    6.4944   -0.0000 O.3     1  LIG1       -0.5007
     17 H           2.7116    7.4485   -0.0000 H       1  LIG1        0.2924
     18 O           0.5084    8.5784   -0.0001 O.3     1  LIG1       -0.5007
     19 H          -0.3060    9.1132   -0.0001 H       1  LIG1        0.2924
     20 C          -2.3454    7.0607   -0.0002 C.ar    1  LIG1        0.2195
     21 C          -2.8496    8.3292   -0.0002 C.ar    1  LIG1        0.2092
     22 C          -4.2617    8.2251   -0.0002 C.ar    1  LIG1        0.2092
     23 C          -4.5431    6.8841   -0.0002 C.ar    1  LIG1        0.2194
     24 O          -3.3752    6.1735   -0.0002 O.2     1  LIG1       -0.4407
     25 O          -2.1243    9.4884   -0.0001 O.3     1  LIG1       -0.5007
     26 H          -2.7377   10.2351   -0.0001 H       1  LIG1        0.2924
     27 O          -5.0465    9.3249   -0.0002 O.3     1  LIG1       -0.5007
     28 H          -5.9855    9.0658   -0.0002 H       1  LIG1        0.2924
     29 C          -5.7905    6.1762   -0.0003 C.ar    1  LIG1        0.2184
     30 C          -7.0756    6.6306   -0.0003 C.ar    1  LIG1        0.2084
     31 C          -7.9201    5.4876   -0.0004 C.ar    1  LIG1        0.1977
     32 C          -7.1007    4.4048   -0.0004 C.ar    1  LIG1        0.1379
     33 O          -5.8000    4.8188   -0.0003 O.2     1  LIG1       -0.4521
     34 H          -7.2692    3.3410   -0.0004 H       1  LIG1        0.1069
     35 O          -7.4698    7.9410   -0.0003 O.3     1  LIG1       -0.5007
     36 H          -8.4347    7.9789   -0.0003 H       1  LIG1        0.2924
     37 O          -9.2725    5.6285   -0.0004 O.3     1  LIG1       -0.5012
     38 H          -9.6994    4.7646   -0.0004 H       1  LIG1        0.2924
@<TRIPOS>BOND
     1    34    32    1
     2    38    37    1
     3    37    31    1
     4    32    31   ar
     5    32    33   ar
     6    31    30   ar
     7    33    29   ar
     8    30    29   ar
     9    30    35    1
    10    36    35    1
    11    29    23    1
    12    28    27    1
    13    23    22   ar
    14    23    24   ar
    15    27    22    1
    16    22    21   ar
    17    24    20   ar
    18    20    21   ar
    19    20    14    1
    20    21    25    1
    21    26    25    1
    22    14    15   ar
    23    14    13   ar
    24    19    18    1
    25    15    11   ar
    26    18    13    1
    27    13    12   ar
    28    11    12   ar
    29    11     4    1
    30    12    16    1
    31     4     5   ar
    32     4     3   ar
    33     9    10    1
    34     9     3    1
    35    17    16    1
    36     5     1   ar
    37     3     2   ar
    38     1     2   ar
    39     1     6    1
    40     2     7    1
    41     8     7    1
