@<TRIPOS>MOLECULE
mol_data/opt/cam/geoms/mol2/12ff12ff12ff12ff-.out
 38 41 0 0 0
SMALL
GASTEIGER

@<TRIPOS>ATOM
      1 C           0.7975    1.5585    0.0000 C.ar    1  LIG1        0.1379
      2 C           2.1293    1.8144    0.0000 C.ar    1  LIG1        0.1977
      3 C           2.2722    3.2335   -0.0000 C.ar    1  LIG1        0.2084
      4 C           1.0054    3.7496   -0.0000 C.ar    1  LIG1        0.2184
      5 O           0.0994    2.7313   -0.0000 O.2     1  LIG1       -0.4521
      6 H           0.2221    0.6489    0.0000 H       1  LIG1        0.1069
      7 O           3.1538    0.9298    0.0000 O.3     1  LIG1       -0.5012
      8 H           3.9736    1.4421    0.0000 H       1  LIG1        0.2924
      9 O           3.4954    3.8099   -0.0000 O.3     1  LIG1       -0.5007
     10 H           3.4099    4.7793   -0.0000 H       1  LIG1        0.2924
     11 C           0.5325    5.1032   -0.0001 C.ar    1  LIG1        0.2194
     12 C           1.2042    6.2908   -0.0001 C.ar    1  LIG1        0.2092
     13 C           0.2382    7.3272   -0.0001 C.ar    1  LIG1        0.2092
     14 C          -0.9833    6.7064   -0.0001 C.ar    1  LIG1        0.2195
     15 O          -0.8061    5.3499   -0.0001 O.2     1  LIG1       -0.4407
     16 O           2.5611    6.4503   -0.0000 O.3     1  LIG1       -0.5007
     17 H           2.7616    7.3954   -0.0000 H       1  LIG1        0.2924
     18 O           0.5989    8.6288   -0.0001 O.3     1  LIG1       -0.5007
     19 H          -0.1929    9.1955   -0.0001 H       1  LIG1        0.2924
     20 C          -2.3154    7.2259   -0.0002 C.ar    1  LIG1        0.2195
     21 C          -2.7915    8.5049   -0.0002 C.ar    1  LIG1        0.2092
     22 C          -4.2093    8.4313   -0.0002 C.ar    1  LIG1        0.2092
     23 C          -4.5222    7.1053   -0.0003 C.ar    1  LIG1        0.2194
     24 O          -3.3730    6.3599   -0.0002 O.2     1  LIG1       -0.4407
     25 O          -2.0252    9.6359   -0.0001 O.3     1  LIG1       -0.5007
     26 H          -2.6025   10.4102   -0.0001 H       1  LIG1        0.2924
     27 O          -5.0052    9.5274   -0.0003 O.3     1  LIG1       -0.5007
     28 H          -5.9294    9.2397   -0.0003 H       1  LIG1        0.2924
     29 C          -5.7625    6.4002   -0.0003 C.ar    1  LIG1        0.2184
     30 C          -6.0648    5.0741   -0.0003 C.ar    1  LIG1        0.2084
     31 C          -7.4916    4.9839   -0.0004 C.ar    1  LIG1        0.1977
     32 C          -7.9649    6.2545   -0.0004 C.ar    1  LIG1        0.1379
     33 O          -6.9126    7.1389   -0.0004 O.2     1  LIG1       -0.4521
     34 H          -8.9556    6.6737   -0.0004 H       1  LIG1        0.1069
     35 O          -5.2728    3.9763   -0.0003 O.3     1  LIG1       -0.5007
     36 H          -4.3429    4.2455   -0.0003 H       1  LIG1        0.2924
     37 O          -8.2038    3.8356   -0.0004 O.3     1  LIG1       -0.5012
     38 H          -7.5769    3.1000   -0.0004 H       1  LIG1        0.2924
@<TRIPOS>BOND
     1    34    32    1
     2    37    38    1
     3    37    31    1
     4    32    31   ar
     5    32    33   ar
     6    31    30   ar
     7    33    29   ar
     8    30    29   ar
     9    30    35    1
    10    29    23    1
    11    28    27    1
    12    35    36    1
    13    23    22   ar
    14    23    24   ar
    15    27    22    1
    16    22    21   ar
    17    24    20   ar
    18    21    20   ar
    19    21    25    1
    20    20    14    1
    21    26    25    1
    22    14    15   ar
    23    14    13   ar
    24    19    18    1
    25    18    13    1
    26    15    11   ar
    27    13    12   ar
    28    11    12   ar
    29    11     4    1
    30    12    16    1
    31     4     5   ar
    32     4     3   ar
    33    17    16    1
    34     5     1   ar
    35     9    10    1
    36     9     3    1
    37     3     2   ar
    38     1     2   ar
    39     1     6    1
    40     2     7    1
    41     8     7    1
