@<TRIPOS>MOLECULE
mol_data/opt/cam/geoms/mol2/12ff12ff-12ff-12ff.out
 38 41 0 0 0
SMALL
GASTEIGER

@<TRIPOS>ATOM
      1 C          -0.0244    1.6831   -0.0000 C.ar    1  LIG1        0.1379
      2 C           1.3313    1.6596   -0.0000 C.ar    1  LIG1        0.1977
      3 C           1.7699    3.0203   -0.0000 C.ar    1  LIG1        0.2084
      4 C           0.6449    3.7854   -0.0001 C.ar    1  LIG1        0.2184
      5 O          -0.4629    2.9860   -0.0000 O.2     1  LIG1       -0.4521
      6 H          -0.7769    0.9144    0.0000 H       1  LIG1        0.1069
      7 O           2.1417    0.5775    0.0000 O.3     1  LIG1       -0.5012
      8 H           3.0541    0.8965    0.0000 H       1  LIG1        0.2924
      9 O           3.0821    3.3534   -0.0000 O.3     1  LIG1       -0.5007
     10 H           3.1798    4.3174   -0.0001 H       1  LIG1        0.2924
     11 C           0.4566    5.1993   -0.0001 C.ar    1  LIG1        0.2194
     12 C          -0.6421    6.0055   -0.0001 C.ar    1  LIG1        0.2092
     13 C          -0.1556    7.3407   -0.0001 C.ar    1  LIG1        0.2092
     14 C           1.2072    7.2774   -0.0001 C.ar    1  LIG1        0.2195
     15 O           1.5898    5.9665   -0.0001 O.2     1  LIG1       -0.4407
     16 O          -1.9628    5.7003   -0.0001 O.3     1  LIG1       -0.5007
     17 H          -2.0591    4.7375   -0.0001 H       1  LIG1        0.2924
     18 O          -0.8918    8.4914   -0.0001 O.3     1  LIG1       -0.5007
     19 H          -1.8309    8.2665   -0.0001 H       1  LIG1        0.2924
     20 C           2.2184    8.2866   -0.0001 C.ar    1  LIG1        0.2195
     21 C           2.1590    9.6529   -0.0002 C.ar    1  LIG1        0.2092
     22 C           3.5031   10.1186   -0.0002 C.ar    1  LIG1        0.2092
     23 C           4.3025    9.0089   -0.0002 C.ar    1  LIG1        0.2194
     24 O           3.5216    7.8880   -0.0001 O.2     1  LIG1       -0.4407
     25 O           1.1161   10.5137   -0.0002 O.3     1  LIG1       -0.5007
     26 H           0.2773   10.0214   -0.0002 H       1  LIG1        0.2924
     27 O           3.8808   11.4170   -0.0002 O.3     1  LIG1       -0.5007
     28 H           3.0734   11.9488   -0.0002 H       1  LIG1        0.2924
     29 C           5.7195    8.7976   -0.0001 C.ar    1  LIG1        0.2184
     30 C           6.4870    7.6674   -0.0001 C.ar    1  LIG1        0.2084
     31 C           7.8430    8.1075   -0.0001 C.ar    1  LIG1        0.1977
     32 C           7.8204    9.4637   -0.0002 C.ar    1  LIG1        0.1379
     33 O           6.5290    9.8949   -0.0002 O.2     1  LIG1       -0.4521
     34 H           8.5848   10.2229   -0.0002 H       1  LIG1        0.1069
     35 O           6.0769    6.3752   -0.0001 O.3     1  LIG1       -0.5007
     36 H           6.8705    5.8236   -0.0000 H       1  LIG1        0.2924
     37 O           8.8565    7.1986   -0.0001 O.3     1  LIG1       -0.5012
     38 H           9.7083    7.6485   -0.0001 H       1  LIG1        0.2924
@<TRIPOS>BOND
     1    34    32    1
     2    33    32   ar
     3    33    29   ar
     4    32    31   ar
     5    28    27    1
     6    27    22    1
     7    22    21   ar
     8    22    23   ar
     9    25    26    1
    10    25    21    1
    11    21    20   ar
    12    23    29    1
    13    23    24   ar
    14    29    30   ar
    15    18    19    1
    16    18    13    1
    17    20    24   ar
    18    20    14    1
    19    31    30   ar
    20    31    37    1
    21    13    14   ar
    22    13    12   ar
    23    14    15   ar
    24    30    35    1
    25    38    37    1
    26    15    11   ar
    27    12    16    1
    28    12    11   ar
    29    16    17    1
    30    11     4    1
    31    35    36    1
    32     4     5   ar
    33     4     3   ar
    34    10     9    1
    35     5     1   ar
    36     9     3    1
    37     3     2   ar
    38     1     2   ar
    39     1     6    1
    40     2     7    1
    41     8     7    1
