@<TRIPOS>MOLECULE
mol_data/opt/cam/geoms/mol2/12ff12ff-12ff.out
 29 31 0 0 0
SMALL
GASTEIGER

@<TRIPOS>ATOM
      1 C           0.3035    1.7575   -0.0000 C.ar    1  LIG1        0.1379
      2 C           1.6541    1.8830    0.0000 C.ar    1  LIG1        0.1977
      3 C           1.9399    3.2835   -0.0000 C.ar    1  LIG1        0.2084
      4 C           0.7356    3.9177   -0.0001 C.ar    1  LIG1        0.2184
      5 O          -0.2769    3.0030   -0.0000 O.2     1  LIG1       -0.4521
      6 H          -0.3592    0.9100   -0.0000 H       1  LIG1        0.1069
      7 O           2.5794    0.8965    0.0001 O.3     1  LIG1       -0.5012
      8 H           3.4500    1.3162    0.0001 H       1  LIG1        0.2924
      9 O           3.2053    3.7633    0.0000 O.3     1  LIG1       -0.5007
     10 H           3.1944    4.7344   -0.0000 H       1  LIG1        0.2924
     11 C           0.4206    5.3092   -0.0001 C.ar    1  LIG1        0.2194
     12 C          -0.7240    6.0441   -0.0001 C.ar    1  LIG1        0.2092
     13 C          -0.3349    7.4174   -0.0001 C.ar    1  LIG1        0.2092
     14 C           1.0313    7.4381   -0.0001 C.ar    1  LIG1        0.2194
     15 O           1.4957    6.1475   -0.0001 O.2     1  LIG1       -0.4407
     16 O          -2.0267    5.6629   -0.0001 O.3     1  LIG1       -0.5007
     17 H          -2.0717    4.6972   -0.0001 H       1  LIG1        0.2924
     18 O          -1.1757    8.4751   -0.0002 O.3     1  LIG1       -0.5007
     19 H          -2.0788    8.1307   -0.0002 H       1  LIG1        0.2924
     20 C           2.0527    8.4409   -0.0001 C.ar    1  LIG1        0.2184
     21 C           3.4138    8.3331   -0.0001 C.ar    1  LIG1        0.2084
     22 C           3.9195    9.6652   -0.0001 C.ar    1  LIG1        0.1977
     23 C           2.8455   10.4946   -0.0002 C.ar    1  LIG1        0.1379
     24 O           1.7001    9.7548   -0.0002 O.2     1  LIG1       -0.4521
     25 H           2.7297   11.5656   -0.0002 H       1  LIG1        0.1069
     26 O           4.1591    7.1957   -0.0001 O.3     1  LIG1       -0.5007
     27 H           5.0895    7.4573   -0.0000 H       1  LIG1        0.2924
     28 O           5.2615    9.8889   -0.0001 O.3     1  LIG1       -0.5012
     29 H           5.4432   10.8351   -0.0001 H       1  LIG1        0.2924
@<TRIPOS>BOND
     1    25    23    1
     2    23    24   ar
     3    23    22   ar
     4    24    20   ar
     5    18    19    1
     6    18    13    1
     7    20    14    1
     8    20    21   ar
     9    22    28    1
    10    22    21   ar
    11    13    14   ar
    12    13    12   ar
    13    14    15   ar
    14    29    28    1
    15    12    16    1
    16    12    11   ar
    17    21    26    1
    18    16    17    1
    19    15    11   ar
    20    11     4    1
    21    26    27    1
    22     4     5   ar
    23     4     3   ar
    24     5     1   ar
    25     1     6    1
    26     1     2   ar
    27    10     9    1
    28     3     9    1
    29     3     2   ar
    30     2     7    1
    31     7     8    1
