@<TRIPOS>MOLECULE
mol_data/opt/cam/geoms/mol2/12ff12ff12ff.out
 29 31 0 0 0
SMALL
GASTEIGER

@<TRIPOS>ATOM
      1 C           0.4962    1.5599   -0.0000 C.ar    1  LIG1        0.1379
      2 C           1.8352    1.7756   -0.0000 C.ar    1  LIG1        0.1977
      3 C           2.0205    3.1896   -0.0000 C.ar    1  LIG1        0.2084
      4 C           0.7697    3.7436   -0.0000 C.ar    1  LIG1        0.2184
      5 O          -0.1655    2.7530   -0.0001 O.2     1  LIG1       -0.4521
      6 H          -0.1069    0.6685   -0.0000 H       1  LIG1        0.1069
      7 O           2.8340    0.8611   -0.0000 O.3     1  LIG1       -0.5012
      8 H           3.6675    1.3508    0.0000 H       1  LIG1        0.2924
      9 O           3.2617    3.7278   -0.0000 O.3     1  LIG1       -0.5007
     10 H           3.2059    4.6994   -0.0000 H       1  LIG1        0.2924
     11 C           0.3393    5.1123   -0.0001 C.ar    1  LIG1        0.2194
     12 C           1.0516    6.2755   -0.0000 C.ar    1  LIG1        0.2092
     13 C           0.1213    7.3439   -0.0001 C.ar    1  LIG1        0.2092
     14 C          -1.1205    6.7655   -0.0001 C.ar    1  LIG1        0.2194
     15 O          -0.9887    5.4047   -0.0001 O.2     1  LIG1       -0.4407
     16 O           2.4135    6.3922    0.0000 O.3     1  LIG1       -0.5007
     17 H           2.6413    7.3312    0.0000 H       1  LIG1        0.2924
     18 O           0.5317    8.6313   -0.0001 O.3     1  LIG1       -0.5007
     19 H          -0.2381    9.2280   -0.0001 H       1  LIG1        0.2924
     20 C          -2.4351    7.3397   -0.0002 C.ar    1  LIG1        0.2184
     21 C          -2.8420    8.6406   -0.0002 C.ar    1  LIG1        0.2084
     22 C          -4.2632    8.6313   -0.0003 C.ar    1  LIG1        0.1977
     23 C          -4.6389    7.3264   -0.0003 C.ar    1  LIG1        0.1379
     24 O          -3.5275    6.5335   -0.0003 O.2     1  LIG1       -0.4521
     25 H          -5.5915    6.8238   -0.0004 H       1  LIG1        0.1069
     26 O          -2.0299    9.7420   -0.0001 O.3     1  LIG1       -0.5007
     27 H          -2.5783   10.5368   -0.0002 H       1  LIG1        0.2924
     28 O          -4.9614    9.7981   -0.0003 O.3     1  LIG1       -0.5012
     29 H          -5.9087    9.6216   -0.0003 H       1  LIG1        0.2924
@<TRIPOS>BOND
     1    25    23    1
     2    29    28    1
     3    23    22   ar
     4    23    24   ar
     5    28    22    1
     6    22    21   ar
     7    24    20   ar
     8    21    20   ar
     9    21    26    1
    10    20    14    1
    11    27    26    1
    12    14    15   ar
    13    14    13   ar
    14    15    11   ar
    15    13    18    1
    16    13    12   ar
    17    19    18    1
    18    11     4    1
    19    11    12   ar
    20     5     4   ar
    21     5     1   ar
    22     4     3   ar
    23    12    16    1
    24     6     1    1
    25     1     2   ar
    26     3     2   ar
    27     3     9    1
    28     2     7    1
    29     9    10    1
    30     7     8    1
    31    17    16    1
