@<TRIPOS>MOLECULE
mol_data/opt/cam/geoms/mol2/12ff12ff-.out
 20 21 0 0 0
SMALL
GASTEIGER

@<TRIPOS>ATOM
      1 C           0.1813    1.8003    0.0002 C.ar    1  LIG1        0.1379
      2 C           1.5371    1.8094    0.0000 C.ar    1  LIG1        0.1977
      3 C           1.9389    3.1812   -0.0000 C.ar    1  LIG1        0.2084
      4 C           0.7984    3.9197   -0.0000 C.ar    1  LIG1        0.2184
      5 O          -0.2882    3.0916   -0.0001 O.2     1  LIG1       -0.4521
      6 H          -0.5522    1.0133    0.0003 H       1  LIG1        0.1069
      7 O           2.3717    0.7457   -0.0000 O.3     1  LIG1       -0.5012
      8 H           3.2775    1.0821   -0.0001 H       1  LIG1        0.2924
      9 O           3.2411    3.5592   -0.0001 O.3     1  LIG1       -0.5007
     10 H           3.2847    4.5258   -0.0001 H       1  LIG1        0.2924
     11 C           0.5598    5.3302   -0.0001 C.ar    1  LIG1        0.2184
     12 C          -0.5807    6.0688   -0.0001 C.ar    1  LIG1        0.2084
     13 C          -0.1789    7.4406   -0.0001 C.ar    1  LIG1        0.1977
     14 C           1.1769    7.4497   -0.0000 C.ar    1  LIG1        0.1379
     15 O           1.6465    6.1584   -0.0001 O.2     1  LIG1       -0.4521
     16 H           1.9104    8.2367    0.0001 H       1  LIG1        0.1069
     17 O          -1.8829    5.6907   -0.0002 O.3     1  LIG1       -0.5007
     18 H          -1.9264    4.7242   -0.0002 H       1  LIG1        0.2924
     19 O          -1.0135    8.5043   -0.0002 O.3     1  LIG1       -0.5012
     20 H          -1.9193    8.1679   -0.0003 H       1  LIG1        0.2924
@<TRIPOS>BOND
     1    20    19    1
     2    18    17    1
     3    17    12    1
     4    19    13    1
     5    12    13   ar
     6    12    11   ar
     7     8     7    1
     8    13    14   ar
     9    10     9    1
    10    15    11   ar
    11    15    14   ar
    12     9     3    1
    13    11     4    1
    14     5     4   ar
    15     5     1   ar
    16     4     3   ar
    17     3     2   ar
    18     7     2    1
    19    14    16    1
    20     2     1   ar
    21     1     6    1
