@<TRIPOS>MOLECULE
mol_data/opt/cam/geoms/mol2/12ff6dh6lf-4hd-.out
 50 53 0 0 0
SMALL
GASTEIGER

@<TRIPOS>ATOM
      1 C           0.2646    1.5109    0.2178 C.ar    1  LIG1        0.1377
      2 C           1.6188    1.6098    0.1971 C.ar    1  LIG1        0.1976
      3 C           1.9111    3.0021    0.1463 C.ar    1  LIG1        0.2052
      4 C           0.7161    3.6665    0.1356 C.ar    1  LIG1        0.1826
      5 O          -0.2877    2.7531    0.1880 O.2     1  LIG1       -0.4553
      6 H          -0.4148    0.6769    0.2584 H       1  LIG1        0.1069
      7 O           2.5310    0.6123    0.2249 O.3     1  LIG1       -0.5012
      8 H           3.4067    1.0214    0.2440 H       1  LIG1        0.2924
      9 O           3.1965    3.4646    0.1145 O.3     1  LIG1       -0.5008
     10 H           3.2724    4.2440    0.6797 H       1  LIG1        0.2924
     11 C          -0.7748    5.6542    0.6024 C.ar    1  LIG1        0.1516
     12 C           0.4025    5.0838    0.0831 C.ar    1  LIG1        0.0586
     13 C           1.3156    5.9574   -0.5061 C.ar    1  LIG1       -0.0254
     14 C           1.0635    7.3251   -0.5678 C.ar    1  LIG1        0.0518
     15 C          -0.1535    7.7894   -0.0141 C.ar    1  LIG1        0.0982
     16 N          -1.0251    6.9618    0.5397 N.ar    1  LIG1       -0.2336
     17 H           2.2192    5.5590   -0.9571 H       1  LIG1        0.0644
     18 N          -2.6071    4.2821    1.8300 N.1     1  LIG1       -0.1893
     19 C          -1.7861    4.8733    1.2708 C.1     1  LIG1        0.1198
     20 N           1.9795    8.1881   -1.1298 N.pl3   1  LIG1       -0.3563
     21 H           2.6415    7.7825   -1.7736 H       1  LIG1        0.1424
     22 H           1.6284    9.0904   -1.4127 H       1  LIG1        0.1424
     23 C          -1.7190    9.7003   -0.5876 C.ar    1  LIG1        0.2247
     24 C          -0.5086    9.2335   -0.0201 C.ar    1  LIG1        0.0671
     25 C           0.2985   10.1874    0.5640 C.ar    1  LIG1       -0.0037
     26 C          -0.0846   11.5355    0.6212 C.ar    1  LIG1        0.1436
     27 C          -1.3146   11.8851    0.0567 C.ar    1  LIG1        0.1179
     28 N          -2.0930   10.9563   -0.5381 N.ar    1  LIG1       -0.2086
     29 H           1.2389    9.9113    1.0294 H       1  LIG1        0.0663
     30 O          -2.4889    8.7992   -1.2189 O.3     1  LIG1       -0.4792
     31 C          -3.7394    9.2500   -1.7207 C.3     1  LIG1        0.0804
     32 H          -4.1978    8.3778   -2.1849 H       1  LIG1        0.0660
     33 H          -4.3745    9.6222   -0.9132 H       1  LIG1        0.0660
     34 H          -3.6070   10.0486   -2.4549 H       1  LIG1        0.0660
     35 O           0.7429   12.3778    1.2809 O.3     1  LIG1       -0.5046
     36 H           0.6826   13.2753    0.8852 H       1  LIG1        0.2922
     37 C          -1.2160   14.4368   -0.0570 C.ar    1  LIG1        0.0340
     38 C          -1.8487   15.6696    0.1126 C.ar    1  LIG1       -0.0392
     39 C          -1.9223   13.2414    0.1534 C.ar    1  LIG1        0.0259
     40 C          -3.1844   15.7373    0.4562 C.ar    1  LIG1       -0.0426
     41 H          -1.2842   16.5836   -0.0457 H       1  LIG1        0.0636
     42 C          -3.2798   13.3259    0.4584 C.ar    1  LIG1       -0.0333
     43 C          -3.9139   14.5555    0.6161 C.ar    1  LIG1        0.0525
     44 H          -3.8373   12.4061    0.5833 H       1  LIG1        0.0637
     45 H          -3.6716   16.6968    0.5843 H       1  LIG1        0.0631
     46 N           0.1506   14.3881   -0.4098 N.pl3   1  LIG1       -0.3575
     47 H           0.3365   13.7460   -1.1741 H       1  LIG1        0.1423
     48 H           0.5418   15.2981   -0.6193 H       1  LIG1        0.1423
     49 N          -6.4338   14.6635    1.2101 N.1     1  LIG1       -0.1909
     50 C          -5.3086   14.6107    0.9469 C.1     1  LIG1        0.0992
@<TRIPOS>BOND
     1    34    31    1
     2    32    31    1
     3    21    20    1
     4    31    30    1
     5    31    33    1
     6    22    20    1
     7    30    23    1
     8    47    46    1
     9    20    14    1
    10    17    13    1
    11    48    46    1
    12    23    28   ar
    13    23    24   ar
    14    14    13   ar
    15    14    15   ar
    16    28    27   ar
    17    13    12   ar
    18    46    37    1
    19    37    38   ar
    20    37    39   ar
    21    41    38    1
    22    24    15    1
    23    24    25   ar
    24    15    16   ar
    25    27    39    1
    26    27    26   ar
    27    12     4    1
    28    12    11   ar
    29    38    40   ar
    30     9     3    1
    31     9    10    1
    32     4     3   ar
    33     4     5   ar
    34     3     2   ar
    35    39    42   ar
    36     5     1   ar
    37     2     1   ar
    38     2     7    1
    39     1     6    1
    40     7     8    1
    41    40    45    1
    42    40    43   ar
    43    42    44    1
    44    42    43   ar
    45    16    11   ar
    46    25    26   ar
    47    25    29    1
    48    11    19    1
    49    43    50    1
    50    26    35    1
    51    36    35    1
    52    50    49    3
    53    19    18    3
