@<TRIPOS>MOLECULE
mol_data/opt/cam/geoms/mol2/12ff12ff-12ff12ff.out
 38 41 0 0 0
SMALL
GASTEIGER

@<TRIPOS>ATOM
      1 C           0.4808    1.6267   -0.0000 C.ar    1  LIG1        0.1379
      2 C           1.8210    1.8356    0.0000 C.ar    1  LIG1        0.1977
      3 C           2.0199    3.2510   -0.0000 C.ar    1  LIG1        0.2084
      4 C           0.7786    3.8096   -0.0001 C.ar    1  LIG1        0.2184
      5 O          -0.1756    2.8340   -0.0001 O.2     1  LIG1       -0.4521
      6 H          -0.1283    0.7399   -0.0000 H       1  LIG1        0.1069
      7 O           2.8058    0.9083    0.0001 O.3     1  LIG1       -0.5012
      8 H           3.6485    1.3816    0.0001 H       1  LIG1        0.2924
      9 O           3.2534    3.8073   -0.0000 O.3     1  LIG1       -0.5007
     10 H           3.1844    4.7761   -0.0000 H       1  LIG1        0.2924
     11 C           0.3791    5.1789   -0.0001 C.ar    1  LIG1        0.2194
     12 C          -0.8081    5.8436   -0.0001 C.ar    1  LIG1        0.2092
     13 C          -0.5033    7.2374   -0.0001 C.ar    1  LIG1        0.2092
     14 C           0.8604    7.3413   -0.0001 C.ar    1  LIG1        0.2195
     15 O           1.4014    6.0806   -0.0001 O.2     1  LIG1       -0.4407
     16 O          -2.0851    5.3832   -0.0001 O.3     1  LIG1       -0.5007
     17 H          -2.0702    4.4166   -0.0001 H       1  LIG1        0.2924
     18 O          -1.4064    8.2419   -0.0002 O.3     1  LIG1       -0.5007
     19 H          -2.2869    7.8435   -0.0002 H       1  LIG1        0.2924
     20 C           1.8203    8.3995   -0.0001 C.ar    1  LIG1        0.2195
     21 C           3.1874    8.3678   -0.0001 C.ar    1  LIG1        0.2092
     22 C           3.6266    9.7177   -0.0001 C.ar    1  LIG1        0.2092
     23 C           2.4990   10.4948   -0.0002 C.ar    1  LIG1        0.2194
     24 O           1.3938    9.6926   -0.0002 O.2     1  LIG1       -0.4407
     25 O           3.9957    7.2756   -0.0001 O.3     1  LIG1       -0.5007
     26 H           4.9079    7.5968   -0.0000 H       1  LIG1        0.2924
     27 O           4.9440   10.0201   -0.0001 O.3     1  LIG1       -0.5007
     28 H           5.0670   10.9857   -0.0001 H       1  LIG1        0.2924
     29 C           2.3257   11.9187   -0.0002 C.ar    1  LIG1        0.2184
     30 C           3.2384   12.9314   -0.0002 C.ar    1  LIG1        0.2084
     31 C           2.5070   14.1498   -0.0002 C.ar    1  LIG1        0.1977
     32 C           1.1926   13.8090   -0.0003 C.ar    1  LIG1        0.1379
     33 O           1.0757   12.4490   -0.0002 O.2     1  LIG1       -0.4521
     34 H           0.2752   14.3733   -0.0003 H       1  LIG1        0.1069
     35 O           4.5996   12.7938   -0.0001 O.3     1  LIG1       -0.5007
     36 H           5.0040   13.6707   -0.0001 H       1  LIG1        0.2924
     37 O           3.1559   15.3450   -0.0002 O.3     1  LIG1       -0.5012
     38 H           2.5215   16.0702   -0.0002 H       1  LIG1        0.2924
@<TRIPOS>BOND
     1    34    32    1
     2    32    33   ar
     3    32    31   ar
     4    38    37    1
     5    33    29   ar
     6    31    37    1
     7    31    30   ar
     8    29    30   ar
     9    29    23    1
    10    30    35    1
    11    19    18    1
    12    18    13    1
    13    24    23   ar
    14    24    20   ar
    15    23    22   ar
    16    13    14   ar
    17    13    12   ar
    18    36    35    1
    19    20    14    1
    20    20    21   ar
    21    14    15   ar
    22    16    12    1
    23    16    17    1
    24    22    27    1
    25    22    21   ar
    26    12    11   ar
    27    28    27    1
    28    21    25    1
    29    15    11   ar
    30    11     4    1
    31    25    26    1
    32     4     5   ar
    33     4     3   ar
    34     5     1   ar
    35    10     9    1
    36     1     6    1
    37     1     2   ar
    38     3     9    1
    39     3     2   ar
    40     2     7    1
    41     7     8    1
