@<TRIPOS>MOLECULE
mol_data/opt/cam/geoms/mol2/12ff12ff12ff-12ff.out
 38 41 0 0 0
SMALL
GASTEIGER

@<TRIPOS>ATOM
      1 C           0.5738    1.6153   -0.0000 C.ar    1  LIG1        0.1379
      2 C           1.9093    1.8503   -0.0000 C.ar    1  LIG1        0.1977
      3 C           2.0755    3.2673   -0.0000 C.ar    1  LIG1        0.2084
      4 C           0.8180    3.8038   -0.0000 C.ar    1  LIG1        0.2184
      5 O          -0.1055    2.8008   -0.0000 O.2     1  LIG1       -0.4521
      6 H          -0.0165    0.7154   -0.0000 H       1  LIG1        0.1069
      7 O           2.9193    0.9496    0.0000 O.3     1  LIG1       -0.5012
      8 H           3.7474    1.4485    0.0000 H       1  LIG1        0.2924
      9 O           3.3078    3.8246   -0.0000 O.3     1  LIG1       -0.5007
     10 H           3.2366    4.7951   -0.0000 H       1  LIG1        0.2924
     11 C           0.3642    5.1634   -0.0001 C.ar    1  LIG1        0.2194
     12 C           1.0445    6.3462   -0.0000 C.ar    1  LIG1        0.2092
     13 C           0.0860    7.3939   -0.0001 C.ar    1  LIG1        0.2092
     14 C          -1.1341    6.7831   -0.0001 C.ar    1  LIG1        0.2195
     15 O          -0.9787    5.4239   -0.0001 O.2     1  LIG1       -0.4407
     16 O           2.4032    6.4855    0.0000 O.3     1  LIG1       -0.5007
     17 H           2.6201    7.4268    0.0000 H       1  LIG1        0.2924
     18 O           0.4302    8.7012   -0.0001 O.3     1  LIG1       -0.5007
     19 H          -0.3673    9.2564   -0.0001 H       1  LIG1        0.2924
     20 C          -2.4473    7.3314   -0.0002 C.ar    1  LIG1        0.2195
     21 C          -3.7109    6.8249   -0.0002 C.ar    1  LIG1        0.2092
     22 C          -4.6019    7.9400   -0.0003 C.ar    1  LIG1        0.2092
     23 C          -3.8257    9.0648   -0.0002 C.ar    1  LIG1        0.2194
     24 O          -2.5049    8.6938   -0.0002 O.2     1  LIG1       -0.4407
     25 O          -4.1600    5.5455   -0.0002 O.3     1  LIG1       -0.5007
     26 H          -3.4060    4.9397   -0.0002 H       1  LIG1        0.2924
     27 O          -5.9507    7.8694   -0.0003 O.3     1  LIG1       -0.5007
     28 H          -6.1948    6.9341   -0.0003 H       1  LIG1        0.2924
     29 C          -4.0468   10.4786   -0.0003 C.ar    1  LIG1        0.2184
     30 C          -3.1656   11.5218   -0.0002 C.ar    1  LIG1        0.2084
     31 C          -3.9529   12.7091   -0.0003 C.ar    1  LIG1        0.1977
     32 C          -5.2530   12.3200   -0.0003 C.ar    1  LIG1        0.1379
     33 O          -5.3197   10.9581   -0.0003 O.2     1  LIG1       -0.4521
     34 H          -6.1907   12.8503   -0.0004 H       1  LIG1        0.1069
     35 O          -1.8066   11.4647   -0.0002 O.3     1  LIG1       -0.5007
     36 H          -1.4779   12.3736   -0.0001 H       1  LIG1        0.2924
     37 O          -3.3518   13.9295   -0.0002 O.3     1  LIG1       -0.5012
     38 H          -4.0139   14.6294   -0.0003 H       1  LIG1        0.2924
@<TRIPOS>BOND
     1    34    32    1
     2    32    33   ar
     3    32    31   ar
     4    33    29   ar
     5    27    28    1
     6    27    22    1
     7    31    37    1
     8    31    30   ar
     9    38    37    1
    10    29    23    1
    11    29    30   ar
    12    22    23   ar
    13    22    21   ar
    14    23    24   ar
    15    30    35    1
    16    21    25    1
    17    21    20   ar
    18    25    26    1
    19    24    20   ar
    20    20    14    1
    21    35    36    1
    22    14    15   ar
    23    14    13   ar
    24    15    11   ar
    25    19    18    1
    26    13    18    1
    27    13    12   ar
    28    11     4    1
    29    11    12   ar
    30     4     5   ar
    31     4     3   ar
    32    12    16    1
    33     5     1   ar
    34     9     3    1
    35     9    10    1
    36     3     2   ar
    37     1     6    1
    38     1     2   ar
    39     2     7    1
    40    17    16    1
    41     7     8    1
