@<TRIPOS>MOLECULE
mol_data/opt/cam/geoms/mol2/12ff13fi12dh6ie6aa-6ad-6fa-13ll.out
 92 99 0 0 0
SMALL
GASTEIGER

@<TRIPOS>ATOM
      1 C           1.0278    1.8779   -0.7934 C.ar    1  LIG1        0.1378
      2 C           2.3196    1.8993   -0.3824 C.ar    1  LIG1        0.1977
      3 C           2.6049    3.2436    0.0063 C.ar    1  LIG1        0.2067
      4 C           1.4594    3.9578   -0.1973 C.ar    1  LIG1        0.1994
      5 O           0.4872    3.1293   -0.6870 O.2     1  LIG1       -0.4538
      6 H           0.3868    1.0986   -1.1682 H       1  LIG1        0.1069
      7 O           3.1974    0.8722   -0.3331 O.3     1  LIG1       -0.5012
      8 H           4.0266    1.2172    0.0248 H       1  LIG1        0.2924
      9 O           3.8162    3.5995    0.4791 O.3     1  LIG1       -0.5008
     10 H           3.8049    4.5532    0.6915 H       1  LIG1        0.2924
     11 C           1.1179    5.3359    0.0103 C.ar    1  LIG1        0.1286
     12 C           1.8935    6.4066    0.4230 C.ar    1  LIG1        0.1488
     13 C           1.0997    7.5681    0.4963 C.ar    1  LIG1        0.0200
     14 C          -0.1735    7.1751    0.0924 C.ar    1  LIG1        0.0905
     15 N          -0.1386    5.8229   -0.1763 N.ar    1  LIG1       -0.3461
     16 H          -0.9231    5.2702   -0.4838 H       1  LIG1        0.1662
     17 O           3.2263    6.2950    0.7773 O.3     1  LIG1       -0.5043
     18 H           3.7434    6.9438    0.2838 H       1  LIG1        0.2922
     19 C           1.5724    8.8987    0.9873 C.3     1  LIG1       -0.0341
     20 H           0.8127    9.3917    1.5973 H       1  LIG1        0.0279
     21 H           1.8224    9.5867    0.1748 H       1  LIG1        0.0279
     22 H           2.4618    8.7654    1.6087 H       1  LIG1        0.0279
     23 C          -1.4104    7.8862   -0.0331 C.ar    1  LIG1        0.1713
     24 C          -1.7590    9.2076   -0.2188 C.ar    1  LIG1        0.1201
     25 C          -3.1946    9.2541   -0.2836 C.ar    1  LIG1        0.0893
     26 C          -3.6308    7.9643   -0.1497 C.ar    1  LIG1        0.1593
     27 O          -2.5291    7.1386    0.0025 O.2     1  LIG1       -0.4501
     28 N          -0.3005   11.2761   -0.6788 N.1     1  LIG1       -0.1907
     29 C          -0.9242   10.3253   -0.4546 C.1     1  LIG1        0.1049
     30 N          -3.9320   10.4133   -0.4342 N.pl3   1  LIG1       -0.3540
     31 H          -3.3985   11.2011   -0.7774 H       1  LIG1        0.1425
     32 H          -4.8089   10.3044   -0.9244 H       1  LIG1        0.1425
     33 C          -5.2794    6.0750   -0.5173 C.ar    1  LIG1        0.0497
     34 C          -4.9634    7.3879   -0.0981 C.ar    1  LIG1        0.0413
     35 C          -6.0125    8.1625    0.3905 C.ar    1  LIG1       -0.0318
     36 C          -7.3200    7.6762    0.4283 C.ar    1  LIG1        0.0513
     37 C          -7.5424    6.3699   -0.0454 C.ar    1  LIG1        0.0881
     38 N          -6.5252    5.6177   -0.4787 N.ar    1  LIG1       -0.2499
     39 H          -5.8151    9.1541    0.7828 H       1  LIG1        0.0638
     40 C          -4.2509    5.1123   -1.0424 C.3     1  LIG1       -0.0216
     41 H          -3.5967    4.7607   -0.2394 H       1  LIG1        0.0293
     42 H          -3.6169    5.5792   -1.8005 H       1  LIG1        0.0293
     43 H          -4.7651    4.2555   -1.4756 H       1  LIG1        0.0293
     44 C          -8.3340    8.5112    0.9972 C.1     1  LIG1       -0.0675
     45 C          -9.1363    9.2582    1.4951 C.1     1  LIG1       -0.1138
     46 H          -9.8550    9.9057    1.9433 H       1  LIG1        0.1232
     47 C          -8.9450    4.3229    0.0743 C.ar    1  LIG1        0.0375
     48 C          -8.8688    5.7113   -0.0920 C.ar    1  LIG1        0.0197
     49 C         -10.0676    6.3798   -0.3301 C.ar    1  LIG1       -0.0491
     50 C         -11.2520    5.6621   -0.3847 C.ar    1  LIG1       -0.0350
     51 C         -11.2203    4.2801   -0.2062 C.ar    1  LIG1        0.0725
     52 N         -10.0722    3.6293    0.0266 N.ar    1  LIG1       -0.2543
     53 H         -10.0812    7.4519   -0.4779 H       1  LIG1        0.0625
     54 H          -8.0325    3.7626    0.2509 H       1  LIG1        0.0836
     55 H         -12.1861    6.1830   -0.5571 H       1  LIG1        0.0639
     56 C         -12.4051    2.1191    0.1875 C.ar    1  LIG1        0.0375
     57 C         -12.4402    3.4420   -0.2532 C.ar    1  LIG1        0.0197
     58 C         -13.6602    3.8779   -0.7529 C.ar    1  LIG1       -0.0316
     59 C         -14.7755    3.0414   -0.7636 C.ar    1  LIG1        0.0785
     60 C         -14.6738    1.7298   -0.2340 C.ar    1  LIG1        0.0934
     61 N         -13.4625    1.3218    0.1986 N.ar    1  LIG1       -0.2529
     62 H         -13.7675    4.8704   -1.1753 H       1  LIG1        0.0638
     63 H         -11.4690    1.7033    0.5438 H       1  LIG1        0.0836
     64 N         -16.8467    4.0941   -1.9049 N.1     1  LIG1       -0.1908
     65 C         -15.9489    3.5840   -1.3824 C.1     1  LIG1        0.1013
     66 C         -15.5019   -0.6309    0.1177 C.ar    1  LIG1        0.2224
     67 C         -15.7640    0.7542   -0.1280 C.ar    1  LIG1        0.0630
     68 C         -17.1186    1.1040   -0.2384 C.ar    1  LIG1       -0.0453
     69 C         -18.1156    0.1571   -0.1733 C.ar    1  LIG1       -0.0333
     70 C         -17.7366   -1.1795   -0.0007 C.ar    1  LIG1        0.0946
     71 N         -16.4591   -1.5464    0.1507 N.ar    1  LIG1       -0.2109
     72 H         -17.4044    2.1388   -0.3645 H       1  LIG1        0.0626
     73 O         -14.2800   -1.1009    0.3271 O.3     1  LIG1       -0.4919
     74 H         -13.6744   -0.3130    0.3761 H       1  LIG1        0.2937
     75 H         -19.1619    0.4207   -0.2458 H       1  LIG1        0.0640
     76 C         -18.6956   -2.2648    0.0451 C.ar    1  LIG1        0.1110
     77 C         -20.0740   -2.3275   -0.0955 C.ar    1  LIG1        0.1884
     78 C         -20.4547   -3.6854    0.0539 C.ar    1  LIG1        0.1795
     79 C         -19.3047   -4.4134    0.2784 C.ar    1  LIG1        0.0482
     80 N         -18.2601   -3.5455    0.2699 N.ar    1  LIG1       -0.3534
     81 H         -17.2774   -3.7384    0.3972 H       1  LIG1        0.1656
     82 H         -19.1799   -5.4733    0.4338 H       1  LIG1        0.0845
     83 O         -20.9060   -1.2656   -0.3052 O.3     1  LIG1       -0.4895
     84 C         -21.6442   -1.3467   -1.5228 C.3     1  LIG1        0.0791
     85 H         -22.3040   -0.4787   -1.5447 H       1  LIG1        0.0660
     86 H         -20.9704   -1.3153   -2.3859 H       1  LIG1        0.0660
     87 H         -22.2363   -2.2652   -1.5623 H       1  LIG1        0.0660
     88 O         -21.7211   -4.1921   -0.0380 O.3     1  LIG1       -0.4900
     89 C         -22.5714   -3.7832    1.0264 C.3     1  LIG1        0.0790
     90 H         -23.5508   -4.2233    0.8330 H       1  LIG1        0.0660
     91 H         -22.1932   -4.1453    1.9893 H       1  LIG1        0.0660
     92 H         -22.6604   -2.6926    1.0669 H       1  LIG1        0.0660
@<TRIPOS>BOND
     1    86    84    1
     2    64    65    3
     3    42    40    1
     4    87    84    1
     5    85    84    1
     6    84    83    1
     7    43    40    1
     8    65    59    1
     9    62    58    1
    10     6     1    1
    11    40    33    1
    12    40    41    1
    13    32    30    1
    14     1     5   ar
    15     1     2   ar
    16    31    30    1
    17    59    58   ar
    18    59    60   ar
    19    58    57   ar
    20     5     4   ar
    21    28    29    3
    22    55    50    1
    23    33    38   ar
    24    33    34   ar
    25    16    15    1
    26    38    37   ar
    27    53    49    1
    28    29    24    1
    29    30    25    1
    30    50    49   ar
    31    50    51   ar
    32     2     7    1
    33     2     3   ar
    34    72    68    1
    35     7     8    1
    36    49    48   ar
    37    83    77    1
    38    25    24   ar
    39    25    26   ar
    40    57    51    1
    41    57    56   ar
    42    75    69    1
    43    68    69   ar
    44    68    67   ar
    45    60    67    1
    46    60    61   ar
    47    24    23   ar
    48    51    52   ar
    49     4     3   ar
    50     4    11    1
    51    15    11   ar
    52    15    14   ar
    53    69    70   ar
    54    26    34    1
    55    26    27   ar
    56    67    66   ar
    57    34    35   ar
    58    77    76   ar
    59    77    78   ar
    60    48    37    1
    61    48    47   ar
    62    37    36   ar
    63    88    78    1
    64    88    89    1
    65    23    27   ar
    66    23    14    1
    67    70    76    1
    68    70    71   ar
    69     3     9    1
    70    11    12   ar
    71    52    47   ar
    72    76    80   ar
    73    78    79   ar
    74    47    54    1
    75    14    13   ar
    76    66    71   ar
    77    66    73    1
    78    21    19    1
    79    56    61   ar
    80    56    63    1
    81    80    79   ar
    82    80    81    1
    83    79    82    1
    84    18    17    1
    85    73    74    1
    86    35    36   ar
    87    35    39    1
    88    12    13   ar
    89    12    17    1
    90    36    44    1
    91     9    10    1
    92    13    19    1
    93    90    89    1
    94    19    20    1
    95    19    22    1
    96    44    45    3
    97    89    92    1
    98    89    91    1
    99    45    46    1
