@<TRIPOS>MOLECULE
mol_data/opt/cam/geoms/mol2/12ff12ff12ff-12ff-.out
 38 41 0 0 0
SMALL
GASTEIGER

@<TRIPOS>ATOM
      1 C           0.3688    1.5719   -0.0000 C.ar    1  LIG1        0.1379
      2 C           1.7197    1.6895   -0.0000 C.ar    1  LIG1        0.1977
      3 C           2.0089    3.0867   -0.0000 C.ar    1  LIG1        0.2084
      4 C           0.8028    3.7304   -0.0001 C.ar    1  LIG1        0.2184
      5 O          -0.2051    2.8118   -0.0000 O.2     1  LIG1       -0.4521
      6 H          -0.2973    0.7265   -0.0000 H       1  LIG1        0.1069
      7 O           2.6457    0.7034   -0.0000 O.3     1  LIG1       -0.5012
      8 H           3.5154    1.1255   -0.0000 H       1  LIG1        0.2924
      9 O           3.2841    3.5353   -0.0001 O.3     1  LIG1       -0.5007
     10 H           3.2983    4.5080   -0.0000 H       1  LIG1        0.2924
     11 C           0.4668    5.1233   -0.0001 C.ar    1  LIG1        0.2194
     12 C           1.2418    6.2459   -0.0001 C.ar    1  LIG1        0.2092
     13 C           0.3711    7.3678   -0.0001 C.ar    1  LIG1        0.2092
     14 C          -0.8955    6.8643   -0.0001 C.ar    1  LIG1        0.2195
     15 O          -0.8499    5.4949   -0.0001 O.2     1  LIG1       -0.4407
     16 O           2.6067    6.2689   -0.0000 O.3     1  LIG1       -0.5007
     17 H           2.9080    7.1866   -0.0000 H       1  LIG1        0.2924
     18 O           0.8187    8.6451   -0.0001 O.3     1  LIG1       -0.5007
     19 H           0.0616    9.2489   -0.0001 H       1  LIG1        0.2924
     20 C          -2.1801    7.4777   -0.0002 C.ar    1  LIG1        0.2195
     21 C          -3.4467    6.9741   -0.0002 C.ar    1  LIG1        0.2092
     22 C          -4.3174    8.0961   -0.0002 C.ar    1  LIG1        0.2092
     23 C          -3.5424    9.2186   -0.0002 C.ar    1  LIG1        0.2194
     24 O          -2.2257    8.8470   -0.0002 O.2     1  LIG1       -0.4407
     25 O          -3.8942    5.6969   -0.0002 O.3     1  LIG1       -0.5007
     26 H          -3.1371    5.0931   -0.0001 H       1  LIG1        0.2924
     27 O          -5.6823    8.0730   -0.0002 O.3     1  LIG1       -0.5007
     28 H          -5.9835    7.1553   -0.0002 H       1  LIG1        0.2924
     29 C          -3.8783   10.6115   -0.0002 C.ar    1  LIG1        0.2184
     30 C          -5.0845   11.2552   -0.0003 C.ar    1  LIG1        0.2084
     31 C          -4.7952   12.6524   -0.0003 C.ar    1  LIG1        0.1977
     32 C          -3.4443   12.7700   -0.0003 C.ar    1  LIG1        0.1379
     33 O          -2.8704   11.5301   -0.0002 O.2     1  LIG1       -0.4521
     34 H          -2.7782   13.6155   -0.0003 H       1  LIG1        0.1069
     35 O          -6.3597   10.8068   -0.0003 O.3     1  LIG1       -0.5007
     36 H          -6.3739    9.8341   -0.0003 H       1  LIG1        0.2924
     37 O          -5.7212   13.6386   -0.0003 O.3     1  LIG1       -0.5012
     38 H          -6.5909   13.2165   -0.0003 H       1  LIG1        0.2924
@<TRIPOS>BOND
     1    38    37    1
     2    37    31    1
     3    31    30   ar
     4    31    32   ar
     5    35    30    1
     6    35    36    1
     7    34    32    1
     8    30    29   ar
     9    32    33   ar
    10    29    33   ar
    11    29    23    1
    12    27    28    1
    13    27    22    1
    14    23    22   ar
    15    23    24   ar
    16    22    21   ar
    17    24    20   ar
    18    21    20   ar
    19    21    25    1
    20    20    14    1
    21    25    26    1
    22    14    15   ar
    23    14    13   ar
    24    19    18    1
    25    15    11   ar
    26    18    13    1
    27    13    12   ar
    28    11    12   ar
    29    11     4    1
    30    12    16    1
    31     4     3   ar
    32     4     5   ar
    33     9    10    1
    34     9     3    1
    35     3     2   ar
    36     5     1   ar
    37    17    16    1
    38     2     1   ar
    39     2     7    1
    40     1     6    1
    41     8     7    1
