@<TRIPOS>MOLECULE
mol_data/opt/cam/geoms/mol2/12fg12fg12fg.out
 29 31 0 0 0
SMALL
GASTEIGER

@<TRIPOS>ATOM
      1 C           0.5311    1.7376    0.9359 C.ar    1  LIG1        0.1352
      2 C           1.7204    1.7754    0.2849 C.ar    1  LIG1        0.1686
      3 C           1.8628    3.1025   -0.2369 C.ar    1  LIG1        0.0954
      4 C           0.7447    3.7831    0.1592 C.ar    1  LIG1        0.1901
      5 O          -0.0637    2.9670    0.8740 O.2     1  LIG1       -0.4548
      6 H          -0.0027    0.9630    1.4585 H       1  LIG1        0.1068
      7 O           2.5961    0.7595    0.1330 O.3     1  LIG1       -0.5029
      8 H           3.3892    1.1183   -0.2916 H       1  LIG1        0.2923
      9 S           3.1942    3.5992   -1.2788 S.3     1  LIG1       -0.1354
     10 H           3.6454    4.6202   -0.5278 H       1  LIG1        0.1073
     11 C           0.3647    5.1628    0.0149 C.ar    1  LIG1        0.2141
     12 C           1.0828    6.3230    0.0342 C.ar    1  LIG1        0.1800
     13 C           0.1635    7.3917   -0.1948 C.ar    1  LIG1        0.0962
     14 C          -1.0689    6.8066   -0.3012 C.ar    1  LIG1        0.1912
     15 O          -0.9605    5.4659   -0.1729 O.2     1  LIG1       -0.4435
     16 O           2.4099    6.4465    0.2514 O.3     1  LIG1       -0.5024
     17 H           2.6137    7.3936    0.2924 H       1  LIG1        0.2923
     18 S           0.6567    9.0719   -0.3865 S.3     1  LIG1       -0.1353
     19 H          -0.0431    9.5875    0.6402 H       1  LIG1        0.1073
     20 C          -2.3850    7.3700   -0.4412 C.ar    1  LIG1        0.2131
     21 C          -2.9675    8.4975    0.0589 C.ar    1  LIG1        0.1792
     22 C          -4.3138    8.5215   -0.4284 C.ar    1  LIG1        0.0849
     23 C          -4.4489    7.4021   -1.1891 C.ar    1  LIG1        0.1096
     24 O          -3.3091    6.6977   -1.2050 O.2     1  LIG1       -0.4549
     25 H          -5.2769    7.0030   -1.7537 H       1  LIG1        0.1042
     26 O          -2.4063    9.3975    0.8918 O.3     1  LIG1       -0.5024
     27 H          -3.0408   10.1208    1.0133 H       1  LIG1        0.2923
     28 S          -5.4753    9.8103   -0.1152 S.3     1  LIG1       -0.1361
     29 H          -6.0245    9.3053    1.0063 H       1  LIG1        0.1073
@<TRIPOS>BOND
     1    25    23    1
     2     9    10    1
     3     9     3    1
     4    24    23   ar
     5    24    20   ar
     6    23    22   ar
     7    20    14    1
     8    20    21   ar
     9    22    28    1
    10    22    21   ar
    11    18    13    1
    12    18    19    1
    13    14    13   ar
    14    14    15   ar
    15     8     7    1
    16     3     4   ar
    17     3     2   ar
    18    13    12   ar
    19    15    11   ar
    20    28    29    1
    21    11    12   ar
    22    11     4    1
    23    12    16    1
    24    21    26    1
    25     7     2    1
    26     4     5   ar
    27    16    17    1
    28     2     1   ar
    29     5     1   ar
    30    26    27    1
    31     1     6    1
