@<TRIPOS>MOLECULE
mol_data/opt/cam/geoms/mol2/12fg12fg-.out
 20 21 0 0 0
SMALL
GASTEIGER

@<TRIPOS>ATOM
      1 C           0.2438    1.7903    0.4955 C.ar    1  LIG1        0.1352
      2 C           1.5401    1.8447    0.1002 C.ar    1  LIG1        0.1686
      3 C           1.7992    3.2034   -0.2761 C.ar    1  LIG1        0.0954
      4 C           0.6321    3.8813   -0.0600 C.ar    1  LIG1        0.1901
      5 O          -0.3124    3.0369    0.4125 O.2     1  LIG1       -0.4548
      6 H          -0.3932    0.9936    0.8384 H       1  LIG1        0.1068
      7 O           2.4170    0.8205    0.0471 O.3     1  LIG1       -0.5029
      8 H           3.2818    1.1870   -0.1891 H       1  LIG1        0.2923
      9 S           3.3198    3.7474   -0.9811 S.3     1  LIG1       -0.1354
     10 H           3.6329    4.6698   -0.0530 H       1  LIG1        0.1073
     11 C           0.3032    5.2786   -0.1734 C.ar    1  LIG1        0.2131
     12 C           1.0043    6.4176    0.0913 C.ar    1  LIG1        0.1792
     13 C           0.1438    7.5192   -0.2218 C.ar    1  LIG1        0.0849
     14 C          -1.0208    6.9648   -0.6527 C.ar    1  LIG1        0.1096
     15 O          -0.9472    5.6264   -0.6271 O.2     1  LIG1       -0.4549
     16 H          -1.9485    7.3965   -0.9939 H       1  LIG1        0.1042
     17 O           2.2537    6.5010    0.5953 O.3     1  LIG1       -0.5024
     18 H           2.5080    7.4366    0.5944 H       1  LIG1        0.2923
     19 S           0.5992    9.2188   -0.1112 S.3     1  LIG1       -0.1361
     20 H           0.2223    9.4370    1.1635 H       1  LIG1        0.1073
@<TRIPOS>BOND
     1    16    14    1
     2     9     3    1
     3     9    10    1
     4    14    15   ar
     5    14    13   ar
     6    15    11   ar
     7     3     4   ar
     8     3     2   ar
     9    13    19    1
    10    13    12   ar
    11     8     7    1
    12    11     4    1
    13    11    12   ar
    14    19    20    1
    15     4     5   ar
    16     7     2    1
    17    12    17    1
    18     2     1   ar
    19     5     1   ar
    20     1     6    1
    21    18    17    1
