@<TRIPOS>MOLECULE
mol_data/opt/cam/geoms/mol2/12fg12fg-12fg-12fg-.out
 38 41 0 0 0
SMALL
GASTEIGER

@<TRIPOS>ATOM
      1 C           0.9526    1.5526    0.0430 C.ar    1  LIG1        0.1352
      2 C           2.1454    1.8668    0.6065 C.ar    1  LIG1        0.1686
      3 C           2.2017    3.2970    0.6831 C.ar    1  LIG1        0.0954
      4 C           1.0327    3.7481    0.1350 C.ar    1  LIG1        0.1901
      5 O           0.2736    2.7009   -0.2594 O.2     1  LIG1       -0.4548
      6 H           0.4669    0.6221   -0.1938 H       1  LIG1        0.1068
      7 O           3.0935    1.0074    1.0366 O.3     1  LIG1       -0.5029
      8 H           3.8625    1.5321    1.3038 H       1  LIG1        0.2923
      9 S           3.5098    4.1777    1.4689 S.3     1  LIG1       -0.1354
     10 H           3.8963    4.9175    0.4137 H       1  LIG1        0.1073
     11 C           0.5536    5.0768   -0.1383 C.ar    1  LIG1        0.2141
     12 C           1.1792    6.2206   -0.5424 C.ar    1  LIG1        0.1800
     13 C           0.1742    7.2259   -0.6780 C.ar    1  LIG1        0.0962
     14 C          -1.0067    6.6210   -0.3389 C.ar    1  LIG1        0.1912
     15 O          -0.7883    5.3305   -0.0045 O.2     1  LIG1       -0.4435
     16 O           2.4908    6.3659   -0.8280 O.3     1  LIG1       -0.5024
     17 H           2.6421    7.3008   -1.0368 H       1  LIG1        0.2923
     18 S           0.4922    8.8292   -1.3345 S.3     1  LIG1       -0.1353
     19 H           0.1209    9.5495   -0.2610 H       1  LIG1        0.1073
     20 C          -2.3427    7.1339   -0.2161 C.ar    1  LIG1        0.2142
     21 C          -2.8351    8.3429    0.1851 C.ar    1  LIG1        0.1800
     22 C          -4.2574    8.2711    0.0842 C.ar    1  LIG1        0.0962
     23 C          -4.5377    6.9998   -0.3387 C.ar    1  LIG1        0.1912
     24 O          -3.3934    6.3050   -0.5178 O.2     1  LIG1       -0.4435
     25 O          -2.1207    9.4010    0.6199 O.3     1  LIG1       -0.5024
     26 H          -2.7491   10.0745    0.9236 H       1  LIG1        0.2923
     27 S          -5.3191    9.6470    0.3711 S.3     1  LIG1       -0.1353
     28 H          -6.0514    9.1094    1.3633 H       1  LIG1        0.1073
     29 C          -5.7848    6.3109   -0.5345 C.ar    1  LIG1        0.2131
     30 C          -6.9790    6.3514    0.1240 C.ar    1  LIG1        0.1792
     31 C          -7.8470    5.4204   -0.5318 C.ar    1  LIG1        0.0849
     32 C          -7.1117    4.8816   -1.5414 C.ar    1  LIG1        0.1096
     33 O          -5.8749    5.3966   -1.5563 O.2     1  LIG1       -0.4549
     34 H          -7.3424    4.1452   -2.2952 H       1  LIG1        0.1042
     35 O          -7.2785    7.0874    1.2133 O.3     1  LIG1       -0.5024
     36 H          -8.2181    6.9507    1.4108 H       1  LIG1        0.2923
     37 S          -9.5321    5.1376   -0.0973 S.3     1  LIG1       -0.1361
     38 H          -9.3373    4.1358    0.7816 H       1  LIG1        0.1073
@<TRIPOS>BOND
     1    34    32    1
     2    33    32   ar
     3    33    29   ar
     4    32    31   ar
     5    18    13    1
     6    18    19    1
     7    17    16    1
     8    16    12    1
     9    13    12   ar
    10    13    14   ar
    11    12    11   ar
    12    29    23    1
    13    29    30   ar
    14    31    37    1
    15    31    30   ar
    16    24    23   ar
    17    24    20   ar
    18    14    20    1
    19    14    15   ar
    20    23    22   ar
    21     5     1   ar
    22     5     4   ar
    23    20    21   ar
    24     6     1    1
    25    11    15   ar
    26    11     4    1
    27    37    38    1
    28     1     2   ar
    29    22    21   ar
    30    22    27    1
    31    30    35    1
    32     4     3   ar
    33    21    25    1
    34    27    28    1
    35    10     9    1
    36     2     3   ar
    37     2     7    1
    38    25    26    1
    39     3     9    1
    40     7     8    1
    41    35    36    1
