@<TRIPOS>MOLECULE
mol_data/opt/cam/geoms/mol2/12fg12fg12fg-12fg.out
 38 41 0 0 0
SMALL
GASTEIGER

@<TRIPOS>ATOM
      1 C           1.1134    1.9331    1.5850 C.ar    1  LIG1        0.1352
      2 C           2.1528    1.8812    0.7153 C.ar    1  LIG1        0.1686
      3 C           2.1141    3.0945   -0.0463 C.ar    1  LIG1        0.0954
      4 C           1.0531    3.8084    0.4387 C.ar    1  LIG1        0.1901
      5 O           0.4456    3.1159    1.4297 O.2     1  LIG1       -0.4548
      6 H           0.7359    1.2536    2.3291 H       1  LIG1        0.1068
      7 O           3.0427    0.8763    0.5709 O.3     1  LIG1       -0.5029
      8 H           3.7162    1.1718   -0.0593 H       1  LIG1        0.2923
      9 S           3.1907    3.4245   -1.4017 S.3     1  LIG1       -0.1354
     10 H           3.7186    4.5744   -0.9442 H       1  LIG1        0.1073
     11 C           0.5708    5.1288    0.1348 C.ar    1  LIG1        0.2141
     12 C           1.2092    6.2895   -0.1931 C.ar    1  LIG1        0.1800
     13 C           0.2020    7.2762   -0.4171 C.ar    1  LIG1        0.0962
     14 C          -0.9918    6.6533   -0.1699 C.ar    1  LIG1        0.1912
     15 O          -0.7810    5.3609    0.1664 O.2     1  LIG1       -0.4435
     16 O           2.5438    6.4819   -0.2713 O.3     1  LIG1       -0.5024
     17 H           2.6946    7.4265   -0.4305 H       1  LIG1        0.2923
     18 S           0.5532    8.9002   -1.0025 S.3     1  LIG1       -0.1353
     19 H           0.0048    9.5866    0.0161 H       1  LIG1        0.1073
     20 C          -2.3394    7.1500   -0.1363 C.ar    1  LIG1        0.2142
     21 C          -2.8740    8.3461    0.2481 C.ar    1  LIG1        0.1800
     22 C          -4.2834    8.2649    0.0355 C.ar    1  LIG1        0.0962
     23 C          -4.5172    6.9997   -0.4314 C.ar    1  LIG1        0.1912
     24 O          -3.3556    6.3186   -0.5348 O.2     1  LIG1       -0.4435
     25 O          -2.2062    9.4019    0.7581 O.3     1  LIG1       -0.5024
     26 H          -2.8627   10.0656    1.0212 H       1  LIG1        0.2923
     27 S          -5.3773    9.6262    0.2650 S.3     1  LIG1       -0.1353
     28 H          -6.1781    9.0640    1.1883 H       1  LIG1        0.1073
     29 C          -5.7388    6.3040   -0.7345 C.ar    1  LIG1        0.2131
     30 C          -6.9797    6.3222   -0.1678 C.ar    1  LIG1        0.1792
     31 C          -7.7867    5.3967   -0.9042 C.ar    1  LIG1        0.0849
     32 C          -6.9721    4.8831   -1.8648 C.ar    1  LIG1        0.1096
     33 O          -5.7426    5.4084   -1.7766 O.2     1  LIG1       -0.4549
     34 H          -7.1380    4.1593   -2.6473 H       1  LIG1        0.1042
     35 O          -7.3676    7.0350    0.9090 O.3     1  LIG1       -0.5024
     36 H          -8.3186    6.8890    1.0313 H       1  LIG1        0.2923
     37 S          -9.4972    5.0929   -0.6039 S.3     1  LIG1       -0.1361
     38 H          -9.3605    4.0776    0.2706 H       1  LIG1        0.1073
@<TRIPOS>BOND
     1    34    32    1
     2    32    33   ar
     3    32    31   ar
     4    33    29   ar
     5     9    10    1
     6     9     3    1
     7    18    13    1
     8    18    19    1
     9    31    37    1
    10    31    30   ar
    11    29    23    1
    12    29    30   ar
    13    37    38    1
    14    24    23   ar
    15    24    20   ar
    16    23    22   ar
    17    17    16    1
    18    13    12   ar
    19    13    14   ar
    20    16    12    1
    21    12    11   ar
    22    14    20    1
    23    14    15   ar
    24    30    35    1
    25    20    21   ar
    26     8     7    1
    27     3     4   ar
    28     3     2   ar
    29    22    21   ar
    30    22    27    1
    31    11    15   ar
    32    11     4    1
    33    21    25    1
    34    27    28    1
    35     4     5   ar
    36     7     2    1
    37     2     1   ar
    38    25    26    1
    39    35    36    1
    40     5     1   ar
    41     1     6    1
