@<TRIPOS>MOLECULE
mol_data/opt/cam/geoms/mol2/12fg12fg-12fg12fg.out
 38 41 0 0 0
SMALL
GASTEIGER

@<TRIPOS>ATOM
      1 C           1.0847    1.5448    0.0140 C.ar    1  LIG1        0.1352
      2 C           2.3352    1.9023   -0.3699 C.ar    1  LIG1        0.1686
      3 C           2.3595    3.3348   -0.4144 C.ar    1  LIG1        0.0954
      4 C           1.1121    3.7431   -0.0297 C.ar    1  LIG1        0.1901
      5 O           0.3364    2.6680    0.2366 O.2     1  LIG1       -0.4548
      6 H           0.5979    0.5969    0.1636 H       1  LIG1        0.1068
      7 O           3.3593    1.0777   -0.6757 O.3     1  LIG1       -0.5029
      8 H           4.1413    1.6286   -0.8277 H       1  LIG1        0.2923
      9 S           3.7379    4.2668   -0.9935 S.3     1  LIG1       -0.1354
     10 H           3.9533    4.9921    0.1189 H       1  LIG1        0.1073
     11 C           0.5619    5.0530    0.1955 C.ar    1  LIG1        0.2141
     12 C           1.0917    6.2031    0.7042 C.ar    1  LIG1        0.1800
     13 C           0.0509    7.1810    0.7102 C.ar    1  LIG1        0.0962
     14 C          -1.0523    6.5544    0.1943 C.ar    1  LIG1        0.1912
     15 O          -0.7540    5.2770   -0.1254 O.2     1  LIG1       -0.4435
     16 O           2.3440    6.3747    1.1782 O.3     1  LIG1       -0.5024
     17 H           2.4367    7.3079    1.4258 H       1  LIG1        0.2923
     18 S           0.2278    8.7787    1.4301 S.3     1  LIG1       -0.1353
     19 H           0.0207    9.5101    0.3205 H       1  LIG1        0.1073
     20 C          -2.3728    7.0349   -0.1049 C.ar    1  LIG1        0.2142
     21 C          -2.8424    8.2366   -0.5529 C.ar    1  LIG1        0.1800
     22 C          -4.2558    8.1040   -0.7067 C.ar    1  LIG1        0.0962
     23 C          -4.5531    6.8203   -0.3343 C.ar    1  LIG1        0.1912
     24 O          -3.4297    6.1709    0.0362 O.2     1  LIG1       -0.4435
     25 O          -2.1101    9.3257   -0.8599 O.3     1  LIG1       -0.5024
     26 H          -2.7258   10.0279   -1.1223 H       1  LIG1        0.2923
     27 S          -5.2757    9.3536   -1.4140 S.3     1  LIG1       -0.1353
     28 H          -6.0416    9.6039   -0.3371 H       1  LIG1        0.1073
     29 C          -5.8054    6.1240   -0.2152 C.ar    1  LIG1        0.2131
     30 C          -7.0548    6.5216    0.1632 C.ar    1  LIG1        0.1792
     31 C          -7.8951    5.3639    0.0989 C.ar    1  LIG1        0.0849
     32 C          -7.0902    4.3477   -0.3136 C.ar    1  LIG1        0.1096
     33 O          -5.8361    4.7803   -0.5003 O.2     1  LIG1       -0.4549
     34 H          -7.2793    3.3033   -0.5062 H       1  LIG1        0.1042
     35 O          -7.4248    7.7524    0.5673 O.3     1  LIG1       -0.5024
     36 H          -8.3849    7.7405    0.7035 H       1  LIG1        0.2923
     37 S          -9.6255    5.3565    0.4362 S.3     1  LIG1       -0.1361
     38 H          -9.5627    5.0777    1.7524 H       1  LIG1        0.1073
@<TRIPOS>BOND
     1    27    22    1
     2    27    28    1
     3    26    25    1
     4     9     3    1
     5     9    10    1
     6    25    21    1
     7     8     7    1
     8    22    21   ar
     9    22    23   ar
    10     7     2    1
    11    21    20   ar
    12    34    32    1
    13    33    32   ar
    14    33    29   ar
    15     3     2   ar
    16     3     4   ar
    17     2     1   ar
    18    23    29    1
    19    23    24   ar
    20    32    31   ar
    21    29    30   ar
    22    15    14   ar
    23    15    11   ar
    24    20    24   ar
    25    20    14    1
    26     4    11    1
    27     4     5   ar
    28     1     6    1
    29     1     5   ar
    30    31    30   ar
    31    31    37    1
    32    30    35    1
    33    14    13   ar
    34    11    12   ar
    35    19    18    1
    36    37    38    1
    37    35    36    1
    38    12    13   ar
    39    12    16    1
    40    13    18    1
    41    16    17    1
