@<TRIPOS>MOLECULE
mol_data/opt/cam/geoms/mol2/12fg12fg.out
 20 21 0 0 0
SMALL
GASTEIGER

@<TRIPOS>ATOM
      1 C           0.2406    1.7884    0.4817 C.ar    1  LIG1        0.1352
      2 C           1.5400    1.8448    0.0970 C.ar    1  LIG1        0.1686
      3 C           1.8015    3.2048   -0.2726 C.ar    1  LIG1        0.0954
      4 C           0.6324    3.8815   -0.0635 C.ar    1  LIG1        0.1901
      5 O          -0.3154    3.0353    0.3988 O.2     1  LIG1       -0.4548
      6 H          -0.3988    0.9905    0.8170 H       1  LIG1        0.1068
      7 O           2.4177    0.8211    0.0477 O.3     1  LIG1       -0.5029
      8 H           3.2837    1.1884   -0.1831 H       1  LIG1        0.2923
      9 S           3.3272    3.7520   -0.9637 S.3     1  LIG1       -0.1354
     10 H           3.6348    4.6683   -0.0278 H       1  LIG1        0.1073
     11 C           0.3042    5.2791   -0.1751 C.ar    1  LIG1        0.2131
     12 C           1.0027    6.4172    0.1003 C.ar    1  LIG1        0.1792
     13 C           0.1450    7.5199   -0.2166 C.ar    1  LIG1        0.0849
     14 C          -1.0155    6.9670   -0.6601 C.ar    1  LIG1        0.1096
     15 O          -0.9421    5.6285   -0.6387 O.2     1  LIG1       -0.4549
     16 H          -1.9401    7.4000   -1.0082 H       1  LIG1        0.1042
     17 O           2.2474    6.4987    0.6160 O.3     1  LIG1       -0.5024
     18 H           2.5019    7.4343    0.6205 H       1  LIG1        0.2923
     19 S           0.5995    9.2191   -0.0957 S.3     1  LIG1       -0.1361
     20 H           0.2119    9.4325    1.1766 H       1  LIG1        0.1073
@<TRIPOS>BOND
     1    16    14    1
     2     9     3    1
     3     9    10    1
     4    14    15   ar
     5    14    13   ar
     6    15    11   ar
     7     3     4   ar
     8     3     2   ar
     9    13    19    1
    10    13    12   ar
    11     8     7    1
    12    11     4    1
    13    11    12   ar
    14    19    20    1
    15     4     5   ar
    16     7     2    1
    17     2     1   ar
    18    12    17    1
    19     5     1   ar
    20     1     6    1
    21    17    18    1
