@<TRIPOS>MOLECULE
mol_data/opt/cam/geoms/mol2/12fg12fg-12fg-12fg.out
 38 41 0 0 0
SMALL
GASTEIGER

@<TRIPOS>ATOM
      1 C           1.1283    1.9338    1.5873 C.ar    1  LIG1        0.1352
      2 C           2.1597    1.8819    0.7081 C.ar    1  LIG1        0.1686
      3 C           2.1139    3.0951   -0.0532 C.ar    1  LIG1        0.0954
      4 C           1.0573    3.8089    0.4413 C.ar    1  LIG1        0.1901
      5 O           0.4590    3.1165    1.4380 O.2     1  LIG1       -0.4548
      6 H           0.7576    1.2543    2.3349 H       1  LIG1        0.1068
      7 O           3.0484    0.8771    0.5558 O.3     1  LIG1       -0.5029
      8 H           3.7162    1.1726   -0.0806 H       1  LIG1        0.2923
      9 S           3.1782    3.4251   -1.4183 S.3     1  LIG1       -0.1354
     10 H           3.7100    4.5751   -0.9658 H       1  LIG1        0.1073
     11 C           0.5721    5.1292    0.1418 C.ar    1  LIG1        0.2141
     12 C           1.2073    6.2900   -0.1921 C.ar    1  LIG1        0.1800
     13 C           0.1980    7.2766   -0.4071 C.ar    1  LIG1        0.0962
     14 C          -0.9935    6.6534   -0.1490 C.ar    1  LIG1        0.1912
     15 O          -0.7794    5.3611    0.1856 O.2     1  LIG1       -0.4435
     16 O           2.5411    6.4826   -0.2824 O.3     1  LIG1       -0.5024
     17 H           2.6903    7.4272   -0.4431 H       1  LIG1        0.2923
     18 S           0.5436    8.9005   -0.9958 S.3     1  LIG1       -0.1353
     19 H           0.0044    9.5870    0.0277 H       1  LIG1        0.1073
     20 C          -2.3408    7.1500   -0.1032 C.ar    1  LIG1        0.2142
     21 C          -2.8720    8.3461    0.2860 C.ar    1  LIG1        0.1800
     22 C          -4.2833    8.2646    0.0862 C.ar    1  LIG1        0.0962
     23 C          -4.5212    6.9993   -0.3784 C.ar    1  LIG1        0.1912
     24 O          -3.3604    6.3184   -0.4923 O.2     1  LIG1       -0.4435
     25 O          -2.1998    9.4020    0.7898 O.3     1  LIG1       -0.5024
     26 H          -2.8540   10.0656    1.0588 H       1  LIG1        0.2923
     27 S          -5.3753    9.6258    0.3255 S.3     1  LIG1       -0.1353
     28 H          -6.1675    9.0636    1.2560 H       1  LIG1        0.1073
     29 C          -5.7454    6.3035   -0.6703 C.ar    1  LIG1        0.2131
     30 C          -6.9811    6.3215   -0.0924 C.ar    1  LIG1        0.1792
     31 C          -7.7946    5.3958   -0.8213 C.ar    1  LIG1        0.0849
     32 C          -6.9886    4.8822   -1.7893 C.ar    1  LIG1        0.1096
     33 O          -5.7585    5.4077   -1.7123 O.2     1  LIG1       -0.4549
     34 H          -7.1615    4.1583   -2.5701 H       1  LIG1        0.1042
     35 O          -7.3592    7.0344    0.9878 O.3     1  LIG1       -0.5024
     36 H          -8.3091    6.8882    1.1188 H       1  LIG1        0.2923
     37 S          -9.5022    5.0918   -0.5055 S.3     1  LIG1       -0.1361
     38 H          -9.3575    4.0766    0.3679 H       1  LIG1        0.1073
@<TRIPOS>BOND
     1    34    32    1
     2    32    33   ar
     3    32    31   ar
     4    33    29   ar
     5     9    10    1
     6     9     3    1
     7    18    13    1
     8    18    19    1
     9    31    37    1
    10    31    30   ar
    11    29    23    1
    12    29    30   ar
    13    37    38    1
    14    24    23   ar
    15    24    20   ar
    16    17    16    1
    17    13    12   ar
    18    13    14   ar
    19    23    22   ar
    20    16    12    1
    21    12    11   ar
    22    14    20    1
    23    14    15   ar
    24    20    21   ar
    25    30    35    1
    26     8     7    1
    27     3     4   ar
    28     3     2   ar
    29    22    21   ar
    30    22    27    1
    31    11    15   ar
    32    11     4    1
    33    21    25    1
    34    27    28    1
    35     4     5   ar
    36     7     2    1
    37     2     1   ar
    38    25    26    1
    39    35    36    1
    40     5     1   ar
    41     1     6    1
