@<TRIPOS>MOLECULE
mol_data/opt/cam/geoms/mol2/12fg12fg12fg12fg.out
 38 41 0 0 0
SMALL
GASTEIGER

@<TRIPOS>ATOM
      1 C           1.1249    1.9436    1.5986 C.ar    1  LIG1        0.1352
      2 C           2.1579    1.8859    0.7216 C.ar    1  LIG1        0.1686
      3 C           2.1136    3.0941   -0.0477 C.ar    1  LIG1        0.0954
      4 C           1.0563    3.8113    0.4404 C.ar    1  LIG1        0.1901
      5 O           0.4561    3.1254    1.4405 O.2     1  LIG1       -0.4548
      6 H           0.7528    1.2691    2.3500 H       1  LIG1        0.1068
      7 O           3.0466    0.8799    0.5773 O.3     1  LIG1       -0.5029
      8 H           3.7155    1.1711   -0.0598 H       1  LIG1        0.2923
      9 S           3.1803    3.4150   -1.4131 S.3     1  LIG1       -0.1354
     10 H           3.7115    4.5678   -0.9671 H       1  LIG1        0.1073
     11 C           0.5718    5.1296    0.1314 C.ar    1  LIG1        0.2141
     12 C           1.2079    6.2882   -0.2089 C.ar    1  LIG1        0.1800
     13 C           0.1991    7.2735   -0.4321 C.ar    1  LIG1        0.0962
     14 C          -0.9929    6.6523   -0.1719 C.ar    1  LIG1        0.1912
     15 O          -0.7797    5.3621    0.1714 O.2     1  LIG1       -0.4435
     16 O           2.5419    6.4799   -0.2982 O.3     1  LIG1       -0.5024
     17 H           2.6915    7.4234   -0.4647 H       1  LIG1        0.2923
     18 S           0.5461    8.8935   -1.0307 S.3     1  LIG1       -0.1353
     19 H           0.0052    9.5867   -0.0127 H       1  LIG1        0.1073
     20 C          -2.3402    7.1494   -0.1317 C.ar    1  LIG1        0.2142
     21 C          -2.8718    8.3481    0.2488 C.ar    1  LIG1        0.1800
     22 C          -4.2827    8.2656    0.0471 C.ar    1  LIG1        0.0962
     23 C          -4.5201    6.9974   -0.4097 C.ar    1  LIG1        0.1912
     24 O          -3.3593    6.3155   -0.5172 O.2     1  LIG1       -0.4435
     25 O          -2.2002    9.4072    0.7468 O.3     1  LIG1       -0.5024
     26 H          -2.8547   10.0726    1.0104 H       1  LIG1        0.2923
     27 S          -5.3749    9.6285    0.2756 S.3     1  LIG1       -0.1353
     28 H          -6.1689    9.0725    1.2085 H       1  LIG1        0.1073
     29 C          -5.7440    6.2998   -0.6991 C.ar    1  LIG1        0.2131
     30 C          -6.9807    6.3219   -0.1235 C.ar    1  LIG1        0.1792
     31 C          -7.7931    5.3916   -0.8477 C.ar    1  LIG1        0.0849
     32 C          -6.9856    4.8716   -1.8109 C.ar    1  LIG1        0.1096
     33 O          -5.7554    5.3973   -1.7353 O.2     1  LIG1       -0.4549
     34 H          -7.1573    4.1426   -2.5873 H       1  LIG1        0.1042
     35 O          -7.3605    7.0419    0.9514 O.3     1  LIG1       -0.5024
     36 H          -8.3106    6.8967    1.0817 H       1  LIG1        0.2923
     37 S          -9.5013    5.0900   -0.5328 S.3     1  LIG1       -0.1361
     38 H          -9.3583    4.0805    0.3474 H       1  LIG1        0.1073
@<TRIPOS>BOND
     1    34    32    1
     2    32    33   ar
     3    32    31   ar
     4    33    29   ar
     5     9    10    1
     6     9     3    1
     7    18    13    1
     8    18    19    1
     9    31    37    1
    10    31    30   ar
    11    29    23    1
    12    29    30   ar
    13    37    38    1
    14    24    23   ar
    15    24    20   ar
    16    17    16    1
    17    13    12   ar
    18    13    14   ar
    19    23    22   ar
    20    16    12    1
    21    12    11   ar
    22    14    20    1
    23    14    15   ar
    24    20    21   ar
    25    30    35    1
    26     8     7    1
    27     3     4   ar
    28     3     2   ar
    29    22    21   ar
    30    22    27    1
    31    11    15   ar
    32    11     4    1
    33    21    25    1
    34    27    28    1
    35     4     5   ar
    36     7     2    1
    37     2     1   ar
    38    25    26    1
    39    35    36    1
    40     5     1   ar
    41     1     6    1
