@<TRIPOS>MOLECULE
mol_data/opt/cam/geoms/mol2/12fg12fg-12fg-.out
 29 31 0 0 0
SMALL
GASTEIGER

@<TRIPOS>ATOM
      1 C           0.5470    1.7373   -0.9304 C.ar    1  LIG1        0.1352
      2 C           1.7309    1.7791   -0.2697 C.ar    1  LIG1        0.1686
      3 C           1.8663    3.1078    0.2497 C.ar    1  LIG1        0.0954
      4 C           0.7502    3.7852   -0.1573 C.ar    1  LIG1        0.1901
      5 O          -0.0507    2.9656   -0.8765 O.2     1  LIG1       -0.4548
      6 H           0.0190    0.9603   -1.4553 H       1  LIG1        0.1068
      7 O           2.6072    0.7654   -0.1079 O.3     1  LIG1       -0.5029
      8 H           3.3962    1.1269    0.3222 H       1  LIG1        0.2923
      9 S           3.1881    3.6100    1.3012 S.3     1  LIG1       -0.1354
     10 H           3.6435    4.6299    0.5512 H       1  LIG1        0.1073
     11 C           0.3663    5.1645   -0.0198 C.ar    1  LIG1        0.2141
     12 C           1.0823    6.3261   -0.0362 C.ar    1  LIG1        0.1800
     13 C           0.1590    7.3936    0.1824 C.ar    1  LIG1        0.0962
     14 C          -1.0730    6.8064    0.2802 C.ar    1  LIG1        0.1912
     15 O          -0.9610    5.4655    0.1563 O.2     1  LIG1       -0.4435
     16 O           2.4109    6.4516   -0.2429 O.3     1  LIG1       -0.5024
     17 H           2.6131    7.3990   -0.2847 H       1  LIG1        0.2923
     18 S           0.6474    9.0753    0.3737 S.3     1  LIG1       -0.1353
     19 H          -0.0450    9.5868   -0.6601 H       1  LIG1        0.1073
     20 C          -2.3913    7.3674    0.4079 C.ar    1  LIG1        0.2131
     21 C          -2.9720    8.4925   -0.0999 C.ar    1  LIG1        0.1792
     22 C          -4.3222    8.5152    0.3762 C.ar    1  LIG1        0.0849
     23 C          -4.4614    7.3974    1.1387 C.ar    1  LIG1        0.1096
     24 O          -3.3204    6.6954    1.1659 O.2     1  LIG1       -0.4549
     25 H          -5.2932    6.9982    1.6976 H       1  LIG1        0.1042
     26 O          -2.4056    9.3914   -0.9306 O.3     1  LIG1       -0.5024
     27 H          -3.0406   10.1131   -1.0592 H       1  LIG1        0.2923
     28 S          -5.4837    9.8008    0.0502 S.3     1  LIG1       -0.1361
     29 H          -6.0226    9.2918   -1.0744 H       1  LIG1        0.1073
@<TRIPOS>BOND
     1     6     1    1
     2    29    28    1
     3    27    26    1
     4    26    21    1
     5     1     5   ar
     6     1     2   ar
     7     5     4   ar
     8    19    18    1
     9    17    16    1
    10     2     7    1
    11     2     3   ar
    12    16    12    1
    13     4    11    1
    14     4     3   ar
    15     7     8    1
    16    21    22   ar
    17    21    20   ar
    18    12    11   ar
    19    12    13   ar
    20    11    15   ar
    21    28    22    1
    22    15    14   ar
    23    13    14   ar
    24    13    18    1
    25     3     9    1
    26    14    20    1
    27    22    23   ar
    28    20    24   ar
    29    10     9    1
    30    23    24   ar
    31    23    25    1
