@<TRIPOS>MOLECULE
mol_data/opt/cam/geoms/mol2/12fg12fg-12fg.out
 29 31 0 0 0
SMALL
GASTEIGER

@<TRIPOS>ATOM
      1 C           0.5445    1.7378    0.9379 C.ar    1  LIG1        0.1352
      2 C           1.7288    1.7784    0.2780 C.ar    1  LIG1        0.1686
      3 C           1.8651    3.1065   -0.2429 C.ar    1  LIG1        0.0954
      4 C           0.7490    3.7848    0.1626 C.ar    1  LIG1        0.1901
      5 O          -0.0527    2.9663    0.8823 O.2     1  LIG1       -0.4548
      6 H           0.0158    0.9615    1.4632 H       1  LIG1        0.1068
      7 O           2.6048    0.7642    0.1176 O.3     1  LIG1       -0.5029
      8 H           3.3945    1.1253   -0.3116 H       1  LIG1        0.2923
      9 S           3.1879    3.6071   -1.2939 S.3     1  LIG1       -0.1354
     10 H           3.6431    4.6274   -0.5444 H       1  LIG1        0.1073
     11 C           0.3659    5.1642    0.0234 C.ar    1  LIG1        0.2141
     12 C           1.0825    6.3253    0.0392 C.ar    1  LIG1        0.1800
     13 C           0.1600    7.3931   -0.1815 C.ar    1  LIG1        0.0962
     14 C          -1.0723    6.8064   -0.2798 C.ar    1  LIG1        0.1912
     15 O          -0.9611    5.4656   -0.1544 O.2     1  LIG1       -0.4435
     16 O           2.4108    6.4505    0.2471 O.3     1  LIG1       -0.5024
     17 H           2.6136    7.3978    0.2877 H       1  LIG1        0.2923
     18 S           0.6494    9.0743   -0.3740 S.3     1  LIG1       -0.1353
     19 H          -0.0433    9.5873    0.6589 H       1  LIG1        0.1073
     20 C          -2.3902    7.3679   -0.4096 C.ar    1  LIG1        0.2131
     21 C          -2.9710    8.4939    0.0961 C.ar    1  LIG1        0.1792
     22 C          -4.3208    8.5163   -0.3813 C.ar    1  LIG1        0.0849
     23 C          -4.4596    7.3974   -1.1423 C.ar    1  LIG1        0.1096
     24 O          -3.3188    6.6950   -1.1673 O.2     1  LIG1       -0.4549
     25 H          -5.2910    6.9976   -1.7014 H       1  LIG1        0.1042
     26 O          -2.4052    9.3940    0.9258 O.3     1  LIG1       -0.5024
     27 H          -3.0402   10.1159    1.0530 H       1  LIG1        0.2923
     28 S          -5.4821    9.8028   -0.0582 S.3     1  LIG1       -0.1361
     29 H          -6.0226    9.2953    1.0664 H       1  LIG1        0.1073
@<TRIPOS>BOND
     1    25    23    1
     2     9    10    1
     3     9     3    1
     4    24    23   ar
     5    24    20   ar
     6    23    22   ar
     7    20    14    1
     8    20    21   ar
     9    22    28    1
    10    22    21   ar
    11    18    13    1
    12    18    19    1
    13     8     7    1
    14    14    13   ar
    15    14    15   ar
    16     3     4   ar
    17     3     2   ar
    18    13    12   ar
    19    15    11   ar
    20    28    29    1
    21    11    12   ar
    22    11     4    1
    23    12    16    1
    24    21    26    1
    25     7     2    1
    26     4     5   ar
    27    16    17    1
    28     2     1   ar
    29     5     1   ar
    30    26    27    1
    31     1     6    1
