@<TRIPOS>MOLECULE
mol_data/opt/cam/geoms/mol2/12fg12fg12fg12fg-.out
 38 41 0 0 0
SMALL
GASTEIGER

@<TRIPOS>ATOM
      1 C           1.1264    1.9492    1.6070 C.ar    1  LIG1        0.1352
      2 C           2.1591    1.8892    0.7299 C.ar    1  LIG1        0.1686
      3 C           2.1144    3.0952   -0.0428 C.ar    1  LIG1        0.0954
      4 C           1.0569    3.8135    0.4435 C.ar    1  LIG1        0.1901
      5 O           0.4572    3.1303    1.4457 O.2     1  LIG1       -0.4548
      6 H           0.7547    1.2766    2.3604 H       1  LIG1        0.1068
      7 O           3.0480    0.8831    0.5882 O.3     1  LIG1       -0.5029
      8 H           3.7167    1.1727   -0.0499 H       1  LIG1        0.2923
      9 S           3.1805    3.4125   -1.4094 S.3     1  LIG1       -0.1354
     10 H           3.7115    4.5668   -0.9669 H       1  LIG1        0.1073
     11 C           0.5720    5.1309    0.1310 C.ar    1  LIG1        0.2141
     12 C           1.2077    6.2886   -0.2129 C.ar    1  LIG1        0.1800
     13 C           0.1986    7.2730   -0.4384 C.ar    1  LIG1        0.0962
     14 C          -0.9932    6.6522   -0.1762 C.ar    1  LIG1        0.1912
     15 O          -0.7795    5.3631    0.1707 O.2     1  LIG1       -0.4435
     16 O           2.5416    6.4804   -0.3030 O.3     1  LIG1       -0.5024
     17 H           2.6909    7.4235   -0.4722 H       1  LIG1        0.2923
     18 S           0.5450    8.8914   -1.0418 S.3     1  LIG1       -0.1353
     19 H           0.0041    9.5873   -0.0255 H       1  LIG1        0.1073
     20 C          -2.3406    7.1491   -0.1369 C.ar    1  LIG1        0.2142
     21 C          -2.8725    8.3487    0.2403 C.ar    1  LIG1        0.1800
     22 C          -4.2834    8.2653    0.0393 C.ar    1  LIG1        0.0962
     23 C          -4.5206    6.9957   -0.4138 C.ar    1  LIG1        0.1912
     24 O          -3.3596    6.3138   -0.5197 O.2     1  LIG1       -0.4435
     25 O          -2.2010    9.4094    0.7351 O.3     1  LIG1       -0.5024
     26 H          -2.8556   10.0754    0.9970 H       1  LIG1        0.2923
     27 S          -5.3759    9.6285    0.2643 S.3     1  LIG1       -0.1353
     28 H          -6.1694    9.0750    1.1989 H       1  LIG1        0.1073
     29 C          -5.7443    6.2970   -0.7009 C.ar    1  LIG1        0.2131
     30 C          -6.9808    6.3203   -0.1249 C.ar    1  LIG1        0.1792
     31 C          -7.7932    5.3878   -0.8462 C.ar    1  LIG1        0.0849
     32 C          -6.9859    4.8652   -1.8082 C.ar    1  LIG1        0.1096
     33 O          -5.7559    5.3915   -1.7344 O.2     1  LIG1       -0.4549
     34 H          -7.1576    4.1340   -2.5825 H       1  LIG1        0.1042
     35 O          -7.3606    7.0432    0.9480 O.3     1  LIG1       -0.5024
     36 H          -8.3106    6.8982    1.0791 H       1  LIG1        0.2923
     37 S          -9.5013    5.0865   -0.5300 S.3     1  LIG1       -0.1361
     38 H          -9.3577    4.0796    0.3531 H       1  LIG1        0.1073
@<TRIPOS>BOND
     1    34    32    1
     2    32    33   ar
     3    32    31   ar
     4    33    29   ar
     5     9    10    1
     6     9     3    1
     7    18    13    1
     8    18    19    1
     9    31    37    1
    10    31    30   ar
    11    29    23    1
    12    29    30   ar
    13    37    38    1
    14    24    23   ar
    15    24    20   ar
    16    17    16    1
    17    13    12   ar
    18    13    14   ar
    19    23    22   ar
    20    16    12    1
    21    12    11   ar
    22    14    20    1
    23    14    15   ar
    24    20    21   ar
    25    30    35    1
    26     8     7    1
    27     3     4   ar
    28     3     2   ar
    29    22    21   ar
    30    22    27    1
    31    11    15   ar
    32    11     4    1
    33    21    25    1
    34    27    28    1
    35     4     5   ar
    36     7     2    1
    37     2     1   ar
    38    25    26    1
    39    35    36    1
    40     5     1   ar
    41     1     6    1
