@<TRIPOS>MOLECULE
mol_data/opt/cam/geoms/mol2/12fg12fg12fg-12fg-.out
 38 41 0 0 0
SMALL
GASTEIGER

@<TRIPOS>ATOM
      1 C           1.1114    1.9379    1.5988 C.ar    1  LIG1        0.1352
      2 C           2.1524    1.8842    0.7311 C.ar    1  LIG1        0.1686
      3 C           2.1148    3.0956   -0.0335 C.ar    1  LIG1        0.0954
      4 C           1.0527    3.8104    0.4479 C.ar    1  LIG1        0.1901
      5 O           0.4436    3.1201    1.4395 O.2     1  LIG1       -0.4548
      6 H           0.7327    1.2600    2.3439 H       1  LIG1        0.1068
      7 O           3.0428    0.8792    0.5907 O.3     1  LIG1       -0.5029
      8 H           3.7175    1.1733   -0.0390 H       1  LIG1        0.2923
      9 S           3.1938    3.4227   -1.3876 S.3     1  LIG1       -0.1354
     10 H           3.7205    4.5738   -0.9319 H       1  LIG1        0.1073
     11 C           0.5706    5.1299    0.1400 C.ar    1  LIG1        0.2141
     12 C           1.2093    6.2901   -0.1895 C.ar    1  LIG1        0.1800
     13 C           0.2024    7.2760   -0.4178 C.ar    1  LIG1        0.0962
     14 C          -0.9918    6.6533   -0.1713 C.ar    1  LIG1        0.1912
     15 O          -0.7813    5.3618    0.1685 O.2     1  LIG1       -0.4435
     16 O           2.5441    6.4826   -0.2657 O.3     1  LIG1       -0.5024
     17 H           2.6948    7.4269   -0.4268 H       1  LIG1        0.2923
     18 S           0.5542    8.8986   -1.0063 S.3     1  LIG1       -0.1353
     19 H           0.0038    9.5873    0.0096 H       1  LIG1        0.1073
     20 C          -2.3396    7.1498   -0.1414 C.ar    1  LIG1        0.2142
     21 C          -2.8752    8.3467    0.2393 C.ar    1  LIG1        0.1800
     22 C          -4.2841    8.2646    0.0243 C.ar    1  LIG1        0.0962
     23 C          -4.5168    6.9982   -0.4401 C.ar    1  LIG1        0.1912
     24 O          -3.3548    6.3172   -0.5397 O.2     1  LIG1       -0.4435
     25 O          -2.2086    9.4038    0.7480 O.3     1  LIG1       -0.5024
     26 H          -2.8657   10.0679    1.0083 H       1  LIG1        0.2923
     27 S          -5.3789    9.6262    0.2485 S.3     1  LIG1       -0.1353
     28 H          -6.1812    9.0659    1.1716 H       1  LIG1        0.1073
     29 C          -5.7377    6.3015   -0.7438 C.ar    1  LIG1        0.2131
     30 C          -6.9796    6.3207   -0.1794 C.ar    1  LIG1        0.1792
     31 C          -7.7850    5.3933   -0.9151 C.ar    1  LIG1        0.0849
     32 C          -6.9685    4.8776   -1.8731 C.ar    1  LIG1        0.1096
     33 O          -5.7393    5.4034   -1.7838 O.2     1  LIG1       -0.4549
     34 H          -7.1327    4.1519   -2.6541 H       1  LIG1        0.1042
     35 O          -7.3696    7.0360    0.8949 O.3     1  LIG1       -0.5024
     36 H          -8.3208    6.8900    1.0159 H       1  LIG1        0.2923
     37 S          -9.4959    5.0897   -0.6173 S.3     1  LIG1       -0.1361
     38 H          -9.3607    4.0766    0.2599 H       1  LIG1        0.1073
@<TRIPOS>BOND
     1    34    32    1
     2    32    33   ar
     3    32    31   ar
     4    33    29   ar
     5     9    10    1
     6     9     3    1
     7    18    13    1
     8    18    19    1
     9    31    37    1
    10    31    30   ar
    11    29    23    1
    12    29    30   ar
    13    37    38    1
    14    24    23   ar
    15    24    20   ar
    16    23    22   ar
    17    17    16    1
    18    13    12   ar
    19    13    14   ar
    20    16    12    1
    21    12    11   ar
    22    30    35    1
    23    14    20    1
    24    14    15   ar
    25    20    21   ar
    26     8     7    1
    27     3     4   ar
    28     3     2   ar
    29    22    21   ar
    30    22    27    1
    31    11    15   ar
    32    11     4    1
    33    21    25    1
    34    27    28    1
    35     4     5   ar
    36     7     2    1
    37     2     1   ar
    38    25    26    1
    39    35    36    1
    40     5     1   ar
    41     1     6    1
