@<TRIPOS>MOLECULE
mol_data/opt/cam/geoms/mol2/12fg12fg-12fg12fg-.out
 38 41 0 0 0
SMALL
GASTEIGER

@<TRIPOS>ATOM
      1 C           1.1343    1.9422    1.6066 C.ar    1  LIG1        0.1352
      2 C           2.1618    1.8848    0.7232 C.ar    1  LIG1        0.1686
      3 C           2.1131    3.0936   -0.0451 C.ar    1  LIG1        0.0954
      4 C           1.0590    3.8107    0.4501 C.ar    1  LIG1        0.1901
      5 O           0.4648    3.1243    1.4534 O.2     1  LIG1       -0.4548
      6 H           0.7668    1.2672    2.3599 H       1  LIG1        0.1068
      7 O           3.0494    0.8788    0.5728 O.3     1  LIG1       -0.5029
      8 H           3.7142    1.1701   -0.0686 H       1  LIG1        0.2923
      9 S           3.1713    3.4152   -1.4168 S.3     1  LIG1       -0.1354
     10 H           3.7056    4.5676   -0.9734 H       1  LIG1        0.1073
     11 C           0.5727    5.1292    0.1447 C.ar    1  LIG1        0.2141
     12 C           1.2067    6.2879   -0.1987 C.ar    1  LIG1        0.1800
     13 C           0.1966    7.2734   -0.4152 C.ar    1  LIG1        0.0962
     14 C          -0.9938    6.6521   -0.1481 C.ar    1  LIG1        0.1912
     15 O          -0.7786    5.3617    0.1931 O.2     1  LIG1       -0.4435
     16 O           2.5401    6.4797   -0.2961 O.3     1  LIG1       -0.5024
     17 H           2.6887    7.4235   -0.4617 H       1  LIG1        0.2923
     18 S           0.5402    8.8937   -1.0150 S.3     1  LIG1       -0.1353
     19 H           0.0052    9.5865    0.0064 H       1  LIG1        0.1073
     20 C          -2.3408    7.1492   -0.0993 C.ar    1  LIG1        0.2142
     21 C          -2.8700    8.3478    0.2851 C.ar    1  LIG1        0.1800
     22 C          -4.2822    8.2656    0.0918 C.ar    1  LIG1        0.0962
     23 C          -4.5224    6.9976   -0.3643 C.ar    1  LIG1        0.1912
     24 O          -3.3624    6.3157   -0.4791 O.2     1  LIG1       -0.4435
     25 O          -2.1954    9.4066    0.7796 O.3     1  LIG1       -0.5024
     26 H          -2.8484   10.0716    1.0480 H       1  LIG1        0.2923
     27 S          -5.3727    9.6285    0.3280 S.3     1  LIG1       -0.1353
     28 H          -6.1611    9.0719    1.2652 H       1  LIG1        0.1073
     29 C          -5.7481    6.3004   -0.6468 C.ar    1  LIG1        0.2131
     30 C          -6.9813    6.3225   -0.0638 C.ar    1  LIG1        0.1792
     31 C          -7.7982    5.3927   -0.7836 C.ar    1  LIG1        0.0849
     32 C          -6.9965    4.8728   -1.7518 C.ar    1  LIG1        0.1096
     33 O          -5.7658    5.3983   -1.6832 O.2     1  LIG1       -0.4549
     34 H          -7.1731    4.1443   -2.5274 H       1  LIG1        0.1042
     35 O          -7.3546    7.0420    1.0137 O.3     1  LIG1       -0.5024
     36 H          -8.3041    6.8979    1.1491 H       1  LIG1        0.2923
     37 S          -9.5047    5.0914   -0.4591 S.3     1  LIG1       -0.1361
     38 H          -9.3569    4.0820    0.4204 H       1  LIG1        0.1073
@<TRIPOS>BOND
     1    34    32    1
     2    32    33   ar
     3    32    31   ar
     4    33    29   ar
     5     9    10    1
     6     9     3    1
     7    18    13    1
     8    18    19    1
     9    31    37    1
    10    31    30   ar
    11    29    23    1
    12    29    30   ar
    13    24    23   ar
    14    24    20   ar
    15    17    16    1
    16    37    38    1
    17    13    12   ar
    18    13    14   ar
    19    23    22   ar
    20    16    12    1
    21    12    11   ar
    22    14    20    1
    23    14    15   ar
    24    20    21   ar
    25     8     7    1
    26    30    35    1
    27     3     4   ar
    28     3     2   ar
    29    22    21   ar
    30    22    27    1
    31    11    15   ar
    32    11     4    1
    33    21    25    1
    34    27    28    1
    35     4     5   ar
    36     7     2    1
    37     2     1   ar
    38    25    26    1
    39    35    36    1
    40     5     1   ar
    41     1     6    1
