@<TRIPOS>MOLECULE
mol_data/opt/cam/geoms/mol2/12fg12fg12fg-.out
 29 31 0 0 0
SMALL
GASTEIGER

@<TRIPOS>ATOM
      1 C           0.5359    1.7346    0.9185 C.ar    1  LIG1        0.1352
      2 C           1.7270    1.7779    0.2711 C.ar    1  LIG1        0.1686
      3 C           1.8685    3.1080   -0.2433 C.ar    1  LIG1        0.0954
      4 C           0.7480    3.7845    0.1532 C.ar    1  LIG1        0.1901
      5 O          -0.0609    2.9632    0.8614 O.2     1  LIG1       -0.4548
      6 H           0.0020    0.9563    1.4355 H       1  LIG1        0.1068
      7 O           2.6049    0.7644    0.1162 O.3     1  LIG1       -0.5029
      8 H           3.3986    1.1269   -0.3043 H       1  LIG1        0.2923
      9 S           3.2018    3.6127   -1.2789 S.3     1  LIG1       -0.1354
     10 H           3.6491    4.6304   -0.5212 H       1  LIG1        0.1073
     11 C           0.3660    5.1643    0.0152 C.ar    1  LIG1        0.2141
     12 C           1.0819    6.3256    0.0427 C.ar    1  LIG1        0.1800
     13 C           0.1614    7.3939   -0.1833 C.ar    1  LIG1        0.0962
     14 C          -1.0697    6.8072   -0.2962 C.ar    1  LIG1        0.1912
     15 O          -0.9592    5.4660   -0.1746 O.2     1  LIG1       -0.4435
     16 O           2.4082    6.4503    0.2642 O.3     1  LIG1       -0.5024
     17 H           2.6102    7.3975    0.3109 H       1  LIG1        0.2923
     18 S           0.6521    9.0760   -0.3646 S.3     1  LIG1       -0.1353
     19 H          -0.0515    9.5849    0.6628 H       1  LIG1        0.1073
     20 C          -2.3864    7.3690   -0.4369 C.ar    1  LIG1        0.2131
     21 C          -2.9723    8.4928    0.0676 C.ar    1  LIG1        0.1792
     22 C          -4.3173    8.5171   -0.4233 C.ar    1  LIG1        0.0849
     23 C          -4.4483    7.4014   -1.1903 C.ar    1  LIG1        0.1096
     24 O          -3.3071    6.6992   -1.2068 O.2     1  LIG1       -0.4549
     25 H          -5.2740    7.0039   -1.7593 H       1  LIG1        0.1042
     26 O          -2.4150    9.3894    0.9068 O.3     1  LIG1       -0.5024
     27 H          -3.0511   10.1109    1.0304 H       1  LIG1        0.2923
     28 S          -5.4820    9.8021   -0.1066 S.3     1  LIG1       -0.1361
     29 H          -6.0334    9.2902    1.0106 H       1  LIG1        0.1073
@<TRIPOS>BOND
     1    25    23    1
     2     9    10    1
     3     9     3    1
     4    24    23   ar
     5    24    20   ar
     6    23    22   ar
     7    20    14    1
     8    20    21   ar
     9    22    28    1
    10    22    21   ar
    11    18    13    1
    12    18    19    1
    13     8     7    1
    14    14    13   ar
    15    14    15   ar
    16     3     4   ar
    17     3     2   ar
    18    13    12   ar
    19    15    11   ar
    20    28    29    1
    21    11    12   ar
    22    11     4    1
    23    12    16    1
    24    21    26    1
    25     7     2    1
    26     4     5   ar
    27    16    17    1
    28     2     1   ar
    29     5     1   ar
    30    26    27    1
    31     1     6    1
