@<TRIPOS>MOLECULE
mol_data/opt/cam/geoms/mol2/12fh12he4ha-12he.out
 46 49 0 0 0
SMALL
GASTEIGER

@<TRIPOS>ATOM
      1 C           0.6358    1.8634    0.9786 C.ar    1  LIG1        0.1359
      2 C           1.8523    1.8659    0.3809 C.ar    1  LIG1        0.1764
      3 C           2.0725    3.1854   -0.1247 C.ar    1  LIG1        0.1162
      4 C           0.9625    3.9071    0.2238 C.ar    1  LIG1        0.1958
      5 O           0.0831    3.1110    0.8816 O.2     1  LIG1       -0.4541
      6 H           0.0463    1.1122    1.4774 H       1  LIG1        0.1068
      7 O           2.7762    0.8821    0.2160 O.3     1  LIG1       -0.5024
      8 H           2.4846    0.0847    0.6719 H       1  LIG1        0.2923
      9 N           3.1986    3.6366   -0.8647 N.pl3   1  LIG1       -0.3521
     10 H           4.0223    3.1107   -0.5886 H       1  LIG1        0.1425
     11 H           3.0664    3.4791   -1.8605 H       1  LIG1        0.1425
     12 C           0.6141    5.2877    0.0367 C.ar    1  LIG1        0.1942
     13 C           1.3700    6.4040   -0.2001 C.ar    1  LIG1        0.0904
     14 C           0.4322    7.4932   -0.3045 C.ar    1  LIG1        0.0918
     15 C          -0.8243    6.9652   -0.0909 C.ar    1  LIG1        0.1548
     16 O          -0.7158    5.6367    0.1081 O.2     1  LIG1       -0.4484
     17 N           2.7361    6.5176   -0.2730 N.pl3   1  LIG1       -0.3540
     18 H           3.2154    5.6545   -0.5295 H       1  LIG1        0.1425
     19 H           3.0610    7.3511   -0.7407 H       1  LIG1        0.1425
     20 C           0.8035    8.8169   -0.6475 C.1     1  LIG1       -0.0640
     21 C           1.1679    9.9315   -0.9321 C.1     1  LIG1       -0.1137
     22 H           1.4758   10.9141   -1.2064 H       1  LIG1        0.1232
     23 C          -2.5512    8.7422    0.4505 C.ar    1  LIG1        0.0360
     24 C          -3.8962    9.1315    0.3960 C.ar    1  LIG1       -0.0296
     25 C          -2.1864    7.4924   -0.0986 C.ar    1  LIG1        0.0392
     26 C          -4.8810    8.3166   -0.1583 C.ar    1  LIG1        0.0209
     27 H          -4.1782   10.0698    0.8633 H       1  LIG1        0.0643
     28 C          -3.1958    6.6743   -0.6269 C.ar    1  LIG1       -0.0486
     29 C          -4.5178    7.0612   -0.6666 C.ar    1  LIG1       -0.0502
     30 H          -2.9084    5.7067   -1.0224 H       1  LIG1        0.0625
     31 N          -1.6552    9.5510    1.1222 N.pl3   1  LIG1       -0.3574
     32 H          -0.6876    9.5262    0.8406 H       1  LIG1        0.1423
     33 H          -1.9838   10.4841    1.3164 H       1  LIG1        0.1423
     34 H          -5.2715    6.4118   -1.0936 H       1  LIG1        0.0625
     35 C          -6.2614    8.7656   -0.2105 C.ar    1  LIG1        0.1566
     36 C          -6.8578    9.9947   -0.1349 C.ar    1  LIG1        0.0865
     37 C          -8.2744    9.7700   -0.2709 C.ar    1  LIG1        0.0836
     38 C          -8.4229    8.4239   -0.4252 C.ar    1  LIG1        0.1098
     39 O          -7.2344    7.8086   -0.4008 O.2     1  LIG1       -0.4598
     40 H          -9.2939    7.8024   -0.5591 H       1  LIG1        0.1043
     41 N          -6.2723   11.2422    0.0497 N.pl3   1  LIG1       -0.3541
     42 H          -5.3894   11.3526   -0.4318 H       1  LIG1        0.1425
     43 H          -6.9071   11.9999   -0.1681 H       1  LIG1        0.1425
     44 C          -9.2743   10.7775   -0.2634 C.1     1  LIG1       -0.0646
     45 C         -10.0847   11.6687   -0.2595 C.1     1  LIG1       -0.1138
     46 H         -10.8177   12.4421   -0.2502 H       1  LIG1        0.1232
@<TRIPOS>BOND
     1    11     9    1
     2    22    21    1
     3    34    29    1
     4    30    28    1
     5    21    20    3
     6     9    10    1
     7     9     3    1
     8    19    17    1
     9    29    28   ar
    10    29    26   ar
    11    20    14    1
    12    28    25   ar
    13    40    38    1
    14    18    17    1
    15    42    41    1
    16    38    39   ar
    17    38    37   ar
    18    39    35   ar
    19    14    13   ar
    20    14    15   ar
    21    17    13    1
    22    37    44    1
    23    37    36   ar
    24    44    45    3
    25    45    46    1
    26    35    26    1
    27    35    36   ar
    28    13    12   ar
    29    43    41    1
    30    26    24   ar
    31    36    41    1
    32     3     4   ar
    33     3     2   ar
    34    25    15    1
    35    25    23   ar
    36    15    16   ar
    37    12    16   ar
    38    12     4    1
    39     7     2    1
    40     7     8    1
    41     4     5   ar
    42     2     1   ar
    43    24    23   ar
    44    24    27    1
    45    23    31    1
    46    32    31    1
    47     5     1   ar
    48     1     6    1
    49    31    33    1
