@<TRIPOS>MOLECULE
mol_data/opt/cam/geoms/mol2/12fh12fe4id-4de.out
 49 52 0 0 0
SMALL
GASTEIGER

@<TRIPOS>ATOM
      1 C           0.6084    1.7380    0.8883 C.ar    1  LIG1        0.1359
      2 C           1.8389    1.7734    0.3205 C.ar    1  LIG1        0.1764
      3 C           2.0630    3.1150   -0.1194 C.ar    1  LIG1        0.1163
      4 C           0.9427    3.8135    0.2358 C.ar    1  LIG1        0.1976
      5 O           0.0562    2.9899    0.8492 O.2     1  LIG1       -0.4540
      6 H           0.0163    0.9616    1.3409 H       1  LIG1        0.1068
      7 O           2.7353    0.7762    0.1632 O.3     1  LIG1       -0.5024
      8 H           3.5552    1.2103   -0.1237 H       1  LIG1        0.2923
      9 N           3.2678    3.4879   -0.7562 N.pl3   1  LIG1       -0.3521
     10 H           3.2063    3.3790   -1.7643 H       1  LIG1        0.1425
     11 H           3.5150    4.4520   -0.5566 H       1  LIG1        0.1425
     12 C           0.5978    5.2050    0.1132 C.ar    1  LIG1        0.2149
     13 C           1.3410    6.3341   -0.0504 C.ar    1  LIG1        0.1822
     14 C           0.4322    7.4399   -0.1190 C.ar    1  LIG1        0.1125
     15 C          -0.8248    6.9036    0.0307 C.ar    1  LIG1        0.1551
     16 O          -0.7232    5.5601    0.1570 O.2     1  LIG1       -0.4466
     17 O           2.6919    6.4064   -0.1287 O.3     1  LIG1       -0.5023
     18 H           2.9423    7.3353   -0.2335 H       1  LIG1        0.2923
     19 C           0.8628    8.7647   -0.3830 C.1     1  LIG1       -0.0622
     20 C           1.3308    9.8498   -0.6206 C.1     1  LIG1       -0.1137
     21 H           1.7088   10.8216   -0.8441 H       1  LIG1        0.1232
     22 C          -2.5814    8.6080    0.6651 C.ar    1  LIG1       -0.0391
     23 C          -3.9055    9.0259    0.5402 C.ar    1  LIG1       -0.0492
     24 C          -2.1874    7.4389   -0.0101 C.ar    1  LIG1        0.0228
     25 C          -4.8546    8.3360   -0.2055 C.ar    1  LIG1        0.0010
     26 H          -4.2124    9.9209    1.0705 H       1  LIG1        0.0627
     27 C          -3.1330    6.7180   -0.7407 C.ar    1  LIG1       -0.0328
     28 C          -4.4504    7.1515   -0.8469 C.ar    1  LIG1        0.0602
     29 H          -2.8323    5.8086   -1.2466 H       1  LIG1        0.0638
     30 C          -1.6507    9.3954    1.5436 C.3     1  LIG1       -0.0390
     31 H          -2.2171    9.9830    2.2682 H       1  LIG1        0.0278
     32 H          -1.0393   10.0846    0.9563 H       1  LIG1        0.0278
     33 H          -0.9653    8.7414    2.0867 H       1  LIG1        0.0278
     34 N          -6.0665    5.7392   -2.3012 N.1     1  LIG1       -0.1908
     35 C          -5.3576    6.3802   -1.6497 C.1     1  LIG1        0.0998
     36 C          -6.5431   10.1485   -0.6958 C.ar    1  LIG1        0.0596
     37 C          -7.8649   10.6007   -0.7398 C.ar    1  LIG1       -0.0426
     38 C          -6.2522    8.8347   -0.2832 C.ar    1  LIG1        0.0019
     39 C          -8.9037    9.7647   -0.3766 C.ar    1  LIG1       -0.0451
     40 H          -8.0655   11.6139   -1.0679 H       1  LIG1        0.0631
     41 C          -7.3113    8.0064    0.0750 C.ar    1  LIG1       -0.0373
     42 C          -8.6344    8.4552    0.0352 C.ar    1  LIG1        0.0253
     43 H          -7.1124    6.9927    0.4007 H       1  LIG1        0.0636
     44 H          -9.9283   10.1154   -0.4102 H       1  LIG1        0.0630
     45 N          -4.6956   11.8116   -1.4319 N.1     1  LIG1       -0.1909
     46 C          -5.5051   11.0535   -1.1032 C.1     1  LIG1        0.0998
     47 C          -9.7005    7.5827    0.4202 C.1     1  LIG1       -0.0696
     48 C         -10.5986    6.8510    0.7453 C.1     1  LIG1       -0.1139
     49 H         -11.3917    6.1976    1.0290 H       1  LIG1        0.1232
@<TRIPOS>BOND
     1    34    35    3
     2    10     9    1
     3    35    28    1
     4    45    46    3
     5    29    27    1
     6    46    36    1
     7    40    37    1
     8    28    27   ar
     9    28    25   ar
    10    21    20    1
    11     9    11    1
    12     9     3    1
    13    27    24   ar
    14    37    36   ar
    15    37    39   ar
    16    36    38   ar
    17    20    19    3
    18    44    39    1
    19    19    14    1
    20    39    42   ar
    21    38    25    1
    22    38    41   ar
    23    18    17    1
    24    25    23   ar
    25    17    13    1
    26     8     7    1
    27     3     4   ar
    28     3     2   ar
    29    14    13   ar
    30    14    15   ar
    31    13    12   ar
    32    24    15    1
    33    24    22   ar
    34    15    16   ar
    35    42    41   ar
    36    42    47    1
    37    41    43    1
    38    12    16   ar
    39    12     4    1
    40     7     2    1
    41     4     5   ar
    42     2     1   ar
    43    47    48    3
    44    23    22   ar
    45    23    26    1
    46    22    30    1
    47    48    49    1
    48     5     1   ar
    49     1     6    1
    50    32    30    1
    51    30    33    1
    52    30    31    1
