@<TRIPOS>MOLECULE
mol_data/opt/cam/geoms/mol2/12fh6fh4ef-12ie.out
 49 52 0 0 0
SMALL
GASTEIGER

@<TRIPOS>ATOM
      1 C           0.7552    1.8002    1.4499 C.ar    1  LIG1        0.1358
      2 C           1.3936    1.5813    0.2778 C.ar    1  LIG1        0.1763
      3 C           1.5012    2.8437   -0.3944 C.ar    1  LIG1        0.1132
      4 C           0.9349    3.7669    0.4366 C.ar    1  LIG1        0.1642
      5 O           0.4662    3.1238    1.5662 O.2     1  LIG1       -0.4571
      6 H           0.4453    1.1537    2.2535 H       1  LIG1        0.1068
      7 O           1.7995    0.3846   -0.2384 O.3     1  LIG1       -0.5024
      8 H           2.7455    0.4381   -0.4277 H       1  LIG1        0.2923
      9 N           2.1084    2.9940   -1.6415 N.pl3   1  LIG1       -0.3522
     10 H           1.9626    2.1733   -2.2188 H       1  LIG1        0.1425
     11 H           1.8013    3.8220   -2.1366 H       1  LIG1        0.1425
     12 C          -0.3458    5.8778    0.9410 C.ar    1  LIG1        0.2240
     13 C           0.7375    5.2034    0.3328 C.ar    1  LIG1        0.0822
     14 C           1.6005    5.9806   -0.4314 C.ar    1  LIG1       -0.0231
     15 C           1.3917    7.3484   -0.6210 C.ar    1  LIG1        0.0519
     16 C           0.2783    7.9071    0.0286 C.ar    1  LIG1        0.0967
     17 N          -0.5491    7.1647    0.7750 N.ar    1  LIG1       -0.2105
     18 H           2.4724    5.5151   -0.8830 H       1  LIG1        0.0645
     19 O          -1.2546    5.2472    1.7174 O.3     1  LIG1       -0.4919
     20 H          -0.9584    4.3413    1.8849 H       1  LIG1        0.2938
     21 N           2.2103    8.0644   -1.4970 N.pl3   1  LIG1       -0.3563
     22 H           3.0580    7.5680   -1.7353 H       1  LIG1        0.1424
     23 H           2.4329    9.0019   -1.1922 H       1  LIG1        0.1424
     24 C           0.6732   10.4412    0.1318 C.ar    1  LIG1        0.0348
     25 C           0.1523   11.7292   -0.0466 C.ar    1  LIG1       -0.0315
     26 C          -0.1471    9.3280   -0.1249 C.ar    1  LIG1        0.0211
     27 C          -1.1590   11.9567   -0.4415 C.ar    1  LIG1        0.0601
     28 H           0.8012   12.5788    0.1306 H       1  LIG1        0.0638
     29 C          -1.4680    9.5551   -0.5023 C.ar    1  LIG1       -0.0091
     30 C          -1.9800   10.8353   -0.6567 C.ar    1  LIG1        0.1282
     31 H          -2.1137    8.6948   -0.6500 H       1  LIG1        0.0661
     32 C           2.0157   10.3170    0.6132 C.1     1  LIG1       -0.0690
     33 C           3.1525   10.2448    1.0072 C.1     1  LIG1       -0.1139
     34 H           4.1474   10.1753    1.3826 H       1  LIG1        0.1232
     35 O          -3.2712   11.0506   -1.0008 O.3     1  LIG1       -0.5060
     36 H          -3.7266   10.2027   -1.0688 H       1  LIG1        0.2922
     37 C          -1.6625   13.3249   -0.5805 C.ar    1  LIG1        0.1424
     38 C          -1.5414   14.4308    0.2055 C.ar    1  LIG1        0.0108
     39 C          -2.2423   15.4818   -0.4924 C.ar    1  LIG1        0.0658
     40 C          -2.7261   14.9198   -1.6342 C.ar    1  LIG1        0.1082
     41 O          -2.3856   13.6218   -1.7036 O.2     1  LIG1       -0.4613
     42 H          -3.3088   15.3140   -2.4513 H       1  LIG1        0.1042
     43 C          -0.8681   14.5692    1.5312 C.3     1  LIG1       -0.0349
     44 H          -1.4916   15.1483    2.2172 H       1  LIG1        0.0279
     45 H           0.0870   15.0975    1.4439 H       1  LIG1        0.0279
     46 H          -0.6741   13.5940    1.9811 H       1  LIG1        0.0279
     47 C          -2.4038   16.8263   -0.0603 C.1     1  LIG1       -0.0662
     48 C          -2.5305   17.9602    0.3241 C.1     1  LIG1       -0.1138
     49 H          -2.6469   18.9652    0.6580 H       1  LIG1        0.1232
@<TRIPOS>BOND
     1    42    40    1
     2    10     9    1
     3    11     9    1
     4    22    21    1
     5    41    40   ar
     6    41    37   ar
     7     9     3    1
     8    40    39   ar
     9    21    23    1
    10    21    15    1
    11    36    35    1
    12    35    30    1
    13    18    14    1
    14    30    29   ar
    15    30    27   ar
    16    31    29    1
    17    15    14   ar
    18    15    16   ar
    19    37    27    1
    20    37    38   ar
    21    29    26   ar
    22    39    47    1
    23    39    38   ar
    24    27    25   ar
    25    14    13   ar
    26     8     7    1
    27     3     2   ar
    28     3     4   ar
    29     7     2    1
    30    26    16    1
    31    26    24   ar
    32    47    48    3
    33    25    28    1
    34    25    24   ar
    35    16    17   ar
    36    24    32    1
    37    38    43    1
    38     2     1   ar
    39    48    49    1
    40    13     4    1
    41    13    12   ar
    42     4     5   ar
    43    32    33    3
    44    17    12   ar
    45    12    19    1
    46    33    34    1
    47    45    43    1
    48     1     5   ar
    49     1     6    1
    50    43    46    1
    51    43    44    1
    52    19    20    1
