@<TRIPOS>MOLECULE
mol_data/opt/cam/geoms/mol2/12fh4ef13if6da-.out
 47 50 0 0 0
SMALL
GASTEIGER

@<TRIPOS>ATOM
      1 C           0.3561    1.6386   -0.4642 C.ar    1  LIG1        0.1358
      2 C           1.6385    1.6051   -0.0358 C.ar    1  LIG1        0.1763
      3 C           2.0804    2.9628    0.1040 C.ar    1  LIG1        0.1131
      4 C           1.0112    3.7433   -0.2611 C.ar    1  LIG1        0.1603
      5 O          -0.0456    2.9188   -0.6029 O.2     1  LIG1       -0.4572
      6 H          -0.3508    0.8668   -0.7223 H       1  LIG1        0.1068
      7 O           2.4287    0.5097    0.1873 O.3     1  LIG1       -0.5024
      8 H           2.6092    0.4527    1.1348 H       1  LIG1        0.2923
      9 N           3.3235    3.2677    0.6328 N.pl3   1  LIG1       -0.3522
     10 H           3.9905    2.5289    0.4446 H       1  LIG1        0.1425
     11 H           3.6886    4.1689    0.3515 H       1  LIG1        0.1425
     12 C           1.6202    6.1926   -0.4968 C.ar    1  LIG1        0.0362
     13 C           1.2170    7.5289   -0.3945 C.ar    1  LIG1       -0.0330
     14 C           0.6929    5.1631   -0.2355 C.ar    1  LIG1        0.0380
     15 C          -0.0795    7.9110   -0.0649 C.ar    1  LIG1        0.0413
     16 H           1.9495    8.2904   -0.6229 H       1  LIG1        0.0638
     17 C          -0.6228    5.5387    0.0560 C.ar    1  LIG1       -0.0076
     18 C          -1.0062    6.8649    0.1299 C.ar    1  LIG1        0.1267
     19 H          -1.3577    4.7621    0.2399 H       1  LIG1        0.0662
     20 C           2.9496    5.9402   -0.9596 C.1     1  LIG1       -0.0689
     21 C           4.0742    5.7793   -1.3648 C.1     1  LIG1       -0.1139
     22 H           5.0525    5.6375   -1.7631 H       1  LIG1        0.1232
     23 O          -2.2894    7.2144    0.4100 O.3     1  LIG1       -0.5061
     24 H          -2.8580    6.4413    0.5015 H       1  LIG1        0.2922
     25 C          -0.4469    9.3255    0.0460 C.ar    1  LIG1        0.0570
     26 C           0.3501   10.4474    0.2796 C.ar    1  LIG1        0.0170
     27 C          -0.5236   11.5486    0.2813 C.ar    1  LIG1        0.1456
     28 C          -1.8269   11.1135    0.0515 C.ar    1  LIG1        0.0919
     29 N          -1.7397    9.7481   -0.0748 N.ar    1  LIG1       -0.3509
     30 H          -2.5116    9.1016   -0.1526 H       1  LIG1        0.1660
     31 C           1.8183   10.5507    0.5457 C.3     1  LIG1       -0.0342
     32 H           2.0284   11.5054    1.0322 H       1  LIG1        0.0279
     33 H           2.4161   10.5217   -0.3720 H       1  LIG1        0.0279
     34 H           2.1719    9.7468    1.1966 H       1  LIG1        0.0279
     35 O          -0.0957   12.8371    0.4839 O.3     1  LIG1       -0.5044
     36 H          -0.6274   13.2378    1.1826 H       1  LIG1        0.2922
     37 C          -4.3593   11.3925    0.0787 C.ar    1  LIG1        0.1492
     38 C          -3.0475   11.8927   -0.0688 C.ar    1  LIG1        0.0377
     39 C          -2.9658   13.2666   -0.3669 C.ar    1  LIG1       -0.0484
     40 C          -4.1094   14.0293   -0.4763 C.ar    1  LIG1       -0.0429
     41 C          -5.3496   13.4179   -0.2981 C.ar    1  LIG1        0.0291
     42 N          -5.4720   12.1272   -0.0342 N.ar    1  LIG1       -0.2440
     43 H          -1.9914   13.7086   -0.5349 H       1  LIG1        0.0625
     44 H          -6.2725   13.9857   -0.3768 H       1  LIG1        0.0830
     45 N          -4.8217    8.8830    0.5833 N.1     1  LIG1       -0.1893
     46 C          -4.6150   10.0007    0.3673 C.1     1  LIG1        0.1198
     47 H          -4.0489   15.0860   -0.7125 H       1  LIG1        0.0633
@<TRIPOS>BOND
     1    22    21    1
     2    21    20    3
     3    20    12    1
     4     6     1    1
     5    47    40    1
     6    16    13    1
     7     5     1   ar
     8     5     4   ar
     9    43    39    1
    10    12    13   ar
    11    12    14   ar
    12    40    39   ar
    13    40    41   ar
    14     1     2   ar
    15    13    15   ar
    16    44    41    1
    17    33    31    1
    18    39    38   ar
    19    41    42   ar
    20     4    14    1
    21     4     3   ar
    22    14    17   ar
    23    30    29    1
    24    29    25   ar
    25    29    28   ar
    26    38    28    1
    27    38    37   ar
    28    15    25    1
    29    15    18   ar
    30     2     3   ar
    31     2     7    1
    32    42    37   ar
    33    25    26   ar
    34    28    27   ar
    35    17    18   ar
    36    17    19    1
    37    37    46    1
    38     3     9    1
    39    18    23    1
    40     7     8    1
    41    26    27   ar
    42    26    31    1
    43    27    35    1
    44    11     9    1
    45    46    45    3
    46    23    24    1
    47    10     9    1
    48    35    36    1
    49    31    32    1
    50    31    34    1
