@<TRIPOS>MOLECULE
mol_data/opt/cam/geoms/mol2/12fi.out
 13 13 0 0 0
SMALL
GASTEIGER

@<TRIPOS>ATOM
      1 C           0.1038    1.8488   -0.0193 C.ar    1  LIG1        0.1332
      2 C           1.4589    1.8561   -0.0553 C.ar    1  LIG1        0.1573
      3 C           1.8810    3.2273    0.0215 C.ar    1  LIG1        0.0287
      4 C           0.7283    3.9392    0.0983 C.ar    1  LIG1        0.0982
      5 O          -0.3535    3.1311    0.0755 O.2     1  LIG1       -0.4670
      6 H          -0.6323    1.0640   -0.0499 H       1  LIG1        0.1067
      7 H           0.5325    4.9979    0.1716 H       1  LIG1        0.1033
      8 O           2.2523    0.7554   -0.1474 O.3     1  LIG1       -0.5034
      9 H           3.1739    1.0354   -0.1538 H       1  LIG1        0.2923
     10 C           3.2898    3.7269    0.0156 C.3     1  LIG1       -0.0332
     11 H           3.3176    4.8160    0.0848 H       1  LIG1        0.0280
     12 H           3.8172    3.4466   -0.9031 H       1  LIG1        0.0280
     13 H           3.8647    3.3332    0.8614 H       1  LIG1        0.0280
@<TRIPOS>BOND
     1    12    10    1
     2     9     8    1
     3     8     2    1
     4     2     1   ar
     5     2     3   ar
     6     6     1    1
     7     1     5   ar
     8    10     3    1
     9    10    11    1
    10    10    13    1
    11     3     4   ar
    12     5     4   ar
    13     4     7    1
