@<TRIPOS>MOLECULE
mol_data/opt/cam/geoms/mol2/12fi12fi12fi.out
 35 37 0 0 0
SMALL
GASTEIGER

@<TRIPOS>ATOM
      1 C           0.4038    1.6768    0.5031 C.ar    1  LIG1        0.1343
      2 C           1.6596    1.7440   -0.0014 C.ar    1  LIG1        0.1581
      3 C           1.9642    3.1259   -0.2273 C.ar    1  LIG1        0.0399
      4 C           0.8465    3.8027    0.1785 C.ar    1  LIG1        0.1799
      5 O          -0.1018    2.9370    0.6207 O.2     1  LIG1       -0.4557
      6 H          -0.2318    0.8620    0.8043 H       1  LIG1        0.1068
      7 O           2.4691    0.6816   -0.2565 O.3     1  LIG1       -0.5034
      8 H           3.3056    1.0101   -0.6041 H       1  LIG1        0.2923
      9 C           3.2319    3.6354   -0.8342 C.3     1  LIG1       -0.0325
     10 H           3.2975    4.7205   -0.7684 H       1  LIG1        0.0280
     11 H           3.3129    3.3503   -1.8898 H       1  LIG1        0.0280
     12 H           4.1098    3.2315   -0.3151 H       1  LIG1        0.0280
     13 C           0.4969    5.2022    0.2324 C.ar    1  LIG1        0.2124
     14 C           1.2048    6.3592    0.3824 C.ar    1  LIG1        0.1694
     15 C           0.2820    7.4487    0.3898 C.ar    1  LIG1        0.0407
     16 C          -0.9478    6.8675    0.2418 C.ar    1  LIG1        0.1809
     17 O          -0.8300    5.5200    0.1406 O.2     1  LIG1       -0.4444
     18 O           2.5555    6.4465    0.5226 O.3     1  LIG1       -0.5029
     19 H           2.7907    7.3669    0.6870 H       1  LIG1        0.2923
     20 C           0.6532    8.8820    0.5963 C.3     1  LIG1       -0.0325
     21 H          -0.1942    9.5422    0.4177 H       1  LIG1        0.0280
     22 H           1.4478    9.1879   -0.0949 H       1  LIG1        0.0280
     23 H           1.0143    9.0590    1.6163 H       1  LIG1        0.0280
     24 C          -2.2916    7.3889    0.1663 C.ar    1  LIG1        0.2114
     25 C          -2.8367    8.5656   -0.2608 C.ar    1  LIG1        0.1687
     26 C          -4.2560    8.4755   -0.0959 C.ar    1  LIG1        0.0295
     27 C          -4.4649    7.2343    0.4118 C.ar    1  LIG1        0.0993
     28 O          -3.3050    6.5684    0.5818 O.2     1  LIG1       -0.4557
     29 H          -5.3628    6.7062    0.6934 H       1  LIG1        0.1033
     30 O          -2.1385    9.6241   -0.7559 O.3     1  LIG1       -0.5030
     31 H          -2.7602   10.2846   -1.0819 H       1  LIG1        0.2923
     32 C          -5.2586    9.5310   -0.4340 C.3     1  LIG1       -0.0332
     33 H          -6.2713    9.1911   -0.2095 H       1  LIG1        0.0280
     34 H          -5.2344    9.7911   -1.4984 H       1  LIG1        0.0280
     35 H          -5.0888   10.4502    0.1374 H       1  LIG1        0.0280
@<TRIPOS>BOND
     1    11     9    1
     2    34    32    1
     3    31    30    1
     4     9    10    1
     5     9    12    1
     6     9     3    1
     7    30    25    1
     8     8     7    1
     9    32    33    1
    10    32    26    1
    11    32    35    1
    12    25    26   ar
    13    25    24   ar
    14     7     2    1
    15     3     2   ar
    16     3     4   ar
    17    26    27   ar
    18    22    20    1
    19     2     1   ar
    20    17    13   ar
    21    17    16   ar
    22    24    16    1
    23    24    28   ar
    24     4    13    1
    25     4     5   ar
    26    13    14   ar
    27    16    15   ar
    28    14    15   ar
    29    14    18    1
    30    15    20    1
    31    27    28   ar
    32    27    29    1
    33    21    20    1
    34     1     5   ar
    35     1     6    1
    36    18    19    1
    37    20    23    1
