@<TRIPOS>MOLECULE
mol_data/opt/cam/geoms/mol2/12fi12fi-12fi-12fi-.out
 46 49 0 0 0
SMALL
GASTEIGER

@<TRIPOS>ATOM
      1 C          -0.4570    1.7447   -0.2998 C.ar    1  LIG1        0.1343
      2 C           0.8445    1.5470   -0.6154 C.ar    1  LIG1        0.1581
      3 C           1.5140    2.8169   -0.5675 C.ar    1  LIG1        0.0399
      4 C           0.5454    3.7107   -0.2182 C.ar    1  LIG1        0.1799
      5 O          -0.6547    3.0814   -0.0518 O.2     1  LIG1       -0.4557
      6 H          -1.3109    1.0964   -0.2127 H       1  LIG1        0.1068
      7 O           1.4050    0.3508   -0.9224 O.3     1  LIG1       -0.5034
      8 H           2.3428    0.4836   -1.1013 H       1  LIG1        0.2923
      9 C           2.9637    3.0535   -0.8454 C.3     1  LIG1       -0.0325
     10 H           3.2170    4.1059   -0.7213 H       1  LIG1        0.0280
     11 H           3.2287    2.7665   -1.8698 H       1  LIG1        0.0280
     12 H           3.6015    2.4786   -0.1639 H       1  LIG1        0.0280
     13 C           0.4989    5.1266    0.0114 C.ar    1  LIG1        0.2124
     14 C          -0.5371    5.9301    0.3972 C.ar    1  LIG1        0.1694
     15 C          -0.0267    7.2569    0.5215 C.ar    1  LIG1        0.0407
     16 C           1.2956    7.1663    0.1783 C.ar    1  LIG1        0.1809
     17 O           1.6268    5.8807   -0.1362 O.2     1  LIG1       -0.4444
     18 O          -1.8181    5.5949    0.6596 O.3     1  LIG1       -0.5029
     19 H          -1.9090    4.6384    0.5355 H       1  LIG1        0.2923
     20 C          -0.7983    8.4417    1.0049 C.3     1  LIG1       -0.0325
     21 H          -1.3327    8.1936    1.9257 H       1  LIG1        0.0280
     22 H          -1.5571    8.7579    0.2810 H       1  LIG1        0.0280
     23 H          -0.1408    9.2887    1.2091 H       1  LIG1        0.0280
     24 C           2.3260    8.1642    0.0543 C.ar    1  LIG1        0.2125
     25 C           2.2993    9.4412   -0.4278 C.ar    1  LIG1        0.1694
     26 C           3.6050    9.9946   -0.2743 C.ar    1  LIG1        0.0407
     27 C           4.3541    8.9839    0.2664 C.ar    1  LIG1        0.1809
     28 O           3.5982    7.8720    0.4679 O.2     1  LIG1       -0.4444
     29 O           1.2667   10.1353   -0.9649 O.3     1  LIG1       -0.5029
     30 H           0.5191    9.5371   -1.0927 H       1  LIG1        0.2923
     31 C           4.0024   11.3980   -0.5999 C.3     1  LIG1       -0.0325
     32 H           3.3186   12.1076   -0.1265 H       1  LIG1        0.0280
     33 H           3.9589   11.5939   -1.6766 H       1  LIG1        0.0280
     34 H           5.0134   11.6150   -0.2509 H       1  LIG1        0.0280
     35 C           5.7579    8.9077    0.5876 C.ar    1  LIG1        0.2114
     36 C           6.8637    9.3564   -0.0749 C.ar    1  LIG1        0.1687
     37 C           8.0106    9.0155    0.7078 C.ar    1  LIG1        0.0295
     38 C           7.5037    8.3670    1.7872 C.ar    1  LIG1        0.0993
     39 O           6.1550    8.2866    1.7422 O.2     1  LIG1       -0.4557
     40 H           7.9754    7.9146    2.6460 H       1  LIG1        0.1033
     41 O           6.9477    9.9960   -1.2675 O.3     1  LIG1       -0.5030
     42 H           6.0809    9.9760   -1.6935 H       1  LIG1        0.2923
     43 C           9.4341    9.3082    0.3670 C.3     1  LIG1       -0.0332
     44 H           9.6122   10.3853    0.3003 H       1  LIG1        0.0280
     45 H           9.7030    8.8771   -0.6014 H       1  LIG1        0.0280
     46 H          10.1096    8.8989    1.1211 H       1  LIG1        0.0280
@<TRIPOS>BOND
     1    11     9    1
     2    42    41    1
     3    33    31    1
     4    41    36    1
     5     8     7    1
     6    30    29    1
     7    29    25    1
     8     7     2    1
     9     9    10    1
    10     9     3    1
    11     9    12    1
    12     2     3   ar
    13     2     1   ar
    14    45    43    1
    15    31    26    1
    16    31    34    1
    17    31    32    1
    18     3     4   ar
    19    25    26   ar
    20    25    24   ar
    21     1     6    1
    22     1     5   ar
    23    26    27   ar
    24     4     5   ar
    25     4    13    1
    26    17    13   ar
    27    17    16   ar
    28    36    35   ar
    29    36    37   ar
    30    13    14   ar
    31    24    16    1
    32    24    28   ar
    33    16    15   ar
    34    27    28   ar
    35    27    35    1
    36    22    20    1
    37    44    43    1
    38    43    37    1
    39    43    46    1
    40    14    15   ar
    41    14    18    1
    42    15    20    1
    43    19    18    1
    44    35    39   ar
    45    37    38   ar
    46    20    23    1
    47    20    21    1
    48    39    38   ar
    49    38    40    1
