@<TRIPOS>MOLECULE
mol_data/opt/cam/geoms/mol2/12fi12fi-12fi12fi-.out
 46 49 0 0 0
SMALL
GASTEIGER

@<TRIPOS>ATOM
      1 C          -0.0223    1.7888   -0.0833 C.ar    1  LIG1        0.1343
      2 C           1.3269    1.6870   -0.1219 C.ar    1  LIG1        0.1581
      3 C           1.8781    3.0132   -0.0977 C.ar    1  LIG1        0.0399
      4 C           0.7948    3.8406   -0.0457 C.ar    1  LIG1        0.1799
      5 O          -0.3643    3.1197   -0.0359 O.2     1  LIG1       -0.4557
      6 H          -0.8260    1.0740   -0.0829 H       1  LIG1        0.1068
      7 O           2.0263    0.5252   -0.1732 O.3     1  LIG1       -0.5034
      8 H           2.9672    0.7327   -0.1989 H       1  LIG1        0.2923
      9 C           3.3331    3.3578   -0.1252 C.3     1  LIG1       -0.0325
     10 H           3.4843    4.4360   -0.0681 H       1  LIG1        0.0280
     11 H           3.8114    3.0050   -1.0468 H       1  LIG1        0.0280
     12 H           3.8668    2.9040    0.7186 H       1  LIG1        0.0280
     13 C           0.6041    5.2596    0.0014 C.ar    1  LIG1        0.2124
     14 C          -0.5351    6.0135    0.0634 C.ar    1  LIG1        0.1694
     15 C          -0.1483    7.3849    0.1019 C.ar    1  LIG1        0.0407
     16 C           1.2219    7.3637    0.0551 C.ar    1  LIG1        0.1809
     17 O           1.6892    6.0896   -0.0059 O.2     1  LIG1       -0.4444
     18 O          -1.8187    5.5958    0.0940 O.3     1  LIG1       -0.5029
     19 H          -1.8185    4.6274    0.0705 H       1  LIG1        0.2923
     20 C          -1.0863    8.5467    0.1820 C.3     1  LIG1       -0.0325
     21 H          -2.0923    8.1909    0.4110 H       1  LIG1        0.0280
     22 H          -1.1419    9.0933   -0.7656 H       1  LIG1        0.0280
     23 H          -0.7925    9.2507    0.9653 H       1  LIG1        0.0280
     24 C           2.2181    8.3919    0.0589 C.ar    1  LIG1        0.2125
     25 C           3.5836    8.3919    0.0891 C.ar    1  LIG1        0.1694
     26 C           4.0325    9.7501    0.0790 C.ar    1  LIG1        0.0407
     27 C           2.8938   10.5025    0.0439 C.ar    1  LIG1        0.1809
     28 O           1.7895    9.6996    0.0301 O.2     1  LIG1       -0.4444
     29 O           4.3634    7.2846    0.1239 O.3     1  LIG1       -0.5029
     30 H           5.2879    7.5569    0.1532 H       1  LIG1        0.2923
     31 C           5.4583   10.1981    0.1022 C.3     1  LIG1       -0.0325
     32 H           5.5221   11.2853    0.0751 H       1  LIG1        0.0280
     33 H           6.0147    9.8117   -0.7597 H       1  LIG1        0.0280
     34 H           5.9720    9.8597    1.0095 H       1  LIG1        0.0280
     35 C           2.5921   11.9033    0.0129 C.ar    1  LIG1        0.2114
     36 C           1.3910   12.5532   -0.0611 C.ar    1  LIG1        0.1687
     37 C           1.6648   13.9576   -0.0601 C.ar    1  LIG1        0.0295
     38 C           3.0161   14.0482    0.0139 C.ar    1  LIG1        0.0993
     39 O           3.6020   12.8243    0.0592 O.2     1  LIG1       -0.4557
     40 H           3.6871   14.8924    0.0422 H       1  LIG1        0.1033
     41 O           0.1458   12.0376   -0.1286 O.3     1  LIG1       -0.5030
     42 H           0.2126   11.0715   -0.1338 H       1  LIG1        0.2923
     43 C           0.6505   15.0503   -0.1283 C.3     1  LIG1       -0.0332
     44 H          -0.0410   14.9972    0.7172 H       1  LIG1        0.0280
     45 H           0.0510   14.9722   -1.0395 H       1  LIG1        0.0280
     46 H           1.1282   16.0321   -0.1172 H       1  LIG1        0.0280
@<TRIPOS>BOND
     1    11     9    1
     2    45    43    1
     3    22    20    1
     4    33    31    1
     5     8     7    1
     6     7     2    1
     7    42    41    1
     8    41    36    1
     9    43    46    1
    10    43    37    1
    11    43    44    1
    12     9     3    1
    13     9    10    1
    14     9    12    1
    15     2     3   ar
    16     2     1   ar
    17     3     4   ar
    18     1     6    1
    19     1     5   ar
    20    36    37   ar
    21    36    35   ar
    22    37    38   ar
    23     4     5   ar
    24     4    13    1
    25    17    13   ar
    26    17    16   ar
    27    13    14   ar
    28    35    27    1
    29    35    39   ar
    30    38    40    1
    31    38    39   ar
    32    28    27   ar
    33    28    24   ar
    34    27    26   ar
    35    16    24    1
    36    16    15   ar
    37    24    25   ar
    38    14    18    1
    39    14    15   ar
    40    19    18    1
    41    32    31    1
    42    26    25   ar
    43    26    31    1
    44    25    29    1
    45    15    20    1
    46    31    34    1
    47    29    30    1
    48    20    21    1
    49    20    23    1
