@<TRIPOS>MOLECULE
mol_data/opt/cam/geoms/mol2/12fi12fi12fi12fi.out
 46 49 0 0 0
SMALL
GASTEIGER

@<TRIPOS>ATOM
      1 C           0.7463    1.9156   -1.5114 C.ar    1  LIG1        0.1343
      2 C           1.9044    1.8479   -0.8111 C.ar    1  LIG1        0.1581
      3 C           2.1049    3.1180   -0.1787 C.ar    1  LIG1        0.0399
      4 C           1.0330    3.8759   -0.5643 C.ar    1  LIG1        0.1799
      5 O           0.2067    3.1588   -1.3692 O.2     1  LIG1       -0.4557
      6 H           0.2032    1.2101   -2.1162 H       1  LIG1        0.1068
      7 O           2.7137    0.7586   -0.7199 O.3     1  LIG1       -0.5034
      8 H           3.4724    0.9867   -0.1713 H       1  LIG1        0.2923
      9 C           3.2373    3.4481    0.7397 C.3     1  LIG1       -0.0325
     10 H           3.2557    4.5092    0.9839 H       1  LIG1        0.0280
     11 H           4.2040    3.2111    0.2784 H       1  LIG1        0.0280
     12 H           3.1709    2.8816    1.6760 H       1  LIG1        0.0280
     13 C           0.6342    5.2379   -0.3017 C.ar    1  LIG1        0.2124
     14 C           1.3063    6.3931   -0.0252 C.ar    1  LIG1        0.1694
     15 C           0.3480    7.4377    0.1414 C.ar    1  LIG1        0.0407
     16 C          -0.8643    6.8399   -0.0762 C.ar    1  LIG1        0.1809
     17 O          -0.7038    5.5183   -0.3374 O.2     1  LIG1       -0.4444
     18 O           2.6576    6.5155    0.0820 O.3     1  LIG1       -0.5029
     19 H           2.8737    7.4475    0.2015 H       1  LIG1        0.2923
     20 C           0.6769    8.8476    0.5136 C.3     1  LIG1       -0.0325
     21 H          -0.2000    9.4901    0.4513 H       1  LIG1        0.0280
     22 H           1.4289    9.2728   -0.1627 H       1  LIG1        0.0280
     23 H           1.0765    8.9079    1.5325 H       1  LIG1        0.0280
     24 C          -2.2220    7.3247   -0.0876 C.ar    1  LIG1        0.2125
     25 C          -2.8049    8.5293   -0.3590 C.ar    1  LIG1        0.1694
     26 C          -4.2164    8.3860   -0.2033 C.ar    1  LIG1        0.0407
     27 C          -4.4004    7.0722    0.1329 C.ar    1  LIG1        0.1809
     28 O          -3.2101    6.4277    0.2109 O.2     1  LIG1       -0.4444
     29 O          -2.1445    9.6664   -0.7071 O.3     1  LIG1       -0.5029
     30 H          -2.7928   10.3440   -0.9309 H       1  LIG1        0.2923
     31 C          -5.2105    9.4919   -0.3562 C.3     1  LIG1       -0.0325
     32 H          -6.2318    9.1157   -0.3246 H       1  LIG1        0.0280
     33 H          -5.0924   10.0029   -1.3198 H       1  LIG1        0.0280
     34 H          -5.0957   10.2434    0.4333 H       1  LIG1        0.0280
     35 C          -5.5690    6.2707    0.4059 C.ar    1  LIG1        0.2114
     36 C          -6.8704    6.3097   -0.0053 C.ar    1  LIG1        0.1687
     37 C          -7.5556    5.2123    0.6073 C.ar    1  LIG1        0.0295
     38 C          -6.6046    4.5797    1.3407 C.ar    1  LIG1        0.0993
     39 O          -5.4109    5.1979    1.2408 O.2     1  LIG1       -0.4557
     40 H          -6.6349    3.7011    1.9663 H       1  LIG1        0.1033
     41 O          -7.4031    7.2348   -0.8494 O.3     1  LIG1       -0.5030
     42 H          -8.2965    6.9635   -1.0887 H       1  LIG1        0.2923
     43 C          -8.9985    4.8611    0.4398 C.3     1  LIG1       -0.0332
     44 H          -9.2505    3.9674    1.0135 H       1  LIG1        0.0280
     45 H          -9.2487    4.6525   -0.6068 H       1  LIG1        0.0280
     46 H          -9.6552    5.6672    0.7848 H       1  LIG1        0.0280
@<TRIPOS>BOND
     1     6     1    1
     2     1     5   ar
     3     1     2   ar
     4     5     4   ar
     5    33    31    1
     6    42    41    1
     7    30    29    1
     8    41    36    1
     9     2     7    1
    10     2     3   ar
    11     7     8    1
    12    29    25    1
    13    45    43    1
    14     4    13    1
    15     4     3   ar
    16    25    26   ar
    17    25    24   ar
    18    31    32    1
    19    31    26    1
    20    31    34    1
    21    17    13   ar
    22    17    16   ar
    23    13    14   ar
    24    26    27   ar
    25     3     9    1
    26    22    20    1
    27    24    16    1
    28    24    28   ar
    29    16    15   ar
    30    14    18    1
    31    14    15   ar
    32    36    35   ar
    33    36    37   ar
    34    18    19    1
    35    27    28   ar
    36    27    35    1
    37    15    20    1
    38    11     9    1
    39    35    39   ar
    40    43    37    1
    41    43    46    1
    42    43    44    1
    43    21    20    1
    44    20    23    1
    45    37    38   ar
    46     9    10    1
    47     9    12    1
    48    39    38   ar
    49    38    40    1
