@<TRIPOS>MOLECULE
mol_data/opt/cam/geoms/mol2/12fi12fi-12fi-12fi.out
 46 49 0 0 0
SMALL
GASTEIGER

@<TRIPOS>ATOM
      1 C          -0.3924    1.7472   -0.1920 C.ar    1  LIG1        0.1343
      2 C           0.8970    1.5699   -0.5639 C.ar    1  LIG1        0.1581
      3 C           1.5433    2.8527   -0.5649 C.ar    1  LIG1        0.0399
      4 C           0.5735    3.7335   -0.1860 C.ar    1  LIG1        0.1799
      5 O          -0.6050    3.0841    0.0448 O.2     1  LIG1       -0.4557
      6 H          -1.2284    1.0841   -0.0558 H       1  LIG1        0.1068
      7 O           1.4687    0.3793   -0.8747 O.3     1  LIG1       -0.5034
      8 H           2.3865    0.5332   -1.1256 H       1  LIG1        0.2923
      9 C           2.9749    3.1130   -0.9085 C.3     1  LIG1       -0.0325
     10 H           3.2298    4.1609   -0.7513 H       1  LIG1        0.0280
     11 H           3.1892    2.8734   -1.9568 H       1  LIG1        0.0280
     12 H           3.6493    2.5126   -0.2864 H       1  LIG1        0.0280
     13 C           0.5131    5.1509    0.0250 C.ar    1  LIG1        0.2124
     14 C          -0.5089    5.9434    0.4664 C.ar    1  LIG1        0.1694
     15 C          -0.0134    7.2792    0.5450 C.ar    1  LIG1        0.0407
     16 C           1.2865    7.2047    0.1181 C.ar    1  LIG1        0.1809
     17 O           1.6170    5.9215   -0.2027 O.2     1  LIG1       -0.4444
     18 O          -1.7647    5.5896    0.8146 O.3     1  LIG1       -0.5029
     19 H          -1.8468    4.6308    0.7028 H       1  LIG1        0.2923
     20 C          -0.7704    8.4567    1.0682 C.3     1  LIG1       -0.0325
     21 H          -1.2670    8.1986    2.0072 H       1  LIG1        0.0280
     22 H          -1.5587    8.7782    0.3785 H       1  LIG1        0.0280
     23 H          -0.1081    9.3045    1.2531 H       1  LIG1        0.0280
     24 C           2.2933    8.2119   -0.0794 C.ar    1  LIG1        0.2125
     25 C           2.2280    9.4967   -0.5392 C.ar    1  LIG1        0.1694
     26 C           3.5460   10.0382   -0.5374 C.ar    1  LIG1        0.0407
     27 C           4.3372    9.0163   -0.0821 C.ar    1  LIG1        0.1809
     28 O           3.6009    7.9115    0.1970 O.2     1  LIG1       -0.4444
     29 O           1.1497   10.1966   -0.9702 O.3     1  LIG1       -0.5029
     30 H           0.4051    9.5905   -1.0745 H       1  LIG1        0.2923
     31 C           3.9072   11.4198   -0.9759 C.3     1  LIG1       -0.0325
     32 H           3.6529   12.1591   -0.2093 H       1  LIG1        0.0280
     33 H           3.3486   11.6868   -1.8768 H       1  LIG1        0.0280
     34 H           4.9732   11.5046   -1.1825 H       1  LIG1        0.0280
     35 C           5.7522    8.8944    0.1455 C.ar    1  LIG1        0.2114
     36 C           6.5569    7.8557    0.5224 C.ar    1  LIG1        0.1687
     37 C           7.8997    8.3534    0.5854 C.ar    1  LIG1        0.0295
     38 C           7.8062    9.6613    0.2396 C.ar    1  LIG1        0.0993
     39 O           6.5277   10.0095   -0.0283 O.2     1  LIG1       -0.4557
     40 H           8.5423   10.4442    0.1453 H       1  LIG1        0.1033
     41 O           6.1436    6.5906    0.7765 O.3     1  LIG1       -0.5030
     42 H           6.9014    6.0681    1.0626 H       1  LIG1        0.2923
     43 C           9.1161    7.5685    0.9561 C.3     1  LIG1       -0.0332
     44 H          10.0100    8.1940    0.9213 H       1  LIG1        0.0280
     45 H           9.2795    6.7280    0.2726 H       1  LIG1        0.0280
     46 H           9.0432    7.1626    1.9713 H       1  LIG1        0.0280
@<TRIPOS>BOND
     1    11     9    1
     2    33    31    1
     3    34    31    1
     4     8     7    1
     5    30    29    1
     6    31    26    1
     7    31    32    1
     8    29    25    1
     9     9    10    1
    10     9     3    1
    11     9    12    1
    12     7     2    1
    13     3     2   ar
    14     3     4   ar
    15     2     1   ar
    16    25    26   ar
    17    25    24   ar
    18    26    27   ar
    19    17    13   ar
    20    17    16   ar
    21     1     6    1
    22     1     5   ar
    23     4    13    1
    24     4     5   ar
    25    27    35    1
    26    27    28   ar
    27    24    16    1
    28    24    28   ar
    29    39    35   ar
    30    39    38   ar
    31    13    14   ar
    32    16    15   ar
    33    40    38    1
    34    35    36   ar
    35    38    37   ar
    36    45    43    1
    37    22    20    1
    38    14    15   ar
    39    14    18    1
    40    36    37   ar
    41    36    41    1
    42    15    20    1
    43    37    43    1
    44    19    18    1
    45    41    42    1
    46    44    43    1
    47    43    46    1
    48    20    23    1
    49    20    21    1
