@<TRIPOS>MOLECULE
mol_data/opt/cam/geoms/mol2/12fi12fi12fi12fi-.out
 46 49 0 0 0
SMALL
GASTEIGER

@<TRIPOS>ATOM
      1 C           0.1881    1.7402   -0.3674 C.ar    1  LIG1        0.1343
      2 C           1.4912    1.7447    0.0039 C.ar    1  LIG1        0.1581
      3 C           1.8931    3.1105    0.1693 C.ar    1  LIG1        0.0399
      4 C           0.7781    3.8435   -0.1331 C.ar    1  LIG1        0.1799
      5 O          -0.2574    3.0259   -0.4580 O.2     1  LIG1       -0.4557
      6 H          -0.5191    0.9587   -0.5852 H       1  LIG1        0.1068
      7 O           2.2644    0.6431    0.1947 O.3     1  LIG1       -0.5034
      8 H           3.1447    0.9288    0.4632 H       1  LIG1        0.2923
      9 C           3.2440    3.5538    0.6313 C.3     1  LIG1       -0.0325
     10 H           3.3612    4.6331    0.5448 H       1  LIG1        0.0280
     11 H           4.0381    3.0966    0.0284 H       1  LIG1        0.0280
     12 H           3.4208    3.2737    1.6765 H       1  LIG1        0.0280
     13 C           0.4922    5.2566   -0.1788 C.ar    1  LIG1        0.2124
     14 C           1.2291    6.3877   -0.3776 C.ar    1  LIG1        0.1694
     15 C           0.3487    7.5118   -0.3418 C.ar    1  LIG1        0.0407
     16 C          -0.8933    6.9774   -0.1226 C.ar    1  LIG1        0.1809
     17 O          -0.8165    5.6257   -0.0183 O.2     1  LIG1       -0.4444
     18 O           2.5711    6.4285   -0.5936 O.3     1  LIG1       -0.5029
     19 H           2.8302    7.3416   -0.7633 H       1  LIG1        0.2923
     20 C           0.7747    8.9273   -0.5654 C.3     1  LIG1       -0.0325
     21 H          -0.0537    9.6196   -0.4244 H       1  LIG1        0.0280
     22 H           1.1626    9.0708   -1.5812 H       1  LIG1        0.0280
     23 H           1.5661    9.2185    0.1359 H       1  LIG1        0.0280
     24 C          -2.2246    7.5076    0.0130 C.ar    1  LIG1        0.2125
     25 C          -2.7965    8.7311    0.2173 C.ar    1  LIG1        0.1694
     26 C          -4.2163    8.5672    0.2735 C.ar    1  LIG1        0.0407
     27 C          -4.4231    7.2278    0.1068 C.ar    1  LIG1        0.1809
     28 O          -3.2385    6.5804   -0.0541 O.2     1  LIG1       -0.4444
     29 O          -2.1234    9.9031    0.3541 O.3     1  LIG1       -0.5029
     30 H          -2.7586   10.6118    0.5086 H       1  LIG1        0.2923
     31 C          -5.2175    9.6566    0.4864 C.3     1  LIG1       -0.0325
     32 H          -6.2293    9.2519    0.4861 H       1  LIG1        0.0280
     33 H          -5.1652   10.4145   -0.3041 H       1  LIG1        0.0280
     34 H          -5.0662   10.1642    1.4464 H       1  LIG1        0.0280
     35 C          -5.5562    6.3532    0.0643 C.ar    1  LIG1        0.2114
     36 C          -5.6143    4.9939   -0.0841 C.ar    1  LIG1        0.1687
     37 C          -6.9976    4.6252   -0.0558 C.ar    1  LIG1        0.0295
     38 C          -7.6677    5.7928    0.1086 C.ar    1  LIG1        0.0993
     39 O          -6.8236    6.8536    0.1844 O.2     1  LIG1       -0.4557
     40 H          -8.7190    6.0218    0.1870 H       1  LIG1        0.1033
     41 O          -4.6155    4.1036   -0.2318 O.3     1  LIG1       -0.5030
     42 H          -3.7643    4.5684   -0.2165 H       1  LIG1        0.2923
     43 C          -7.5373    3.2397   -0.1832 C.3     1  LIG1       -0.0332
     44 H          -7.1512    2.5945    0.6108 H       1  LIG1        0.0280
     45 H          -7.2407    2.7899   -1.1348 H       1  LIG1        0.0280
     46 H          -8.6278    3.2347   -0.1279 H       1  LIG1        0.0280
@<TRIPOS>BOND
     1    22    20    1
     2    45    43    1
     3    19    18    1
     4    18    14    1
     5     6     1    1
     6    20    21    1
     7    20    15    1
     8    20    23    1
     9     5     1   ar
    10     5     4   ar
    11    14    15   ar
    12    14    13   ar
    13     1     2   ar
    14    15    16   ar
    15    33    31    1
    16    41    42    1
    17    41    36    1
    18    43    46    1
    19    43    37    1
    20    43    44    1
    21    13     4    1
    22    13    17   ar
    23     4     3   ar
    24    16    17   ar
    25    16    24    1
    26    36    37   ar
    27    36    35   ar
    28    37    38   ar
    29    28    24   ar
    30    28    27   ar
    31     2     3   ar
    32     2     7    1
    33    24    25   ar
    34    11     9    1
    35    35    27    1
    36    35    39   ar
    37    27    26   ar
    38    38    39   ar
    39    38    40    1
    40     3     9    1
    41     7     8    1
    42    25    26   ar
    43    25    29    1
    44    26    31    1
    45    29    30    1
    46    32    31    1
    47    31    34    1
    48    10     9    1
    49     9    12    1
