@<TRIPOS>MOLECULE
mol_data/opt/cam/geoms/mol2/12fi12fi12fi-12fi.out
 46 49 0 0 0
SMALL
GASTEIGER

@<TRIPOS>ATOM
      1 C           0.1643    1.7642   -0.4961 C.ar    1  LIG1        0.1343
      2 C           1.4714    1.7087   -0.1455 C.ar    1  LIG1        0.1581
      3 C           1.9254    3.0515    0.0707 C.ar    1  LIG1        0.0399
      4 C           0.8337    3.8361   -0.1838 C.ar    1  LIG1        0.1799
      5 O          -0.2362    3.0692   -0.5259 O.2     1  LIG1       -0.4557
      6 H          -0.5732    1.0181   -0.7360 H       1  LIG1        0.1068
      7 O           2.2075    0.5744   -0.0127 O.3     1  LIG1       -0.5034
      8 H           3.1035    0.8172    0.2461 H       1  LIG1        0.2923
      9 C           3.3003    3.4219    0.5258 C.3     1  LIG1       -0.0325
     10 H           3.4468    4.5009    0.5175 H       1  LIG1        0.0280
     11 H           4.0651    2.9883   -0.1301 H       1  LIG1        0.0280
     12 H           3.4944    3.0604    1.5426 H       1  LIG1        0.0280
     13 C           0.5842    5.2554   -0.1671 C.ar    1  LIG1        0.2124
     14 C           1.3375    6.3910   -0.2432 C.ar    1  LIG1        0.1694
     15 C           0.4664    7.5244   -0.1883 C.ar    1  LIG1        0.0407
     16 C          -0.7892    6.9958   -0.0938 C.ar    1  LIG1        0.1809
     17 O          -0.7363    5.6356   -0.0735 O.2     1  LIG1       -0.4444
     18 O           2.6906    6.4312   -0.3633 O.3     1  LIG1       -0.5029
     19 H           2.9675    7.3519   -0.4371 H       1  LIG1        0.2923
     20 C           0.8854    8.9587   -0.2462 C.3     1  LIG1       -0.0325
     21 H           0.0206    9.6212   -0.1958 H       1  LIG1        0.0280
     22 H           1.4193    9.1841   -1.1775 H       1  LIG1        0.0280
     23 H           1.5489    9.2170    0.5878 H       1  LIG1        0.0280
     24 C          -2.1157    7.5217   -0.0189 C.ar    1  LIG1        0.2125
     25 C          -3.3265    6.8871    0.0362 C.ar    1  LIG1        0.1694
     26 C          -4.3388    7.8911    0.0921 C.ar    1  LIG1        0.0407
     27 C          -3.6575    9.0794    0.0653 C.ar    1  LIG1        0.1809
     28 O          -2.3143    8.8723   -0.0015 O.2     1  LIG1       -0.4444
     29 O          -3.5897    5.5651    0.0371 O.3     1  LIG1       -0.5029
     30 H          -2.7508    5.0819   -0.0190 H       1  LIG1        0.2923
     31 C          -5.8060    7.6208    0.1606 C.3     1  LIG1       -0.0325
     32 H          -6.0533    7.0563    1.0648 H       1  LIG1        0.0280
     33 H          -6.1248    7.0124   -0.6908 H       1  LIG1        0.0280
     34 H          -6.3808    8.5454    0.1623 H       1  LIG1        0.0280
     35 C          -4.0536   10.4610    0.0905 C.ar    1  LIG1        0.2114
     36 C          -3.3504   11.6323    0.0423 C.ar    1  LIG1        0.1687
     37 C          -4.2977   12.7058    0.1032 C.ar    1  LIG1        0.0295
     38 C          -5.5086   12.1008    0.1838 C.ar    1  LIG1        0.0993
     39 O          -5.3869   10.7538    0.1783 O.2     1  LIG1       -0.4557
     40 H          -6.5136   12.4872    0.2496 H       1  LIG1        0.1033
     41 O          -1.9999   11.7408   -0.0475 O.3     1  LIG1       -0.5030
     42 H          -1.7654   12.6753   -0.0724 H       1  LIG1        0.2923
     43 C          -3.9819   14.1663    0.0801 C.3     1  LIG1       -0.0332
     44 H          -4.8935   14.7636    0.1398 H       1  LIG1        0.0280
     45 H          -3.4643   14.4548   -0.8416 H       1  LIG1        0.0280
     46 H          -3.3467   14.4572    0.9241 H       1  LIG1        0.0280
@<TRIPOS>BOND
     1    22    20    1
     2    45    43    1
     3     6     1    1
     4    33    31    1
     5     5     1   ar
     6     5     4   ar
     7     1     2   ar
     8    19    18    1
     9    18    14    1
    10    20    21    1
    11    20    15    1
    12    20    23    1
    13    14    15   ar
    14    14    13   ar
    15    15    16   ar
    16     4    13    1
    17     4     3   ar
    18    13    17   ar
    19     2     7    1
    20     2     3   ar
    21    11     9    1
    22    16    17   ar
    23    16    24    1
    24    42    41    1
    25    41    36    1
    26    30    29    1
    27    24    28   ar
    28    24    25   ar
    29     7     8    1
    30    28    27   ar
    31    25    29    1
    32    25    26   ar
    33    36    35   ar
    34    36    37   ar
    35    27    35    1
    36    27    26   ar
    37     3     9    1
    38    43    37    1
    39    43    44    1
    40    43    46    1
    41    35    39   ar
    42    26    31    1
    43    37    38   ar
    44    31    34    1
    45    31    32    1
    46    39    38   ar
    47    38    40    1
    48    10     9    1
    49     9    12    1
