@<TRIPOS>MOLECULE
mol_data/opt/cam/geoms/mol2/12fi12fi-12fi12fi.out
 46 49 0 0 0
SMALL
GASTEIGER

@<TRIPOS>ATOM
      1 C           0.0796    1.7119   -0.1792 C.ar    1  LIG1        0.1343
      2 C           1.4321    1.6592   -0.1598 C.ar    1  LIG1        0.1581
      3 C           1.9332    3.0040   -0.1055 C.ar    1  LIG1        0.0399
      4 C           0.8193    3.7918   -0.0963 C.ar    1  LIG1        0.1799
      5 O          -0.3121    3.0292   -0.1404 O.2     1  LIG1       -0.4557
      6 H          -0.6968    0.9685   -0.2170 H       1  LIG1        0.1068
      7 O           2.1755    0.5236   -0.1865 O.3     1  LIG1       -0.5034
      8 H           3.1080    0.7663   -0.1661 H       1  LIG1        0.2923
      9 C           3.3745    3.4014   -0.0682 C.3     1  LIG1       -0.0325
     10 H           3.4834    4.4849   -0.0126 H       1  LIG1        0.0280
     11 H           3.9076    3.0611   -0.9642 H       1  LIG1        0.0280
     12 H           3.8850    2.9725    0.8027 H       1  LIG1        0.0280
     13 C           0.5771    5.2030   -0.0508 C.ar    1  LIG1        0.2124
     14 C          -0.5884    5.9171   -0.0366 C.ar    1  LIG1        0.1694
     15 C          -0.2515    7.3020    0.0185 C.ar    1  LIG1        0.0407
     16 C           1.1186    7.3280    0.0329 C.ar    1  LIG1        0.1809
     17 O           1.6324    6.0685   -0.0089 O.2     1  LIG1       -0.4444
     18 O          -1.8582    5.4573   -0.0643 O.3     1  LIG1       -0.5029
     19 H          -1.8243    4.4899   -0.0968 H       1  LIG1        0.2923
     20 C          -1.2364    8.4247    0.0538 C.3     1  LIG1       -0.0325
     21 H          -1.9408    8.2897    0.8798 H       1  LIG1        0.0280
     22 H          -1.8277    8.4514   -0.8669 H       1  LIG1        0.0280
     23 H          -0.7396    9.3865    0.1722 H       1  LIG1        0.0280
     24 C           2.0927    8.3807    0.0828 C.ar    1  LIG1        0.2125
     25 C           3.4582    8.3937    0.1408 C.ar    1  LIG1        0.1694
     26 C           3.8821    9.7572    0.1927 C.ar    1  LIG1        0.0407
     27 C           2.7283   10.4917    0.1491 C.ar    1  LIG1        0.1809
     28 O           1.6463    9.6714    0.0813 O.2     1  LIG1       -0.4444
     29 O           4.2586    7.2982    0.1625 O.3     1  LIG1       -0.5029
     30 H           5.1760    7.5895    0.2171 H       1  LIG1        0.2923
     31 C           5.3037   10.2005    0.3238 C.3     1  LIG1       -0.0325
     32 H           5.3964   11.2801    0.2166 H       1  LIG1        0.0280
     33 H           5.9322    9.7465   -0.4519 H       1  LIG1        0.0280
     34 H           5.7207    9.9162    1.2969 H       1  LIG1        0.0280
     35 C           2.4318   11.9030    0.1555 C.ar    1  LIG1        0.2114
     36 C           3.1087   13.0299   -0.2151 C.ar    1  LIG1        0.1687
     37 C           2.2528   14.1525    0.0233 C.ar    1  LIG1        0.0295
     38 C           1.1071   13.6150    0.5130 C.ar    1  LIG1        0.0993
     39 O           1.1921   12.2718    0.6054 O.2     1  LIG1       -0.4557
     40 H           0.1750   14.0562    0.8303 H       1  LIG1        0.1033
     41 O           4.3700   13.0610   -0.7243 O.3     1  LIG1       -0.5030
     42 H           4.5794   13.9635   -0.9902 H       1  LIG1        0.2923
     43 C           2.5782   15.5877   -0.2373 C.3     1  LIG1       -0.0332
     44 H           1.7401   16.2320    0.0344 H       1  LIG1        0.0280
     45 H           2.7959   15.7707   -1.2957 H       1  LIG1        0.0280
     46 H           3.4459   15.9191    0.3437 H       1  LIG1        0.0280
@<TRIPOS>BOND
     1    45    43    1
     2    42    41    1
     3    11     9    1
     4    22    20    1
     5    41    36    1
     6    33    31    1
     7    43    37    1
     8    43    44    1
     9    43    46    1
    10     6     1    1
    11    36    37   ar
    12    36    35   ar
    13     7     8    1
    14     7     2    1
    15     1     2   ar
    16     1     5   ar
    17     2     3   ar
    18     5     4   ar
    19     3     4   ar
    20     3     9    1
    21    19    18    1
    22     4    13    1
    23     9    10    1
    24     9    12    1
    25    18    14    1
    26    13    14   ar
    27    13    17   ar
    28    14    15   ar
    29    17    16   ar
    30    15    16   ar
    31    15    20    1
    32    37    38   ar
    33    16    24    1
    34    20    23    1
    35    20    21    1
    36    28    24   ar
    37    28    27   ar
    38    24    25   ar
    39    25    29    1
    40    25    26   ar
    41    27    35    1
    42    27    26   ar
    43    35    39   ar
    44    29    30    1
    45    26    31    1
    46    32    31    1
    47    31    34    1
    48    38    39   ar
    49    38    40    1
