@<TRIPOS>MOLECULE
mol_data/opt/cam/geoms/mol2/12fi12fi.out
 24 25 0 0 0
SMALL
GASTEIGER

@<TRIPOS>ATOM
      1 C           0.1808    1.7682   -0.3418 C.ar    1  LIG1        0.1343
      2 C           1.5198    1.7872   -0.1346 C.ar    1  LIG1        0.1581
      3 C           1.9074    3.1511    0.0751 C.ar    1  LIG1        0.0399
      4 C           0.7476    3.8666   -0.0351 C.ar    1  LIG1        0.1798
      5 O          -0.3015    3.0418   -0.2871 O.2     1  LIG1       -0.4557
      6 H          -0.5298    0.9806   -0.5248 H       1  LIG1        0.1068
      7 O           2.3342    0.6989   -0.1186 O.3     1  LIG1       -0.5034
      8 H           3.2358    0.9918    0.0544 H       1  LIG1        0.2923
      9 C           3.2934    3.6101    0.3969 C.3     1  LIG1       -0.0325
     10 H           3.3763    4.6948    0.3442 H       1  LIG1        0.0280
     11 H           4.0206    3.2005   -0.3146 H       1  LIG1        0.0280
     12 H           3.5981    3.2909    1.4005 H       1  LIG1        0.0280
     13 C           0.4372    5.2751    0.0516 C.ar    1  LIG1        0.2114
     14 C           1.1223    6.4210   -0.2307 C.ar    1  LIG1        0.1687
     15 C           0.2609    7.5285    0.0564 C.ar    1  LIG1        0.0295
     16 C          -0.8963    6.9625    0.4830 C.ar    1  LIG1        0.0993
     17 O          -0.8127    5.6163    0.4943 O.2     1  LIG1       -0.4557
     18 H          -1.8365    7.3844    0.8028 H       1  LIG1        0.1033
     19 O           2.3981    6.4805   -0.7025 O.3     1  LIG1       -0.5030
     20 H           2.6082    7.3950   -0.9223 H       1  LIG1        0.2923
     21 C           0.5921    8.9768   -0.1054 C.3     1  LIG1       -0.0332
     22 H          -0.2537    9.6040    0.1823 H       1  LIG1        0.0280
     23 H           0.8391    9.2255   -1.1440 H       1  LIG1        0.0280
     24 H           1.4434    9.2707    0.5184 H       1  LIG1        0.0280
@<TRIPOS>BOND
     1    23    21    1
     2    20    19    1
     3    19    14    1
     4     6     1    1
     5     1     5   ar
     6     1     2   ar
     7    11     9    1
     8     5     4   ar
     9    14    13   ar
    10    14    15   ar
    11     2     7    1
    12     2     3   ar
    13     7     8    1
    14    21    15    1
    15    21    22    1
    16    21    24    1
    17     4    13    1
    18     4     3   ar
    19    13    17   ar
    20    15    16   ar
    21     3     9    1
    22    10     9    1
    23     9    12    1
    24    16    17   ar
    25    16    18    1
