@<TRIPOS>MOLECULE
mol_data/opt/cam/geoms/mol2/12fi12fi-.out
 24 25 0 0 0
SMALL
GASTEIGER

@<TRIPOS>ATOM
      1 C           0.1177    1.8618   -0.0856 C.ar    1  LIG1        0.1343
      2 C           1.4690    1.7952   -0.0543 C.ar    1  LIG1        0.1581
      3 C           1.9816    3.1367   -0.0113 C.ar    1  LIG1        0.0399
      4 C           0.8769    3.9356   -0.0198 C.ar    1  LIG1        0.1798
      5 O          -0.2608    3.1827   -0.0646 O.2     1  LIG1       -0.4557
      6 H          -0.6660    1.1259   -0.1214 H       1  LIG1        0.1068
      7 O           2.1999    0.6521   -0.0627 O.3     1  LIG1       -0.5034
      8 H           3.1356    0.8811   -0.0352 H       1  LIG1        0.2923
      9 C           3.4257    3.5209    0.0326 C.3     1  LIG1       -0.0325
     10 H           3.5367    4.6044    0.0594 H       1  LIG1        0.0280
     11 H           3.9669    3.1546   -0.8477 H       1  LIG1        0.0280
     12 H           3.9237    3.1152    0.9210 H       1  LIG1        0.0280
     13 C           0.6359    5.3517    0.0067 C.ar    1  LIG1        0.2114
     14 C          -0.5371    6.0519   -0.0059 C.ar    1  LIG1        0.1687
     15 C          -0.2051    7.4435    0.0339 C.ar    1  LIG1        0.0295
     16 C           1.1505    7.4759    0.0676 C.ar    1  LIG1        0.0993
     17 O           1.6848    6.2277    0.0521 O.2     1  LIG1       -0.4557
     18 H           1.8573    8.2901    0.1033 H       1  LIG1        0.1033
     19 O          -1.8034    5.5850   -0.0472 O.3     1  LIG1       -0.5030
     20 H          -1.7646    4.6173   -0.0684 H       1  LIG1        0.2923
     21 C          -1.1731    8.5796    0.0362 C.3     1  LIG1       -0.0332
     22 H          -1.8431    8.5229    0.8986 H       1  LIG1        0.0280
     23 H          -1.8003    8.5630   -0.8596 H       1  LIG1        0.0280
     24 H          -0.6535    9.5394    0.0707 H       1  LIG1        0.0280
@<TRIPOS>BOND
     1    23    21    1
     2    11     9    1
     3     6     1    1
     4     1     5   ar
     5     1     2   ar
     6    20    19    1
     7     5     4   ar
     8     7     2    1
     9     7     8    1
    10     2     3   ar
    11    19    14    1
    12     4     3   ar
    13     4    13    1
    14     3     9    1
    15    14    13   ar
    16    14    15   ar
    17    13    17   ar
    18     9    10    1
    19     9    12    1
    20    15    21    1
    21    15    16   ar
    22    21    24    1
    23    21    22    1
    24    17    16   ar
    25    16    18    1
