@<TRIPOS>MOLECULE
mol_data/opt/cam/geoms/mol2/12fi12fi-12fi.out
 35 37 0 0 0
SMALL
GASTEIGER

@<TRIPOS>ATOM
      1 C           0.0782    1.7903   -0.0478 C.ar    1  LIG1        0.1343
      2 C           1.4308    1.7367   -0.0524 C.ar    1  LIG1        0.1581
      3 C           1.9331    3.0822   -0.0383 C.ar    1  LIG1        0.0399
      4 C           0.8198    3.8705   -0.0259 C.ar    1  LIG1        0.1799
      5 O          -0.3125    3.1081   -0.0314 O.2     1  LIG1       -0.4557
      6 H          -0.6991    1.0467   -0.0541 H       1  LIG1        0.1068
      7 O           2.1730    0.6004   -0.0678 O.3     1  LIG1       -0.5034
      8 H           3.1059    0.8425   -0.0673 H       1  LIG1        0.2923
      9 C           3.3748    3.4803   -0.0380 C.3     1  LIG1       -0.0325
     10 H           3.4839    4.5651   -0.0259 H       1  LIG1        0.0280
     11 H           3.8938    3.1052   -0.9284 H       1  LIG1        0.0280
     12 H           3.8989    3.0851    0.8407 H       1  LIG1        0.0280
     13 C           0.5775    5.2828   -0.0089 C.ar    1  LIG1        0.2124
     14 C          -0.5881    5.9960    0.0030 C.ar    1  LIG1        0.1694
     15 C          -0.2508    7.3823    0.0180 C.ar    1  LIG1        0.0407
     16 C           1.1186    7.4094    0.0141 C.ar    1  LIG1        0.1809
     17 O           1.6322    6.1494   -0.0020 O.2     1  LIG1       -0.4444
     18 O          -1.8581    5.5369    0.0015 O.3     1  LIG1       -0.5029
     19 H          -1.8253    4.5690   -0.0099 H       1  LIG1        0.2923
     20 C          -1.2378    8.5032    0.0340 C.3     1  LIG1       -0.0325
     21 H          -1.8841    8.4363    0.9143 H       1  LIG1        0.0280
     22 H          -1.8898    8.4564   -0.8434 H       1  LIG1        0.0280
     23 H          -0.7386    9.4708    0.0434 H       1  LIG1        0.0280
     24 C           2.0999    8.4605    0.0233 C.ar    1  LIG1        0.2114
     25 C           3.4668    8.4581    0.0192 C.ar    1  LIG1        0.1687
     26 C           3.8996    9.8242    0.0337 C.ar    1  LIG1        0.0295
     27 C           2.7566   10.5540    0.0456 C.ar    1  LIG1        0.0993
     28 O           1.6638    9.7569    0.0397 O.2     1  LIG1       -0.4557
     29 H           2.5703   11.6164    0.0585 H       1  LIG1        0.1033
     30 O           4.2550    7.3526    0.0040 O.3     1  LIG1       -0.5030
     31 H           5.1781    7.6294    0.0043 H       1  LIG1        0.2923
     32 C           5.3148   10.3045    0.0350 C.3     1  LIG1       -0.0332
     33 H           5.3565   11.3951    0.0477 H       1  LIG1        0.0280
     34 H           5.8577    9.9687   -0.8555 H       1  LIG1        0.0280
     35 H           5.8632    9.9479    0.9140 H       1  LIG1        0.0280
@<TRIPOS>BOND
     1    11     9    1
     2    34    32    1
     3    22    20    1
     4     7     8    1
     5     7     2    1
     6     6     1    1
     7     2     1   ar
     8     2     3   ar
     9     1     5   ar
    10     3     9    1
    11     3     4   ar
    12     9    10    1
    13     9    12    1
    14     5     4   ar
    15     4    13    1
    16    19    18    1
    17    13    17   ar
    18    13    14   ar
    19    17    16   ar
    20    18    14    1
    21    14    15   ar
    22    30    31    1
    23    30    25    1
    24    16    15   ar
    25    16    24    1
    26    15    20    1
    27    25    24   ar
    28    25    26   ar
    29    24    28   ar
    30    26    32    1
    31    26    27   ar
    32    20    23    1
    33    20    21    1
    34    32    33    1
    35    32    35    1
    36    28    27   ar
    37    27    29    1
