@<TRIPOS>MOLECULE
mol_data/opt/cam/geoms/mol2/12fi12ii-12ae-12ai-.out
 45 48 0 0 0
SMALL
GASTEIGER

@<TRIPOS>ATOM
      1 C           0.9415    1.6497    0.7955 C.ar    1  LIG1        0.1343
      2 C           2.0626    1.7854    0.0446 C.ar    1  LIG1        0.1581
      3 C           2.1691    3.1672   -0.3188 C.ar    1  LIG1        0.0398
      4 C           1.0910    3.7713    0.2654 C.ar    1  LIG1        0.1765
      5 O           0.3403    2.8623    0.9382 O.2     1  LIG1       -0.4558
      6 H           0.4648    0.8060    1.2643 H       1  LIG1        0.1068
      7 O           2.8992    0.7755   -0.3131 O.3     1  LIG1       -0.5034
      8 H           3.6518    1.1468   -0.7863 H       1  LIG1        0.2923
      9 C           3.2072    3.7652   -1.2120 C.3     1  LIG1       -0.0325
     10 H           4.1747    3.8847   -0.7116 H       1  LIG1        0.0280
     11 H           2.8938    4.7508   -1.5608 H       1  LIG1        0.0280
     12 H           3.3681    3.1419   -2.0990 H       1  LIG1        0.0280
     13 C           0.6418    5.1471    0.2806 C.ar    1  LIG1        0.1742
     14 C           1.2933    6.3312    0.4816 C.ar    1  LIG1        0.0020
     15 C           0.2994    7.3583    0.3656 C.ar    1  LIG1        0.0020
     16 C          -0.8770    6.7099    0.1101 C.ar    1  LIG1        0.1739
     17 O          -0.6827    5.3683    0.0543 O.2     1  LIG1       -0.4481
     18 C           2.7329    6.5265    0.8321 C.3     1  LIG1       -0.0357
     19 H           2.8387    7.2129    1.6775 H       1  LIG1        0.0279
     20 H           3.3064    6.9488    0.0004 H       1  LIG1        0.0279
     21 H           3.1957    5.5786    1.1127 H       1  LIG1        0.0279
     22 C           0.5106    8.8278    0.5332 C.3     1  LIG1       -0.0357
     23 H          -0.3877    9.3134    0.9224 H       1  LIG1        0.0279
     24 H           0.7673    9.3158   -0.4137 H       1  LIG1        0.0279
     25 H           1.3278    9.0280    1.2306 H       1  LIG1        0.0279
     26 C          -2.2184    7.1913   -0.1051 C.ar    1  LIG1        0.1722
     27 C          -2.7229    8.4043   -0.4626 C.ar    1  LIG1        0.0034
     28 C          -4.1470    8.2604   -0.4913 C.ar    1  LIG1        0.0741
     29 C          -4.3995    6.9506   -0.1548 C.ar    1  LIG1        0.1860
     30 O          -3.2361    6.3038    0.0819 O.2     1  LIG1       -0.4474
     31 H          -2.1670    9.2952   -0.7068 H       1  LIG1        0.0669
     32 C          -5.1007    9.2600   -0.8139 C.1     1  LIG1       -0.0657
     33 C          -5.9027   10.1159   -1.0888 C.1     1  LIG1       -0.1138
     34 H          -6.6070   10.8771   -1.3333 H       1  LIG1        0.1232
     35 C          -5.6203    6.2018   -0.0219 C.ar    1  LIG1        0.1712
     36 C          -6.9316    6.5375   -0.1908 C.ar    1  LIG1       -0.0098
     37 C          -7.6923    5.3591    0.0902 C.ar    1  LIG1       -0.0120
     38 C          -6.7768    4.4069    0.4059 C.ar    1  LIG1        0.0956
     39 O          -5.5144    4.8982    0.3441 O.2     1  LIG1       -0.4595
     40 H          -6.8645    3.3690    0.6863 H       1  LIG1        0.1032
     41 H          -7.3030    7.5085   -0.4804 H       1  LIG1        0.0659
     42 C          -9.1792    5.2089    0.0452 C.3     1  LIG1       -0.0367
     43 H          -9.4805    4.1927    0.3090 H       1  LIG1        0.0278
     44 H          -9.5706    5.4248   -0.9533 H       1  LIG1        0.0278
     45 H          -9.6692    5.8945    0.7428 H       1  LIG1        0.0278
@<TRIPOS>BOND
     1    12     9    1
     2    11     9    1
     3    34    33    1
     4     9    10    1
     5     9     3    1
     6    33    32    3
     7    44    42    1
     8    32    28    1
     9     8     7    1
    10    31    27    1
    11    28    27   ar
    12    28    29   ar
    13    41    36    1
    14    27    26   ar
    15    24    22    1
    16     3     2   ar
    17     3     4   ar
    18     7     2    1
    19    36    35   ar
    20    36    37   ar
    21    29    35    1
    22    29    30   ar
    23    26    30   ar
    24    26    16    1
    25    35    39   ar
    26    20    18    1
    27     2     1   ar
    28    42    37    1
    29    42    43    1
    30    42    45    1
    31    17    16   ar
    32    17    13   ar
    33    37    38   ar
    34    16    15   ar
    35     4    13    1
    36     4     5   ar
    37    13    14   ar
    38    39    38   ar
    39    15    14   ar
    40    15    22    1
    41    38    40    1
    42    14    18    1
    43    22    23    1
    44    22    25    1
    45     1     5   ar
    46     1     6    1
    47    18    21    1
    48    18    19    1
