@<TRIPOS>MOLECULE
mol_data/opt/cam/geoms/mol2/12fi12fi12fi-12fi-.out
 46 49 0 0 0
SMALL
GASTEIGER

@<TRIPOS>ATOM
      1 C           0.0838    1.7694    0.3755 C.ar    1  LIG1        0.1343
      2 C           1.3683    1.6717   -0.0431 C.ar    1  LIG1        0.1581
      3 C           1.8647    3.0008   -0.2504 C.ar    1  LIG1        0.0399
      4 C           0.8198    3.8205    0.0784 C.ar    1  LIG1        0.1799
      5 O          -0.2620    3.0876    0.4563 O.2     1  LIG1       -0.4557
      6 H          -0.6698    1.0465    0.6357 H       1  LIG1        0.1068
      7 O           2.0496    0.5135   -0.2414 O.3     1  LIG1       -0.5034
      8 H           2.9452    0.7269   -0.5261 H       1  LIG1        0.2923
      9 C           3.2295    3.3284   -0.7650 C.3     1  LIG1       -0.0325
     10 H           3.4148    4.4013   -0.7524 H       1  LIG1        0.0280
     11 H           3.3624    2.9725   -1.7935 H       1  LIG1        0.0280
     12 H           4.0078    2.8600   -0.1503 H       1  LIG1        0.0280
     13 C           0.6256    5.2484    0.1084 C.ar    1  LIG1        0.2124
     14 C           1.4248    6.3535    0.1619 C.ar    1  LIG1        0.1694
     15 C           0.5939    7.5181    0.1856 C.ar    1  LIG1        0.0407
     16 C          -0.6836    7.0385    0.1586 C.ar    1  LIG1        0.1809
     17 O          -0.6818    5.6778    0.1058 O.2     1  LIG1       -0.4444
     18 O           2.7827    6.3411    0.1976 O.3     1  LIG1       -0.5029
     19 H           3.1011    7.2479    0.2752 H       1  LIG1        0.2923
     20 C           1.0680    8.9343    0.2494 C.3     1  LIG1       -0.0325
     21 H           0.2232    9.6222    0.2802 H       1  LIG1        0.0280
     22 H           1.6768    9.1956   -0.6238 H       1  LIG1        0.0280
     23 H           1.6732    9.1171    1.1453 H       1  LIG1        0.0280
     24 C          -1.9977    7.6059    0.1783 C.ar    1  LIG1        0.2125
     25 C          -3.2201    6.9925    0.2095 C.ar    1  LIG1        0.1694
     26 C          -4.2093    8.0198    0.2689 C.ar    1  LIG1        0.0407
     27 C          -3.5091    9.1962    0.2505 C.ar    1  LIG1        0.1809
     28 O          -2.1665    8.9610    0.1929 O.2     1  LIG1       -0.4444
     29 O          -3.5126    5.6772    0.2192 O.3     1  LIG1       -0.5029
     30 H          -2.6837    5.1736    0.2122 H       1  LIG1        0.2923
     31 C          -5.6812    7.7982    0.4011 C.3     1  LIG1       -0.0325
     32 H          -5.8829    7.0725    1.1933 H       1  LIG1        0.0280
     33 H          -6.1159    7.3856   -0.5158 H       1  LIG1        0.0280
     34 H          -6.2035    8.7254    0.6439 H       1  LIG1        0.0280
     35 C          -3.9436   10.5692    0.2323 C.ar    1  LIG1        0.2114
     36 C          -4.9773   11.1855   -0.4126 C.ar    1  LIG1        0.1687
     37 C          -4.9469   12.5714   -0.0616 C.ar    1  LIG1        0.0295
     38 C          -3.8764   12.6896    0.7642 C.ar    1  LIG1        0.0993
     39 O          -3.2539   11.5044    0.9587 O.2     1  LIG1       -0.4557
     40 H          -3.4462   13.5382    1.2735 H       1  LIG1        0.1033
     41 O          -5.8931   10.6605   -1.2627 O.3     1  LIG1       -0.5030
     42 H          -5.6332    9.7568   -1.4838 H       1  LIG1        0.2923
     43 C          -5.8908   13.6249   -0.5380 C.3     1  LIG1       -0.0332
     44 H          -6.9159   13.4096   -0.2230 H       1  LIG1        0.0280
     45 H          -5.8956   13.6833   -1.6301 H       1  LIG1        0.0280
     46 H          -5.6144   14.6057   -0.1457 H       1  LIG1        0.0280
@<TRIPOS>BOND
     1    11     9    1
     2    45    43    1
     3    42    41    1
     4    41    36    1
     5     9    10    1
     6     9     3    1
     7     9    12    1
     8    22    20    1
     9    43    44    1
    10    43    46    1
    11    43    37    1
    12     8     7    1
    13    33    31    1
    14    36    37   ar
    15    36    35   ar
    16     3     2   ar
    17     3     4   ar
    18     7     2    1
    19    37    38   ar
    20     2     1   ar
    21     4    13    1
    22     4     5   ar
    23    17    13   ar
    24    17    16   ar
    25    13    14   ar
    26    16    24    1
    27    16    15   ar
    28    14    15   ar
    29    14    18    1
    30    24    28   ar
    31    24    25   ar
    32    15    20    1
    33    28    27   ar
    34    18    19    1
    35    25    29    1
    36    25    26   ar
    37    30    29    1
    38    35    27    1
    39    35    39   ar
    40    20    21    1
    41    20    23    1
    42    27    26   ar
    43    26    31    1
    44     1     5   ar
    45     1     6    1
    46    31    34    1
    47    31    32    1
    48    38    39   ar
    49    38    40    1
