@<TRIPOS>MOLECULE
mol_data/opt/cam/geoms/mol2/12fl12fl12fl12fl.out
 50 53 0 0 0
SMALL
GASTEIGER

@<TRIPOS>ATOM
      1 C           0.2168    1.6271    0.0004 C.ar    1  LIG1        0.1379
      2 C           1.5726    1.5736    0.0003 C.ar    1  LIG1        0.1979
      3 C           2.0262    2.9394    0.0002 C.ar    1  LIG1        0.2109
      4 C           0.8939    3.7156    0.0002 C.ar    1  LIG1        0.2186
      5 O          -0.2035    2.9147    0.0003 O.2     1  LIG1       -0.4521
      6 H          -0.5376    0.8592    0.0004 H       1  LIG1        0.1069
      7 O           2.2710    0.4015    0.0003 O.3     1  LIG1       -0.5012
      8 H           3.2140    0.5781    0.0004 H       1  LIG1        0.2924
      9 O           3.2808    3.4647    0.0001 O.3     1  LIG1       -0.4883
     10 C           4.3802    2.5911   -0.0004 C.3     1  LIG1        0.0791
     11 H           5.2716    3.2186   -0.0007 H       1  LIG1        0.0660
     12 H           4.4100    1.9634    0.9016 H       1  LIG1        0.0660
     13 H           4.4092    1.9636   -0.9027 H       1  LIG1        0.0660
     14 C           0.6347    5.1331    0.0002 C.ar    1  LIG1        0.2194
     15 C           1.4106    6.2633    0.0001 C.ar    1  LIG1        0.2094
     16 C           0.5048    7.3749    0.0001 C.ar    1  LIG1        0.2117
     17 C          -0.7609    6.8445    0.0001 C.ar    1  LIG1        0.2197
     18 O          -0.6784    5.4897    0.0002 O.2     1  LIG1       -0.4407
     19 O           2.7717    6.2520    0.0001 O.3     1  LIG1       -0.5007
     20 H           3.1033    7.1523    0.0004 H       1  LIG1        0.2924
     21 O           0.7351    8.7150   -0.0000 O.3     1  LIG1       -0.4883
     22 C           2.0569    9.1889   -0.0010 C.3     1  LIG1        0.0791
     23 H           1.9915   10.2771   -0.0014 H       1  LIG1        0.0660
     24 H           2.6068    8.8857    0.9014 H       1  LIG1        0.0660
     25 H           2.6058    8.8848   -0.9036 H       1  LIG1        0.0660
     26 C          -2.0909    7.3929    0.0002 C.ar    1  LIG1        0.2195
     27 C          -2.6212    8.6581    0.0003 C.ar    1  LIG1        0.2094
     28 C          -4.0462    8.4983    0.0002 C.ar    1  LIG1        0.2117
     29 C          -4.2854    7.1479   -0.0000 C.ar    1  LIG1        0.2196
     30 O          -3.1026    6.4829   -0.0000 O.2     1  LIG1       -0.4407
     31 O          -1.8760    9.7969    0.0006 O.3     1  LIG1       -0.5007
     32 H          -2.4545   10.5624    0.0010 H       1  LIG1        0.2924
     33 O          -5.0484    9.4173    0.0003 O.3     1  LIG1       -0.4883
     34 C          -4.7314   10.7854   -0.0001 C.3     1  LIG1        0.0791
     35 H          -5.6819   11.3193   -0.0004 H       1  LIG1        0.0660
     36 H          -4.1790   11.0833    0.9024 H       1  LIG1        0.0660
     37 H          -4.1787   11.0827   -0.9026 H       1  LIG1        0.0660
     38 C          -5.4679    6.3244   -0.0002 C.ar    1  LIG1        0.2184
     39 C          -6.8191    6.5636   -0.0002 C.ar    1  LIG1        0.2086
     40 C          -7.4504    5.2704   -0.0005 C.ar    1  LIG1        0.2002
     41 C          -6.4446    4.3582   -0.0007 C.ar    1  LIG1        0.1381
     42 O          -5.2460    4.9811   -0.0005 O.2     1  LIG1       -0.4521
     43 H          -6.4456    3.2815   -0.0009 H       1  LIG1        0.1069
     44 O          -7.3777    7.8055   -0.0000 O.3     1  LIG1       -0.5007
     45 H          -8.3343    7.7287    0.0002 H       1  LIG1        0.2924
     46 O          -8.7629    4.8995   -0.0006 O.3     1  LIG1       -0.4888
     47 C          -9.7527    5.8984   -0.0010 C.3     1  LIG1        0.0791
     48 H         -10.7129    5.3821   -0.0013 H       1  LIG1        0.0660
     49 H          -9.7077    6.5245    0.9012 H       1  LIG1        0.0660
     50 H          -9.7070    6.5246   -0.9030 H       1  LIG1        0.0660
@<TRIPOS>BOND
     1    25    22    1
     2    50    47    1
     3    13    10    1
     4    37    34    1
     5    23    22    1
     6    48    47    1
     7    22    21    1
     8    22    24    1
     9    47    46    1
    10    47    49    1
    11    43    41    1
    12    11    10    1
    13    41    40   ar
    14    41    42   ar
    15    46    40    1
    16    40    39   ar
    17    42    38   ar
    18    10     9    1
    19    10    12    1
    20    35    34    1
    21    39    38   ar
    22    39    44    1
    23    38    29    1
    24    34    33    1
    25    34    36    1
    26    30    29   ar
    27    30    26   ar
    28    21    16    1
    29    29    28   ar
    30    44    45    1
    31    19    15    1
    32    19    20    1
    33    16    15   ar
    34    16    17   ar
    35     9     3    1
    36    15    14   ar
    37    17    26    1
    38    17    18   ar
    39    26    27   ar
    40    14    18   ar
    41    14     4    1
    42     3     4   ar
    43     3     2   ar
    44    28    33    1
    45    28    27   ar
    46     4     5   ar
    47     2     7    1
    48     2     1   ar
    49     7     8    1
    50    27    31    1
    51     5     1   ar
    52     1     6    1
    53    31    32    1
