@<TRIPOS>MOLECULE
mol_data/opt/cam/geoms/mol2/12fl12fl12fl12fl-.out
 50 53 0 0 0
SMALL
GASTEIGER

@<TRIPOS>ATOM
      1 C          -0.0347    1.7035    0.0002 C.ar    1  LIG1        0.1379
      2 C           1.3178    1.5936    0.0002 C.ar    1  LIG1        0.1979
      3 C           1.8287    2.9394    0.0002 C.ar    1  LIG1        0.2109
      4 C           0.7305    3.7620    0.0002 C.ar    1  LIG1        0.2186
      5 O          -0.4011    3.0083    0.0002 O.2     1  LIG1       -0.4521
      6 H          -0.8209    0.9682    0.0002 H       1  LIG1        0.1069
      7 O           1.9669    0.3944    0.0002 O.3     1  LIG1       -0.5012
      8 H           2.9165    0.5312    0.0004 H       1  LIG1        0.2924
      9 O           3.1027    3.4135    0.0001 O.3     1  LIG1       -0.4883
     10 C           4.1669    2.4962   -0.0004 C.3     1  LIG1        0.0791
     11 H           5.0824    3.0878   -0.0006 H       1  LIG1        0.0660
     12 H           4.1710    1.8683    0.9018 H       1  LIG1        0.0660
     13 H           4.1704    1.8685   -0.9027 H       1  LIG1        0.0660
     14 C           0.5281    5.1879    0.0001 C.ar    1  LIG1        0.2194
     15 C           1.3398    6.2926    0.0001 C.ar    1  LIG1        0.2094
     16 C           0.4707    7.4351    0.0001 C.ar    1  LIG1        0.2117
     17 C          -0.8101    6.9466    0.0001 C.ar    1  LIG1        0.2197
     18 O          -0.7736    5.5885    0.0001 O.2     1  LIG1       -0.4407
     19 O           2.6989    6.2357    0.0001 O.3     1  LIG1       -0.5007
     20 H           3.0617    7.1241    0.0004 H       1  LIG1        0.2924
     21 O           0.7397    8.7674    0.0000 O.3     1  LIG1       -0.4883
     22 C           2.0769    9.2003   -0.0006 C.3     1  LIG1        0.0791
     23 H           2.0454   10.2899   -0.0010 H       1  LIG1        0.0660
     24 H           2.6156    8.8790    0.9019 H       1  LIG1        0.0660
     25 H           2.6149    8.8784   -0.9033 H       1  LIG1        0.0660
     26 C          -2.1260    7.5210    0.0000 C.ar    1  LIG1        0.2195
     27 C          -2.6589    8.7837    0.0001 C.ar    1  LIG1        0.2094
     28 C          -4.0889    8.6281   -0.0000 C.ar    1  LIG1        0.2117
     29 C          -4.3302    7.2829   -0.0001 C.ar    1  LIG1        0.2196
     30 O          -3.1471    6.6106   -0.0001 O.2     1  LIG1       -0.4407
     31 O          -1.9090    9.9172    0.0002 O.3     1  LIG1       -0.5007
     32 H          -2.4821   10.6873    0.0005 H       1  LIG1        0.2924
     33 O          -5.1001    9.5390    0.0000 O.3     1  LIG1       -0.4883
     34 C          -4.7846   10.9093   -0.0003 C.3     1  LIG1        0.0791
     35 H          -5.7351   11.4429   -0.0005 H       1  LIG1        0.0660
     36 H          -4.2321   11.2058    0.9023 H       1  LIG1        0.0660
     37 H          -4.2319   11.2053   -0.9030 H       1  LIG1        0.0660
     38 C          -5.4866    6.4398   -0.0002 C.ar    1  LIG1        0.2184
     39 C          -5.5604    5.0732   -0.0003 C.ar    1  LIG1        0.2086
     40 C          -6.9561    4.7579   -0.0004 C.ar    1  LIG1        0.2002
     41 C          -7.6221    5.9452   -0.0004 C.ar    1  LIG1        0.1381
     42 O          -6.7361    6.9816   -0.0003 O.2     1  LIG1       -0.4521
     43 H          -8.6652    6.2102   -0.0005 H       1  LIG1        0.1069
     44 O          -4.5810    4.1478   -0.0003 O.3     1  LIG1       -0.5007
     45 H          -3.7219    4.5965   -0.0002 H       1  LIG1        0.2924
     46 O          -7.4161    3.4899   -0.0006 O.3     1  LIG1       -0.4888
     47 C          -8.8226    3.3738   -0.0007 C.3     1  LIG1        0.0791
     48 H          -9.0514    2.3086   -0.0008 H       1  LIG1        0.0660
     49 H          -9.2576    3.8406    0.8921 H       1  LIG1        0.0660
     50 H          -9.2575    3.8407   -0.8935 H       1  LIG1        0.0660
@<TRIPOS>BOND
     1    25    22    1
     2    37    34    1
     3    13    10    1
     4    50    47    1
     5    23    22    1
     6    48    47    1
     7    47    46    1
     8    47    49    1
     9    22    21    1
    10    22    24    1
    11    11    10    1
    12    46    40    1
    13    35    34    1
    14    43    41    1
    15    40    41   ar
    16    40    39   ar
    17    41    42   ar
    18    10     9    1
    19    10    12    1
    20    39    44    1
    21    39    38   ar
    22    34    33    1
    23    34    36    1
    24    42    38   ar
    25    44    45    1
    26    38    29    1
    27    29    30   ar
    28    29    28   ar
    29    30    26   ar
    30    28    33    1
    31    28    27   ar
    32    26    17    1
    33    26    27   ar
    34    21    16    1
    35    17    16   ar
    36    17    18   ar
    37    16    15   ar
    38    27    31    1
    39    18    14   ar
    40    15    14   ar
    41    15    19    1
    42    14     4    1
    43     9     3    1
    44    19    20    1
    45     4     3   ar
    46     4     5   ar
    47     3     2   ar
    48     5     1   ar
    49     2     7    1
    50     2     1   ar
    51     7     8    1
    52     1     6    1
    53    31    32    1
