@<TRIPOS>MOLECULE
mol_data/opt/cam/geoms/mol2/12fl12fl12fl-12fl-.out
 50 53 0 0 0
SMALL
GASTEIGER

@<TRIPOS>ATOM
      1 C          -0.2396    1.5898    0.4600 C.ar    1  LIG1        0.1379
      2 C           1.0962    1.3862    0.3709 C.ar    1  LIG1        0.1979
      3 C           1.7100    2.6761    0.3314 C.ar    1  LIG1        0.2109
      4 C           0.6995    3.5945    0.4140 C.ar    1  LIG1        0.2186
      5 O          -0.4897    2.9367    0.4817 O.2     1  LIG1       -0.4521
      6 H          -1.0932    0.9365    0.5062 H       1  LIG1        0.1069
      7 O           1.7745    0.2190    0.3167 O.3     1  LIG1       -0.5012
      8 H           2.7147    0.4504    0.3228 H       1  LIG1        0.2924
      9 O           3.0630    2.8058    0.2554 O.3     1  LIG1       -0.4883
     10 C           3.5540    3.4228   -0.9341 C.3     1  LIG1        0.0791
     11 H           4.6375    3.2988   -0.9179 H       1  LIG1        0.0660
     12 H           3.1412    2.9365   -1.8243 H       1  LIG1        0.0660
     13 H           3.3178    4.4886   -0.9456 H       1  LIG1        0.0660
     14 C           0.6350    5.0284    0.4610 C.ar    1  LIG1        0.2194
     15 C           1.5245    6.0386    0.6725 C.ar    1  LIG1        0.2094
     16 C           0.8057    7.2704    0.6085 C.ar    1  LIG1        0.2117
     17 C          -0.5038    6.9506    0.3770 C.ar    1  LIG1        0.2197
     18 O          -0.6072    5.5910    0.2680 O.2     1  LIG1       -0.4407
     19 O           2.8517    5.9525    0.9039 O.3     1  LIG1       -0.5007
     20 H           3.1608    6.8582    1.0573 H       1  LIG1        0.2924
     21 O           1.4574    8.4402    0.8331 O.3     1  LIG1       -0.4883
     22 C           1.2696    9.4788   -0.1307 C.3     1  LIG1        0.0791
     23 H           2.0010   10.2504    0.1107 H       1  LIG1        0.0660
     24 H           1.4526    9.1025   -1.1428 H       1  LIG1        0.0660
     25 H           0.2624    9.8941   -0.0683 H       1  LIG1        0.0660
     26 C          -1.7569    7.6241    0.2398 C.ar    1  LIG1        0.2195
     27 C          -3.0114    7.1064    0.0556 C.ar    1  LIG1        0.2094
     28 C          -3.8903    8.2261   -0.0208 C.ar    1  LIG1        0.2117
     29 C          -3.1217    9.3481    0.1298 C.ar    1  LIG1        0.2196
     30 O          -1.8239    8.9891    0.3038 O.2     1  LIG1       -0.4407
     31 O          -3.3992    5.8201   -0.0547 O.3     1  LIG1       -0.5007
     32 H          -2.6181    5.2518    0.0401 H       1  LIG1        0.2924
     33 O          -5.2503    8.2197   -0.1635 O.3     1  LIG1       -0.4883
     34 C          -5.7245    7.5354   -1.3295 C.3     1  LIG1        0.0791
     35 H          -6.8118    7.5999   -1.3011 H       1  LIG1        0.0660
     36 H          -5.3468    8.0180   -2.2362 H       1  LIG1        0.0660
     37 H          -5.4116    6.4899   -1.3059 H       1  LIG1        0.0660
     38 C          -3.4589   10.7415    0.1647 C.ar    1  LIG1        0.2184
     39 C          -4.6690   11.3815    0.2005 C.ar    1  LIG1        0.2086
     40 C          -4.3694   12.7820    0.2115 C.ar    1  LIG1        0.2002
     41 C          -3.0134   12.8912    0.1836 C.ar    1  LIG1        0.1381
     42 O          -2.4426   11.6546    0.1515 O.2     1  LIG1       -0.4521
     43 H          -2.3377   13.7290    0.1847 H       1  LIG1        0.1069
     44 O          -5.9164   10.8873    0.2356 O.3     1  LIG1       -0.5007
     45 H          -5.8712    9.9143    0.1629 H       1  LIG1        0.2924
     46 O          -5.3296   13.7267    0.2484 O.3     1  LIG1       -0.4888
     47 C          -4.8505   15.0549    0.2712 C.3     1  LIG1        0.0791
     48 H          -5.7244   15.7046    0.3040 H       1  LIG1        0.0660
     49 H          -4.2283   15.2344    1.1569 H       1  LIG1        0.0660
     50 H          -4.2632   15.2781   -0.6284 H       1  LIG1        0.0660
@<TRIPOS>BOND
     1    36    34    1
     2    12    10    1
     3    34    37    1
     4    34    35    1
     5    34    33    1
     6    24    22    1
     7    13    10    1
     8    10    11    1
     9    10     9    1
    10    50    47    1
    11    33    28    1
    12    22    25    1
    13    22    23    1
    14    22    21    1
    15    31    32    1
    16    31    27    1
    17    28    27   ar
    18    28    29   ar
    19    27    26   ar
    20    29    38    1
    21    29    30   ar
    22    42    38   ar
    23    42    41   ar
    24    45    44    1
    25    38    39   ar
    26    41    43    1
    27    41    40   ar
    28    39    40   ar
    29    39    44    1
    30    40    46    1
    31    26    30   ar
    32    26    17    1
    33    46    47    1
    34     9     3    1
    35    18    17   ar
    36    18    14   ar
    37    47    48    1
    38    47    49    1
    39     7     8    1
    40     7     2    1
    41     3     2   ar
    42     3     4   ar
    43     2     1   ar
    44    17    16   ar
    45     4    14    1
    46     4     5   ar
    47     1     5   ar
    48     1     6    1
    49    14    15   ar
    50    16    15   ar
    51    16    21    1
    52    15    19    1
    53    19    20    1
