@<TRIPOS>MOLECULE
mol_data/opt/cam/geoms/mol2/12fl12fl-12fl-12fl.out
 50 53 0 0 0
SMALL
GASTEIGER

@<TRIPOS>ATOM
      1 C          -0.7235    1.9067   -0.0771 C.ar    1  LIG1        0.1379
      2 C           0.5686    1.5482   -0.2419 C.ar    1  LIG1        0.1979
      3 C           1.3613    2.7396   -0.1499 C.ar    1  LIG1        0.2109
      4 C           0.4907    3.7716    0.0640 C.ar    1  LIG1        0.2186
      5 O          -0.7850    3.2669    0.1187 O.2     1  LIG1       -0.4521
      6 H          -1.6543    1.3680   -0.0585 H       1  LIG1        0.1069
      7 O           1.0870    0.3203   -0.4516 O.3     1  LIG1       -0.5012
      8 H           2.0464    0.4379   -0.5149 H       1  LIG1        0.2924
      9 O           2.7010    2.6318   -0.3168 O.3     1  LIG1       -0.4883
     10 C           3.5650    3.4565    0.4691 C.3     1  LIG1        0.0791
     11 H           4.5326    2.9538    0.4810 H       1  LIG1        0.0660
     12 H           3.6742    4.4497    0.0337 H       1  LIG1        0.0660
     13 H           3.1850    3.5448    1.4913 H       1  LIG1        0.0660
     14 C           0.5501    5.1944    0.2284 C.ar    1  LIG1        0.2194
     15 C          -0.4490    6.1046    0.4412 C.ar    1  LIG1        0.2094
     16 C           0.1844    7.3808    0.5037 C.ar    1  LIG1        0.2117
     17 C           1.5253    7.1655    0.3366 C.ar    1  LIG1        0.2197
     18 O           1.7532    5.8384    0.1725 O.2     1  LIG1       -0.4407
     19 O          -1.7790    5.8971    0.5616 O.3     1  LIG1       -0.5007
     20 H          -1.9397    4.9468    0.4571 H       1  LIG1        0.2924
     21 O          -0.3891    8.6010    0.7425 O.3     1  LIG1       -0.4883
     22 C          -1.4404    8.9494   -0.1658 C.3     1  LIG1        0.0791
     23 H          -1.8096    9.9244    0.1515 H       1  LIG1        0.0660
     24 H          -1.0576    9.0112   -1.1894 H       1  LIG1        0.0660
     25 H          -2.2432    8.2117   -0.1142 H       1  LIG1        0.0660
     26 C           2.6534    8.0446    0.3573 C.ar    1  LIG1        0.2195
     27 C           2.7761    9.3826    0.6254 C.ar    1  LIG1        0.2094
     28 C           4.1685    9.6872    0.5081 C.ar    1  LIG1        0.2117
     29 C           4.7949    8.5133    0.1808 C.ar    1  LIG1        0.2196
     30 O           3.8834    7.5100    0.0946 O.2     1  LIG1       -0.4407
     31 O           1.8296   10.2826    0.9537 O.3     1  LIG1       -0.5007
     32 H           0.9617    9.8335    0.9784 H       1  LIG1        0.2924
     33 O           4.7738   10.8741    0.7482 O.3     1  LIG1       -0.4883
     34 C           4.2844   11.9604   -0.0306 C.3     1  LIG1        0.0791
     35 H           4.8514   12.8385    0.2794 H       1  LIG1        0.0660
     36 H           4.4521   11.7792   -1.0985 H       1  LIG1        0.0660
     37 H           3.2191   12.1277    0.1484 H       1  LIG1        0.0660
     38 C           6.1630    8.1518   -0.0552 C.ar    1  LIG1        0.2184
     39 C           6.7743    6.9522   -0.2837 C.ar    1  LIG1        0.2086
     40 C           8.1614    7.2379   -0.4582 C.ar    1  LIG1        0.2002
     41 C           8.3099    8.5814   -0.3255 C.ar    1  LIG1        0.1381
     42 O           7.0969    9.1469   -0.0802 O.2     1  LIG1       -0.4521
     43 H           9.1524    9.2498   -0.3700 H       1  LIG1        0.1069
     44 O           6.2184    5.7179   -0.3359 O.3     1  LIG1       -0.5007
     45 H           6.9283    5.0970   -0.5482 H       1  LIG1        0.2924
     46 O           9.0394    6.2373   -0.7045 O.3     1  LIG1       -0.4888
     47 C          10.3848    6.6470   -0.8592 C.3     1  LIG1        0.0791
     48 H          10.9706    5.7488   -1.0504 H       1  LIG1        0.0660
     49 H          10.4862    7.3383   -1.7041 H       1  LIG1        0.0660
     50 H          10.7495    7.1363    0.0516 H       1  LIG1        0.0660
@<TRIPOS>BOND
     1    49    47    1
     2    24    22    1
     3    36    34    1
     4    48    47    1
     5    47    46    1
     6    47    50    1
     7    46    40    1
     8    45    44    1
     9     8     7    1
    10    40    41   ar
    11    40    39   ar
    12     7     2    1
    13    43    41    1
    14    44    39    1
    15    41    42   ar
    16     9     3    1
    17     9    10    1
    18    39    38   ar
    19     2     3   ar
    20     2     1   ar
    21    22    25    1
    22    22    23    1
    23    22    21    1
    24     3     4   ar
    25    42    38   ar
    26     1     6    1
    27     1     5   ar
    28    38    29    1
    29    34    37    1
    30    34    35    1
    31    34    33    1
    32    12    10    1
    33     4     5   ar
    34     4    14    1
    35    30    29   ar
    36    30    26   ar
    37    18    14   ar
    38    18    17   ar
    39    29    28   ar
    40    14    15   ar
    41    17    26    1
    42    17    16   ar
    43    26    27   ar
    44    15    16   ar
    45    15    19    1
    46    20    19    1
    47    10    11    1
    48    10    13    1
    49    16    21    1
    50    28    27   ar
    51    28    33    1
    52    27    31    1
    53    31    32    1
