@<TRIPOS>MOLECULE
mol_data/opt/cam/geoms/mol2/12fl13ea4af-13le-.out
 49 52 0 0 0
SMALL
GASTEIGER

@<TRIPOS>ATOM
      1 C           0.3924    1.5123    0.7370 C.ar    1  LIG1        0.1378
      2 C           1.6449    1.3892    0.2336 C.ar    1  LIG1        0.1979
      3 C           2.0733    2.7084   -0.1382 C.ar    1  LIG1        0.2091
      4 C           1.0487    3.5499    0.1886 C.ar    1  LIG1        0.1972
      5 O           0.0123    2.8243    0.7085 O.2     1  LIG1       -0.4539
      6 H          -0.3213    0.8098    1.1354 H       1  LIG1        0.1069
      7 O           2.4238    0.2927    0.0556 O.3     1  LIG1       -0.5012
      8 H           1.9486   -0.4933    0.3488 H       1  LIG1        0.2924
      9 O           3.2120    3.0368   -0.7860 O.3     1  LIG1       -0.4884
     10 C           4.4140    2.7487   -0.0778 C.3     1  LIG1        0.0791
     11 H           5.2323    3.0022   -0.7519 H       1  LIG1        0.0660
     12 H           4.4843    3.3659    0.8232 H       1  LIG1        0.0660
     13 H           4.4713    1.6890    0.1857 H       1  LIG1        0.0660
     14 C           0.8067    4.9657    0.0580 C.ar    1  LIG1        0.1019
     15 C           1.6395    6.0771   -0.0328 C.ar    1  LIG1        0.0536
     16 C           0.7942    7.2215   -0.0868 C.ar    1  LIG1       -0.0203
     17 C          -0.5122    6.7968   -0.0219 C.ar    1  LIG1        0.0483
     18 N          -0.4822    5.4250    0.0539 N.ar    1  LIG1       -0.3507
     19 H          -1.2749    4.8275    0.2249 H       1  LIG1        0.1660
     20 C           3.0597    6.1126   -0.0249 C.1     1  LIG1       -0.0674
     21 C           4.2600    6.2121    0.0025 C.1     1  LIG1       -0.1138
     22 H           5.3219    6.2945    0.0098 H       1  LIG1        0.1232
     23 H           1.1290    8.2422   -0.1919 H       1  LIG1        0.0651
     24 C          -1.8155    8.8684    0.4148 C.ar    1  LIG1       -0.0518
     25 C          -3.0006    9.5804    0.3880 C.ar    1  LIG1       -0.0484
     26 C          -1.7633    7.5506   -0.0457 C.ar    1  LIG1        0.0018
     27 C          -4.1975    9.0284   -0.0926 C.ar    1  LIG1        0.0433
     28 H          -3.0272   10.5956    0.7611 H       1  LIG1        0.0625
     29 C          -2.9445    6.9826   -0.5267 C.ar    1  LIG1       -0.0104
     30 C          -4.1319    7.6994   -0.5451 C.ar    1  LIG1        0.1267
     31 H          -2.9391    5.9732   -0.9323 H       1  LIG1        0.0661
     32 H          -0.9220    9.3280    0.8218 H       1  LIG1        0.0624
     33 O          -5.2788    7.1133   -1.0264 O.3     1  LIG1       -0.5061
     34 H          -5.0803    6.2194   -1.3265 H       1  LIG1        0.2922
     35 C          -5.4269    9.8209   -0.1059 C.ar    1  LIG1        0.0935
     36 C          -5.6453   11.1606    0.1745 C.ar    1  LIG1        0.1606
     37 C          -7.0400   11.4326    0.0355 C.ar    1  LIG1        0.0842
     38 C          -7.6298   10.2374   -0.3303 C.ar    1  LIG1        0.0213
     39 N          -6.6670    9.2911   -0.4043 N.ar    1  LIG1       -0.3565
     40 H          -6.7861    8.3279   -0.6755 H       1  LIG1        0.1655
     41 H          -8.6658   10.0164   -0.5334 H       1  LIG1        0.0820
     42 O          -4.6897   12.0535    0.5609 O.3     1  LIG1       -0.4918
     43 C          -4.4791   13.1285   -0.3486 C.3     1  LIG1        0.0789
     44 H          -3.6927   13.7488    0.0831 H       1  LIG1        0.0660
     45 H          -4.1545   12.7539   -1.3259 H       1  LIG1        0.0660
     46 H          -5.3863   13.7258   -0.4714 H       1  LIG1        0.0660
     47 C          -7.7043   12.6683    0.2577 C.1     1  LIG1       -0.0645
     48 C          -8.2662   13.7183    0.4420 C.1     1  LIG1       -0.1137
     49 H          -8.7661   14.6419    0.6197 H       1  LIG1        0.1232
@<TRIPOS>BOND
     1    34    33    1
     2    45    43    1
     3    33    30    1
     4    31    29    1
     5     9     3    1
     6     9    10    1
     7    11    10    1
     8    40    39    1
     9    30    29   ar
    10    30    27   ar
    11    41    38    1
    12    29    26   ar
    13    46    43    1
    14    39    38   ar
    15    39    35   ar
    16    43    44    1
    17    43    42    1
    18    38    37   ar
    19    23    16    1
    20     3     4   ar
    21     3     2   ar
    22    35    27    1
    23    35    36   ar
    24    27    25   ar
    25    16    15   ar
    26    16    17   ar
    27    10    13    1
    28    10    12    1
    29    26    17    1
    30    26    24   ar
    31    15    20    1
    32    15    14   ar
    33    20    21    3
    34    17    18   ar
    35    21    22    1
    36    37    36   ar
    37    37    47    1
    38    18    14   ar
    39    18    19    1
    40     7     2    1
    41     7     8    1
    42    14     4    1
    43    36    42    1
    44     4     5   ar
    45     2     1   ar
    46    47    48    3
    47    25    24   ar
    48    25    28    1
    49    24    32    1
    50    48    49    1
    51     5     1   ar
    52     1     6    1
