@<TRIPOS>MOLECULE
mol_data/opt/cam/geoms/mol2/12fl12fl.out
 26 27 0 0 0
SMALL
GASTEIGER

@<TRIPOS>ATOM
      1 C           0.0276    1.7321   -0.0000 C.ar    1  LIG1        0.1379
      2 C           1.3819    1.6549    0.0001 C.ar    1  LIG1        0.1979
      3 C           1.8593    3.0134    0.0001 C.ar    1  LIG1        0.2109
      4 C           0.7419    3.8084   -0.0000 C.ar    1  LIG1        0.2186
      5 O          -0.3704    3.0276   -0.0001 O.2     1  LIG1       -0.4521
      6 H          -0.7399    0.9773   -0.0001 H       1  LIG1        0.1069
      7 O           2.0599    0.4717    0.0002 O.3     1  LIG1       -0.5012
      8 H           3.0061    0.6314    0.0004 H       1  LIG1        0.2924
      9 O           3.1223    3.5163    0.0002 O.3     1  LIG1       -0.4883
     10 C           4.2074    2.6242   -0.0002 C.3     1  LIG1        0.0791
     11 H           5.1089    3.2372   -0.0004 H       1  LIG1        0.0660
     12 H           4.2267    1.9965    0.9020 H       1  LIG1        0.0660
     13 H           4.2262    1.9968   -0.9026 H       1  LIG1        0.0660
     14 C           0.5069    5.2330   -0.0001 C.ar    1  LIG1        0.2184
     15 C           1.3037    6.3484    0.0001 C.ar    1  LIG1        0.2086
     16 C           0.4081    7.4760   -0.0001 C.ar    1  LIG1        0.2002
     17 C          -0.8479    6.9613   -0.0003 C.ar    1  LIG1        0.1381
     18 O          -0.8017    5.6102   -0.0003 O.2     1  LIG1       -0.4521
     19 H          -1.8190    7.4262   -0.0005 H       1  LIG1        0.1069
     20 O           2.6647    6.3171    0.0003 O.3     1  LIG1       -0.5007
     21 H           3.0087    7.2130    0.0007 H       1  LIG1        0.2924
     22 O           0.6395    8.8195   -0.0001 O.3     1  LIG1       -0.4888
     23 C           1.9678    9.2821   -0.0003 C.3     1  LIG1        0.0791
     24 H           1.9155   10.3710   -0.0005 H       1  LIG1        0.0660
     25 H           2.5130    8.9714    0.9019 H       1  LIG1        0.0660
     26 H           2.5129    8.9710   -0.9024 H       1  LIG1        0.0660
@<TRIPOS>BOND
     1    13    10    1
     2    26    23    1
     3    19    17    1
     4    24    23    1
     5    11    10    1
     6    17    18   ar
     7    17    16   ar
     8    18    14   ar
     9    23    22    1
    10    23    25    1
    11    10     9    1
    12    10    12    1
    13     5     1   ar
    14     5     4   ar
    15     6     1    1
    16    16    22    1
    17    16    15   ar
    18    14     4    1
    19    14    15   ar
    20     1     2   ar
    21     4     3   ar
    22    15    20    1
    23     2     3   ar
    24     2     7    1
    25     3     9    1
    26     7     8    1
    27    20    21    1
