@<TRIPOS>MOLECULE
mol_data/opt/cam/geoms/mol2/12fl12fl-12fl-12fl-.out
 50 53 0 0 0
SMALL
GASTEIGER

@<TRIPOS>ATOM
      1 C          -0.5204    1.8386    0.2054 C.ar    1  LIG1        0.1379
      2 C           0.7810    1.4864    0.1115 C.ar    1  LIG1        0.1979
      3 C           1.5544    2.6931    0.1289 C.ar    1  LIG1        0.2109
      4 C           0.6654    3.7262    0.2271 C.ar    1  LIG1        0.2186
      5 O          -0.6038    3.2103    0.2849 O.2     1  LIG1       -0.4521
      6 H          -1.4455    1.2910    0.2395 H       1  LIG1        0.1069
      7 O           1.3191    0.2532    0.0200 O.3     1  LIG1       -0.5012
      8 H           2.2776    0.3783   -0.0437 H       1  LIG1        0.2924
      9 O           2.9031    2.6142    0.0080 O.3     1  LIG1       -0.4883
     10 C           3.6968    3.3840    0.9136 C.3     1  LIG1        0.0791
     11 H           4.7103    2.9899    0.8366 H       1  LIG1        0.0660
     12 H           3.6916    4.4400    0.6406 H       1  LIG1        0.0660
     13 H           3.3327    3.2657    1.9393 H       1  LIG1        0.0660
     14 C           0.7065    5.1580    0.2700 C.ar    1  LIG1        0.2194
     15 C          -0.3120    6.0657    0.3712 C.ar    1  LIG1        0.2094
     16 C           0.2987    7.3527    0.3331 C.ar    1  LIG1        0.2117
     17 C           1.6479    7.1490    0.2235 C.ar    1  LIG1        0.2197
     18 O           1.9026    5.8166    0.1883 O.2     1  LIG1       -0.4407
     19 O          -1.6409    5.8468    0.4716 O.3     1  LIG1       -0.5007
     20 H          -1.7857    4.8884    0.4445 H       1  LIG1        0.2924
     21 O          -0.3041    8.5776    0.4410 O.3     1  LIG1       -0.4883
     22 C          -1.3309    8.8220   -0.5284 C.3     1  LIG1        0.0791
     23 H          -1.7266    9.8140   -0.3124 H       1  LIG1        0.0660
     24 H          -0.9152    8.7982   -1.5405 H       1  LIG1        0.0660
     25 H          -2.1221    8.0761   -0.4342 H       1  LIG1        0.0660
     26 C           2.7520    8.0589    0.2021 C.ar    1  LIG1        0.2195
     27 C           2.8205    9.4178    0.3738 C.ar    1  LIG1        0.2094
     28 C           4.1969    9.7579    0.2331 C.ar    1  LIG1        0.2117
     29 C           4.8782    8.5934    0.0014 C.ar    1  LIG1        0.2196
     30 O           4.0090    7.5545   -0.0118 O.2     1  LIG1       -0.4407
     31 O           1.8439   10.3095    0.6205 O.3     1  LIG1       -0.5007
     32 H           0.9852    9.8403    0.6426 H       1  LIG1        0.2924
     33 O           4.7678   10.9954    0.3598 O.3     1  LIG1       -0.4883
     34 C           4.2569   11.9807   -0.5451 C.3     1  LIG1        0.0791
     35 H           4.7911   12.9049   -0.3259 H       1  LIG1        0.0660
     36 H           4.4419   11.6814   -1.5815 H       1  LIG1        0.0660
     37 H           3.1865   12.1204   -0.3826 H       1  LIG1        0.0660
     38 C           6.2779    8.3300   -0.1727 C.ar    1  LIG1        0.2184
     39 C           7.3764    9.1361   -0.0281 C.ar    1  LIG1        0.2086
     40 C           8.5065    8.3167   -0.3467 C.ar    1  LIG1        0.2002
     41 C           8.0193    7.0842   -0.6553 C.ar    1  LIG1        0.1381
     42 O           6.6620    7.0767   -0.5564 O.2     1  LIG1       -0.4521
     43 H           8.4814    6.1576   -0.9497 H       1  LIG1        0.1069
     44 O           7.4734   10.4224    0.3435 O.3     1  LIG1       -0.5007
     45 H           6.5731   10.7849    0.4559 H       1  LIG1        0.2924
     46 O           9.7714    8.7818   -0.3096 O.3     1  LIG1       -0.4888
     47 C          10.7596    7.8293   -0.6399 C.3     1  LIG1        0.0791
     48 H          11.7219    8.3349   -0.5674 H       1  LIG1        0.0660
     49 H          10.7392    6.9816    0.0566 H       1  LIG1        0.0660
     50 H          10.6207    7.4539   -1.6616 H       1  LIG1        0.0660
@<TRIPOS>BOND
     1    50    47    1
     2    36    34    1
     3    24    22    1
     4    43    41    1
     5    41    42   ar
     6    41    40   ar
     7    47    48    1
     8    47    46    1
     9    47    49    1
    10    42    38   ar
    11    34    37    1
    12    34    35    1
    13    34    33    1
    14    22    25    1
    15    22    23    1
    16    22    21    1
    17    40    46    1
    18    40    39   ar
    19    38    39   ar
    20    38    29    1
    21     8     7    1
    22    39    44    1
    23    30    29   ar
    24    30    26   ar
    25    29    28   ar
    26     9     3    1
    27     9    10    1
    28     7     2    1
    29     2     3   ar
    30     2     1   ar
    31     3     4   ar
    32    18    17   ar
    33    18    14   ar
    34    26    17    1
    35    26    27   ar
    36     1     6    1
    37     1     5   ar
    38    17    16   ar
    39     4    14    1
    40     4     5   ar
    41    28    33    1
    42    28    27   ar
    43    14    15   ar
    44    16    15   ar
    45    16    21    1
    46    44    45    1
    47    15    19    1
    48    27    31    1
    49    20    19    1
    50    31    32    1
    51    12    10    1
    52    11    10    1
    53    10    13    1
