@<TRIPOS>MOLECULE
mol_data/opt/cam/geoms/mol2/12fl12fl-.out
 26 27 0 0 0
SMALL
GASTEIGER

@<TRIPOS>ATOM
      1 C           0.0405    1.8477   -0.0000 C.ar    1  LIG1        0.1379
      2 C           1.3902    1.7200    0.0001 C.ar    1  LIG1        0.1979
      3 C           1.9287    3.0588    0.0001 C.ar    1  LIG1        0.2109
      4 C           0.8517    3.8988   -0.0000 C.ar    1  LIG1        0.2186
      5 O          -0.3021    3.1691   -0.0001 O.2     1  LIG1       -0.4521
      6 H          -0.7581    1.1266   -0.0001 H       1  LIG1        0.1069
      7 O           2.0194    0.5135    0.0002 O.3     1  LIG1       -0.5012
      8 H           2.9717    0.6342    0.0006 H       1  LIG1        0.2924
      9 O           3.2077    3.5214    0.0003 O.3     1  LIG1       -0.4883
     10 C           4.2615    2.5895   -0.0002 C.3     1  LIG1        0.0791
     11 H           5.1845    3.1691   -0.0004 H       1  LIG1        0.0660
     12 H           4.2567    1.9623    0.9023 H       1  LIG1        0.0660
     13 H           4.2561    1.9626   -0.9029 H       1  LIG1        0.0660
     14 C           0.6736    5.3227   -0.0000 C.ar    1  LIG1        0.2184
     15 C          -0.4777    6.0585   -0.0002 C.ar    1  LIG1        0.2086
     16 C          -0.0704    7.4297   -0.0002 C.ar    1  LIG1        0.2002
     17 C           1.2910    7.4266   -0.0000 C.ar    1  LIG1        0.1381
     18 O           1.7580    6.1456    0.0000 O.2     1  LIG1       -0.4521
     19 H           2.0344    8.2047   -0.0000 H       1  LIG1        0.1069
     20 O          -1.7640    5.6483   -0.0002 O.3     1  LIG1       -0.5007
     21 H          -1.7667    4.6807   -0.0002 H       1  LIG1        0.2924
     22 O          -0.9506    8.4512   -0.0002 O.3     1  LIG1       -0.4888
     23 C          -0.3631    9.7350   -0.0002 C.3     1  LIG1        0.0791
     24 H          -1.1802   10.4556   -0.0003 H       1  LIG1        0.0660
     25 H           0.2565    9.8854    0.8927 H       1  LIG1        0.0660
     26 H           0.2567    9.8854   -0.8931 H       1  LIG1        0.0660
@<TRIPOS>BOND
     1    13    10    1
     2    26    23    1
     3    11    10    1
     4    24    23    1
     5    22    23    1
     6    22    16    1
     7    20    21    1
     8    20    15    1
     9    23    25    1
    10    10     9    1
    11    10    12    1
    12    16    15   ar
    13    16    17   ar
    14    15    14   ar
    15     6     1    1
    16     5     1   ar
    17     5     4   ar
    18    17    19    1
    19    17    18   ar
    20    14     4    1
    21    14    18   ar
    22     1     2   ar
    23     4     3   ar
    24     2     3   ar
    25     2     7    1
    26     3     9    1
    27     7     8    1
