@<TRIPOS>MOLECULE
mol_data/opt/cam/geoms/mol2/12fl12fl12fl.out
 38 40 0 0 0
SMALL
GASTEIGER

@<TRIPOS>ATOM
      1 C           0.1099    1.6448   -0.0001 C.ar    1  LIG1        0.1379
      2 C           1.4652    1.5809   -0.0000 C.ar    1  LIG1        0.1979
      3 C           1.9294    2.9433    0.0000 C.ar    1  LIG1        0.2109
      4 C           0.8034    3.7281    0.0000 C.ar    1  LIG1        0.2186
      5 O          -0.3007    2.9359   -0.0001 O.2     1  LIG1       -0.4521
      6 H          -0.6501    0.8825   -0.0002 H       1  LIG1        0.1069
      7 O           2.1549    0.4041   -0.0001 O.3     1  LIG1       -0.5012
      8 H           3.0992    0.5741    0.0002 H       1  LIG1        0.2924
      9 O           3.1877    3.4588    0.0001 O.3     1  LIG1       -0.4883
     10 C           4.2807    2.5769   -0.0003 C.3     1  LIG1        0.0791
     11 H           5.1767    3.1979   -0.0004 H       1  LIG1        0.0660
     12 H           4.3056    1.9491    0.9018 H       1  LIG1        0.0660
     13 H           4.3051    1.9494   -0.9026 H       1  LIG1        0.0660
     14 C           0.5554    5.1479    0.0001 C.ar    1  LIG1        0.2194
     15 C           1.3389    6.2724    0.0002 C.ar    1  LIG1        0.2094
     16 C           0.4395    7.3908    0.0002 C.ar    1  LIG1        0.2117
     17 C          -0.8282    6.8687    0.0001 C.ar    1  LIG1        0.2196
     18 O          -0.7553    5.5134    0.0000 O.2     1  LIG1       -0.4407
     19 O           2.6996    6.2528    0.0003 O.3     1  LIG1       -0.5007
     20 H           3.0369    7.1511    0.0006 H       1  LIG1        0.2924
     21 O           0.6780    8.7292    0.0003 O.3     1  LIG1       -0.4883
     22 C           2.0033    9.1947   -0.0002 C.3     1  LIG1        0.0791
     23 H           1.9447   10.2833   -0.0005 H       1  LIG1        0.0660
     24 H           2.5507    8.8876    0.9022 H       1  LIG1        0.0660
     25 H           2.5501    8.8872   -0.9028 H       1  LIG1        0.0660
     26 C          -2.1582    7.4242   -0.0000 C.ar    1  LIG1        0.2184
     27 C          -2.6815    8.6924   -0.0000 C.ar    1  LIG1        0.2086
     28 C          -4.1117    8.5313   -0.0001 C.ar    1  LIG1        0.2002
     29 C          -4.3417    7.1932   -0.0002 C.ar    1  LIG1        0.1381
     30 O          -3.1726    6.5157   -0.0001 O.2     1  LIG1       -0.4521
     31 H          -5.2510    6.6166   -0.0003 H       1  LIG1        0.1069
     32 O          -1.9329    9.8298    0.0001 O.3     1  LIG1       -0.5007
     33 H          -2.5105   10.5962    0.0003 H       1  LIG1        0.2924
     34 O          -5.1286    9.4398   -0.0002 O.3     1  LIG1       -0.4888
     35 C          -4.8166   10.8112   -0.0007 C.3     1  LIG1        0.0791
     36 H          -5.7675   11.3443   -0.0010 H       1  LIG1        0.0660
     37 H          -4.2640   11.1089    0.9014 H       1  LIG1        0.0660
     38 H          -4.2638   11.1082   -0.9028 H       1  LIG1        0.0660
@<TRIPOS>BOND
     1    25    22    1
     2    38    35    1
     3    13    10    1
     4    36    35    1
     5    35    34    1
     6    35    37    1
     7    23    22    1
     8    11    10    1
     9    10     9    1
    10    10    12    1
    11    31    29    1
    12    22    21    1
    13    22    24    1
    14    29    28   ar
    15    29    30   ar
    16    34    28    1
    17     6     1    1
    18    28    27   ar
    19    30    26   ar
    20     1     5   ar
    21     1     2   ar
    22     7     2    1
    23     7     8    1
    24     5     4   ar
    25     2     3   ar
    26    26    27   ar
    27    26    17    1
    28    27    32    1
    29    18    17   ar
    30    18    14   ar
    31     4     3   ar
    32     4    14    1
    33     3     9    1
    34    17    16   ar
    35    32    33    1
    36    14    15   ar
    37    16    15   ar
    38    16    21    1
    39    15    19    1
    40    19    20    1
