@<TRIPOS>MOLECULE
mol_data/opt/cam/geoms/mol2/12fl12fl-12fl.out
 38 40 0 0 0
SMALL
GASTEIGER

@<TRIPOS>ATOM
      1 C          -0.0013    1.8322    0.0001 C.ar    1  LIG1        0.1379
      2 C           1.3501    1.7225    0.0001 C.ar    1  LIG1        0.1979
      3 C           1.8713    3.0676    0.0000 C.ar    1  LIG1        0.2109
      4 C           0.7831    3.8945    0.0000 C.ar    1  LIG1        0.2186
      5 O          -0.3613    3.1488    0.0001 O.2     1  LIG1       -0.4521
      6 H          -0.7902    1.1006    0.0002 H       1  LIG1        0.1069
      7 O           1.9957    0.5241    0.0001 O.3     1  LIG1       -0.5012
      8 H           2.9460    0.6592    0.0003 H       1  LIG1        0.2924
      9 O           3.1437    3.5463   -0.0000 O.3     1  LIG1       -0.4883
     10 C           4.2081    2.6289   -0.0006 C.3     1  LIG1        0.0791
     11 H           5.1234    3.2207   -0.0008 H       1  LIG1        0.0660
     12 H           4.2124    2.0010    0.9018 H       1  LIG1        0.0660
     13 H           4.2116    2.0012   -0.9031 H       1  LIG1        0.0660
     14 C           0.5842    5.3133   -0.0000 C.ar    1  LIG1        0.2194
     15 C          -0.5726    6.0348   -0.0000 C.ar    1  LIG1        0.2094
     16 C          -0.2036    7.4149   -0.0001 C.ar    1  LIG1        0.2117
     17 C           1.1773    7.4436   -0.0002 C.ar    1  LIG1        0.2196
     18 O           1.6480    6.1554   -0.0001 O.2     1  LIG1       -0.4407
     19 O          -1.8537    5.6106    0.0000 O.3     1  LIG1       -0.5007
     20 H          -1.8442    4.6431    0.0001 H       1  LIG1        0.2924
     21 O          -1.1987    8.3236   -0.0001 O.3     1  LIG1       -0.4883
     22 C          -0.9216    9.7096   -0.0002 C.3     1  LIG1        0.0791
     23 H          -1.8948   10.2013   -0.0002 H       1  LIG1        0.0660
     24 H          -0.3588   10.0070    0.8882 H       1  LIG1        0.0660
     25 H          -0.3590   10.0068   -0.8888 H       1  LIG1        0.0660
     26 C           2.2373    8.4248   -0.0002 C.ar    1  LIG1        0.2184
     27 C           3.6018    8.2796    0.0002 C.ar    1  LIG1        0.2086
     28 C           4.1457    9.6139   -0.0002 C.ar    1  LIG1        0.2002
     29 C           3.0834   10.4568   -0.0008 C.ar    1  LIG1        0.1381
     30 O           1.9261    9.7485   -0.0008 O.2     1  LIG1       -0.4521
     31 H           3.0091   11.5306   -0.0012 H       1  LIG1        0.1069
     32 O           4.2412    7.0787    0.0008 O.3     1  LIG1       -0.5007
     33 H           5.1905    7.2191    0.0013 H       1  LIG1        0.2924
     34 O           5.4288   10.0709   -0.0000 O.3     1  LIG1       -0.4888
     35 C           6.4851    9.1409    0.0000 C.3     1  LIG1        0.0791
     36 H           7.4072    9.7224   -0.0002 H       1  LIG1        0.0660
     37 H           6.4819    8.5142    0.9025 H       1  LIG1        0.0660
     38 H           6.4817    8.5138   -0.9020 H       1  LIG1        0.0660
@<TRIPOS>BOND
     1    13    10    1
     2    38    35    1
     3    25    22    1
     4    31    29    1
     5    11    10    1
     6    30    29   ar
     7    30    26   ar
     8    29    28   ar
     9    10     9    1
    10    10    12    1
    11    26    17    1
    12    26    27   ar
    13    22    23    1
    14    22    21    1
    15    22    24    1
    16    36    35    1
    17    28    34    1
    18    28    27   ar
    19    17    18   ar
    20    17    16   ar
    21    18    14   ar
    22    16    21    1
    23    16    15   ar
    24    15    14   ar
    25    15    19    1
    26    14     4    1
    27    34    35    1
    28     9     3    1
    29     4     3   ar
    30     4     5   ar
    31    19    20    1
    32     3     2   ar
    33    35    37    1
    34     5     1   ar
    35     2     1   ar
    36     2     7    1
    37     1     6    1
    38     7     8    1
    39    27    32    1
    40    32    33    1
