@<TRIPOS>MOLECULE
mol_data/opt/cam/geoms/mol2/12fl12fl-12fl12fl-.out
 50 53 0 0 0
SMALL
GASTEIGER

@<TRIPOS>ATOM
      1 C           0.1477    1.7016   -0.0001 C.ar    1  LIG1        0.1379
      2 C           1.5030    1.6656   -0.0004 C.ar    1  LIG1        0.1979
      3 C           1.9500    3.0373   -0.0004 C.ar    1  LIG1        0.2109
      4 C           0.8181    3.8034   -0.0001 C.ar    1  LIG1        0.2186
      5 O          -0.2839    2.9963    0.0001 O.2     1  LIG1       -0.4521
      6 H          -0.6000    0.9278   -0.0001 H       1  LIG1        0.1069
      7 O           2.2124    0.5041   -0.0007 O.3     1  LIG1       -0.5012
      8 H           3.1542    0.6893   -0.0009 H       1  LIG1        0.2924
      9 O           3.1941    3.5844   -0.0006 O.3     1  LIG1       -0.4883
     10 C           4.3072    2.7263   -0.0011 C.3     1  LIG1        0.0791
     11 H           5.1887    3.3672   -0.0012 H       1  LIG1        0.0660
     12 H           4.3455    2.0999    0.9013 H       1  LIG1        0.0660
     13 H           4.3450    2.1001   -0.9036 H       1  LIG1        0.0660
     14 C           0.5408    5.2086    0.0001 C.ar    1  LIG1        0.2194
     15 C          -0.6535    5.8647    0.0004 C.ar    1  LIG1        0.2094
     16 C          -0.3611    7.2619    0.0004 C.ar    1  LIG1        0.2117
     17 C           1.0173    7.3730    0.0002 C.ar    1  LIG1        0.2197
     18 O           1.5544    6.1095   -0.0000 O.2     1  LIG1       -0.4407
     19 O          -1.9096    5.3728    0.0006 O.3     1  LIG1       -0.5007
     20 H          -1.8490    4.4071    0.0005 H       1  LIG1        0.2924
     21 O          -1.4128    8.1067    0.0007 O.3     1  LIG1       -0.4883
     22 C          -1.2230    9.5000    0.0005 C.3     1  LIG1        0.0791
     23 H          -2.2195    9.9412    0.0010 H       1  LIG1        0.0660
     24 H          -0.6878    9.8284    0.8986 H       1  LIG1        0.0660
     25 H          -0.6888    9.8281   -0.8984 H       1  LIG1        0.0660
     26 C           2.0441    8.3882    0.0002 C.ar    1  LIG1        0.2195
     27 C           3.4112    8.2629    0.0005 C.ar    1  LIG1        0.2094
     28 C           3.9518    9.5930    0.0003 C.ar    1  LIG1        0.2117
     29 C           2.8856   10.4443   -0.0001 C.ar    1  LIG1        0.2196
     30 O           1.7227    9.7204   -0.0001 O.2     1  LIG1       -0.4407
     31 O           4.0655    7.0733    0.0009 O.3     1  LIG1       -0.5007
     32 H           5.0129    7.2271    0.0011 H       1  LIG1        0.2924
     33 O           5.2319   10.0503    0.0005 O.3     1  LIG1       -0.4883
     34 C           6.2943    9.1278    0.0008 C.3     1  LIG1        0.0791
     35 H           7.2107    9.7179    0.0008 H       1  LIG1        0.0660
     36 H           6.2965    8.5018    0.9039 H       1  LIG1        0.0660
     37 H           6.2968    8.5014   -0.9020 H       1  LIG1        0.0660
     38 C           2.7527   11.8713   -0.0003 C.ar    1  LIG1        0.2184
     39 C           1.6391   12.6633   -0.0005 C.ar    1  LIG1        0.2086
     40 C           2.1077   14.0134   -0.0007 C.ar    1  LIG1        0.2002
     41 C           3.4673   13.9470   -0.0006 C.ar    1  LIG1        0.1381
     42 O           3.8737   12.6455   -0.0003 O.2     1  LIG1       -0.4521
     43 H           4.2464   14.6894   -0.0007 H       1  LIG1        0.1069
     44 O           0.3353   12.3083   -0.0006 O.3     1  LIG1       -0.5007
     45 H           0.2994   11.3434   -0.0005 H       1  LIG1        0.2924
     46 O           1.2750   15.0738   -0.0010 O.3     1  LIG1       -0.4888
     47 C           1.9203   16.3299   -0.0012 C.3     1  LIG1        0.0791
     48 H           1.1369   17.0869   -0.0014 H       1  LIG1        0.0660
     49 H           2.5461   16.4517    0.8918 H       1  LIG1        0.0660
     50 H           2.5463   16.4514   -0.8941 H       1  LIG1        0.0660
@<TRIPOS>BOND
     1    13    10    1
     2    37    34    1
     3    25    22    1
     4    50    47    1
     5    48    47    1
     6    11    10    1
     7    47    46    1
     8    47    49    1
     9    10     9    1
    10    10    12    1
    11    46    40    1
    12     8     7    1
    13    40    41   ar
    14    40    39   ar
    15     7     2    1
    16    43    41    1
    17     9     3    1
    18    41    42   ar
    19    44    39    1
    20    44    45    1
    21    39    38   ar
    22     2     3   ar
    23     2     1   ar
    24     3     4   ar
    25    42    38   ar
    26    38    29    1
    27     1     6    1
    28     1     5   ar
    29    30    29   ar
    30    30    26   ar
    31     4     5   ar
    32     4    14    1
    33    29    28   ar
    34    18    14   ar
    35    18    17   ar
    36    14    15   ar
    37    17    26    1
    38    17    16   ar
    39    26    27   ar
    40    28    33    1
    41    28    27   ar
    42    15    16   ar
    43    15    19    1
    44    16    21    1
    45    33    34    1
    46    22    21    1
    47    22    23    1
    48    22    24    1
    49    20    19    1
    50    27    31    1
    51    34    35    1
    52    34    36    1
    53    31    32    1
