@<TRIPOS>MOLECULE
mol_data/opt/cam/geoms/mol2/12fl12fl-12fl12fl.out
 50 53 0 0 0
SMALL
GASTEIGER

@<TRIPOS>ATOM
      1 C           0.0422    1.6849   -0.0007 C.ar    1  LIG1        0.1379
      2 C           1.3958    1.6085   -0.0007 C.ar    1  LIG1        0.1979
      3 C           1.8839    2.9658   -0.0005 C.ar    1  LIG1        0.2109
      4 C           0.7758    3.7661   -0.0003 C.ar    1  LIG1        0.2186
      5 O          -0.3499    2.9924   -0.0004 O.2     1  LIG1       -0.4521
      6 H          -0.7287    0.9342   -0.0008 H       1  LIG1        0.1069
      7 O           2.0705    0.4259   -0.0009 O.3     1  LIG1       -0.5012
      8 H           3.0173    0.5841   -0.0006 H       1  LIG1        0.2924
      9 O           3.1444    3.4754   -0.0003 O.3     1  LIG1       -0.4883
     10 C           4.2307    2.5845   -0.0012 C.3     1  LIG1        0.0791
     11 H           5.1312    3.1985   -0.0013 H       1  LIG1        0.0660
     12 H           4.2504    1.9566    0.9010 H       1  LIG1        0.0660
     13 H           4.2496    1.9573   -0.9038 H       1  LIG1        0.0660
     14 C           0.5429    5.1794   -0.0001 C.ar    1  LIG1        0.2194
     15 C          -0.6313    5.8731    0.0001 C.ar    1  LIG1        0.2094
     16 C          -0.2974    7.2619    0.0004 C.ar    1  LIG1        0.2117
     17 C           1.0836    7.3226    0.0004 C.ar    1  LIG1        0.2197
     18 O           1.5868    6.0465    0.0001 O.2     1  LIG1       -0.4407
     19 O          -1.9013    5.4165    0.0000 O.3     1  LIG1       -0.5007
     20 H          -1.8674    4.4495   -0.0002 H       1  LIG1        0.2924
     21 O          -1.3130    8.1458    0.0006 O.3     1  LIG1       -0.4883
     22 C          -1.0774    9.5424    0.0012 C.3     1  LIG1        0.0791
     23 H          -2.0666   10.0012    0.0015 H       1  LIG1        0.0660
     24 H          -0.5240    9.8590    0.8878 H       1  LIG1        0.0660
     25 H          -0.5242    9.8598   -0.8853 H       1  LIG1        0.0660
     26 C           2.1092    8.3341    0.0005 C.ar    1  LIG1        0.2195
     27 C           3.4785    8.2485    0.0011 C.ar    1  LIG1        0.2094
     28 C           3.9693    9.5985    0.0008 C.ar    1  LIG1        0.2117
     29 C           2.8675   10.4125    0.0001 C.ar    1  LIG1        0.2196
     30 O           1.7458    9.6416   -0.0001 O.2     1  LIG1       -0.4407
     31 O           4.1636    7.0732    0.0018 O.3     1  LIG1       -0.5007
     32 H           5.1071    7.2476    0.0027 H       1  LIG1        0.2924
     33 O           5.2359   10.0889    0.0012 O.3     1  LIG1       -0.4883
     34 C           6.3219    9.1968    0.0010 C.3     1  LIG1        0.0791
     35 H           7.2219    9.8118    0.0007 H       1  LIG1        0.0660
     36 H           6.3422    8.5703    0.9036 H       1  LIG1        0.0660
     37 H           6.3416    8.5700   -0.9015 H       1  LIG1        0.0660
     38 C           2.6379   11.8341   -0.0004 C.ar    1  LIG1        0.2184
     39 C           3.4373   12.9481   -0.0004 C.ar    1  LIG1        0.2086
     40 C           2.5444   14.0779   -0.0012 C.ar    1  LIG1        0.2002
     41 C           1.2865   13.5680   -0.0016 C.ar    1  LIG1        0.1381
     42 O           1.3285   12.2148   -0.0011 O.2     1  LIG1       -0.4521
     43 H           0.3172   14.0364   -0.0021 H       1  LIG1        0.1069
     44 O           4.7979   12.9098    0.0002 O.3     1  LIG1       -0.5007
     45 H           5.1480   13.8034    0.0004 H       1  LIG1        0.2924
     46 O           2.7798   15.4198   -0.0015 O.3     1  LIG1       -0.4888
     47 C           4.1100   15.8781   -0.0016 C.3     1  LIG1        0.0791
     48 H           4.0611   16.9671   -0.0022 H       1  LIG1        0.0660
     49 H           4.6534   15.5657    0.9009 H       1  LIG1        0.0660
     50 H           4.6536   15.5647   -0.9036 H       1  LIG1        0.0660
@<TRIPOS>BOND
     1    13    10    1
     2    50    47    1
     3    37    34    1
     4    25    22    1
     5    48    47    1
     6    43    41    1
     7    47    46    1
     8    47    49    1
     9    41    40   ar
    10    41    42   ar
    11    46    40    1
    12    11    10    1
    13    40    39   ar
    14    10     9    1
    15    10    12    1
    16    42    38   ar
    17     7     2    1
    18     7     8    1
    19     6     1    1
    20     2     1   ar
    21     2     3   ar
    22     1     5   ar
    23     3     9    1
    24     3     4   ar
    25     5     4   ar
    26    38    39   ar
    27    38    29    1
    28    39    44    1
    29     4    14    1
    30    20    19    1
    31    30    29   ar
    32    30    26   ar
    33    14    15   ar
    34    14    18   ar
    35    19    15    1
    36    15    16   ar
    37    29    28   ar
    38    18    17   ar
    39    44    45    1
    40    16    17   ar
    41    16    21    1
    42    17    26    1
    43    26    27   ar
    44    21    22    1
    45    35    34    1
    46    28    27   ar
    47    28    33    1
    48    34    33    1
    49    34    36    1
    50    27    31    1
    51    22    23    1
    52    22    24    1
    53    31    32    1
