@<TRIPOS>MOLECULE
mol_data/opt/cam/geoms/mol2/12fl.out
 14 14 0 0 0
SMALL
GASTEIGER

@<TRIPOS>ATOM
      1 C           0.0375    1.8936   -0.0001 C.ar    1  LIG1        0.1368
      2 C           1.3903    1.7778    0.0001 C.ar    1  LIG1        0.1971
      3 C           1.8999    3.1279    0.0000 C.ar    1  LIG1        0.1994
      4 C           0.8079    3.9365   -0.0001 C.ar    1  LIG1        0.1370
      5 O          -0.3276    3.1999   -0.0001 O.2     1  LIG1       -0.4635
      6 H          -0.7482    1.1573   -0.0001 H       1  LIG1        0.1069
      7 H           0.7070    5.0087   -0.0002 H       1  LIG1        0.1069
      8 O           2.0363    0.5764    0.0002 O.3     1  LIG1       -0.5012
      9 H           2.9865    0.7105    0.0003 H       1  LIG1        0.2924
     10 O           3.1710    3.6200    0.0001 O.3     1  LIG1       -0.4888
     11 C           4.2411    2.7063   -0.0001 C.3     1  LIG1        0.0791
     12 H           5.1555    3.2996   -0.0002 H       1  LIG1        0.0660
     13 H           4.2455    2.0786    0.9017 H       1  LIG1        0.0660
     14 H           4.2452    2.0786   -0.9020 H       1  LIG1        0.0660
@<TRIPOS>BOND
     1    14    11    1
     2    12    11    1
     3     7     4    1
     4     5     4   ar
     5     5     1   ar
     6     4     3   ar
     7    11    10    1
     8    11    13    1
     9     6     1    1
    10     1     2   ar
    11     3     2   ar
    12     3    10    1
    13     2     8    1
    14     8     9    1
