@<TRIPOS>MOLECULE
mol_data/opt/cam/geoms/mol2/12fl6aa-4ef13il-.out
 51 54 0 0 0
SMALL
GASTEIGER

@<TRIPOS>ATOM
      1 C           0.0311    1.3403   -0.1493 C.ar    1  LIG1        0.1377
      2 C           1.3480    1.2887    0.1676 C.ar    1  LIG1        0.1978
      3 C           1.7776    2.6418    0.3195 C.ar    1  LIG1        0.2077
      4 C           0.6919    3.4388    0.0910 C.ar    1  LIG1        0.1815
      5 O          -0.3710    2.6454   -0.2029 O.2     1  LIG1       -0.4553
      6 H          -0.7144    0.5915   -0.3544 H       1  LIG1        0.1069
      7 O           2.1365    0.1991    0.3144 O.3     1  LIG1       -0.5012
      8 H           2.9609    0.5006    0.7207 H       1  LIG1        0.2924
      9 O           3.0591    2.9845    0.6506 O.3     1  LIG1       -0.4884
     10 C           3.8802    3.2854   -0.4797 C.3     1  LIG1        0.0791
     11 H           4.8818    3.4792   -0.0948 H       1  LIG1        0.0660
     12 H           3.9105    2.4422   -1.1776 H       1  LIG1        0.0660
     13 H           3.5115    4.1719   -1.0049 H       1  LIG1        0.0660
     14 C          -0.6872    5.4525   -0.3808 C.ar    1  LIG1        0.0390
     15 C           0.4895    4.8768    0.1095 C.ar    1  LIG1        0.0391
     16 C           1.4500    5.7470    0.6293 C.ar    1  LIG1       -0.0475
     17 C           1.2160    7.1101    0.6113 C.ar    1  LIG1       -0.0350
     18 C           0.0207    7.5939    0.0719 C.ar    1  LIG1        0.0723
     19 N          -0.9174    6.7570   -0.3969 N.ar    1  LIG1       -0.2542
     20 H           2.3608    5.3488    1.0632 H       1  LIG1        0.0626
     21 H          -1.4735    4.8154   -0.7757 H       1  LIG1        0.0837
     22 H           1.9460    7.7921    1.0233 H       1  LIG1        0.0639
     23 C           0.5976   10.0941   -0.0547 C.ar    1  LIG1        0.0347
     24 C           0.1329   11.4141   -0.0630 C.ar    1  LIG1       -0.0331
     25 C          -0.3287    9.0374    0.0356 C.ar    1  LIG1        0.0192
     26 C          -1.2152   11.7599    0.0241 C.ar    1  LIG1        0.0413
     27 H           0.8684   12.1988   -0.1670 H       1  LIG1        0.0638
     28 C          -1.6812    9.3714    0.0787 C.ar    1  LIG1       -0.0092
     29 C          -2.1210   10.6820    0.0721 C.ar    1  LIG1        0.1266
     30 H          -2.4002    8.5587    0.1098 H       1  LIG1        0.0661
     31 C           2.0115    9.9126   -0.2083 C.1     1  LIG1       -0.0690
     32 C           3.2056    9.8388   -0.3499 C.1     1  LIG1       -0.1139
     33 H           4.2599    9.7608   -0.4826 H       1  LIG1        0.1232
     34 O          -3.4626   10.9567    0.1153 O.3     1  LIG1       -0.5061
     35 H          -3.9527   10.1267    0.1455 H       1  LIG1        0.2922
     36 C          -1.6303   13.1628    0.0462 C.ar    1  LIG1        0.0565
     37 C          -0.9139   14.3188    0.3431 C.ar    1  LIG1        0.0166
     38 C          -1.8249   15.3966    0.1976 C.ar    1  LIG1        0.1408
     39 C          -3.0499   14.8963   -0.1738 C.ar    1  LIG1        0.0446
     40 N          -2.9160   13.5450   -0.2630 N.ar    1  LIG1       -0.3573
     41 H          -3.6522   12.8791   -0.4317 H       1  LIG1        0.1655
     42 H          -3.9871   15.3980   -0.3553 H       1  LIG1        0.0844
     43 C           0.4993   14.4925    0.8037 C.3     1  LIG1       -0.0342
     44 H           0.6019   15.4771    1.2663 H       1  LIG1        0.0279
     45 H           1.2263   14.4393   -0.0154 H       1  LIG1        0.0279
     46 H           0.7853   13.7410    1.5446 H       1  LIG1        0.0279
     47 O          -1.5368   16.7139    0.4412 O.3     1  LIG1       -0.4933
     48 C          -0.9674   17.3901   -0.6657 C.3     1  LIG1        0.0789
     49 H          -0.7849   18.4192   -0.3512 H       1  LIG1        0.0660
     50 H          -0.0180   16.9347   -0.9730 H       1  LIG1        0.0660
     51 H          -1.6485   17.3888   -1.5253 H       1  LIG1        0.0660
@<TRIPOS>BOND
     1    51    48    1
     2    12    10    1
     3    13    10    1
     4    50    48    1
     5    21    14    1
     6    48    49    1
     7    48    47    1
     8    33    32    1
     9    10    11    1
    10    10     9    1
    11    41    40    1
    12    19    14   ar
    13    19    18   ar
    14    14    15   ar
    15    42    39    1
    16     6     1    1
    17    32    31    3
    18    40    39   ar
    19    40    36   ar
    20    31    23    1
    21     5     1   ar
    22     5     4   ar
    23    39    38   ar
    24    27    24    1
    25     1     2   ar
    26    24    23   ar
    27    24    26   ar
    28    23    25   ar
    29    45    43    1
    30    26    36    1
    31    26    29   ar
    32    25    18    1
    33    25    28   ar
    34    36    37   ar
    35    18    17   ar
    36    29    28   ar
    37    29    34    1
    38    28    30    1
    39     4    15    1
    40     4     3   ar
    41    15    16   ar
    42    34    35    1
    43     2     7    1
    44     2     3   ar
    45    38    37   ar
    46    38    47    1
    47     7     8    1
    48     3     9    1
    49    37    43    1
    50    17    16   ar
    51    17    22    1
    52    16    20    1
    53    43    44    1
    54    43    46    1
