@<TRIPOS>MOLECULE
mol_data/opt/cam/geoms/mol2/12fl12fl12fl-12fl.out
 50 53 0 0 0
SMALL
GASTEIGER

@<TRIPOS>ATOM
      1 C          -0.0369    1.7305    0.0002 C.ar    1  LIG1        0.1379
      2 C           1.3141    1.6071    0.0002 C.ar    1  LIG1        0.1979
      3 C           1.8403    2.9474    0.0001 C.ar    1  LIG1        0.2109
      4 C           0.7521    3.7819    0.0001 C.ar    1  LIG1        0.2186
      5 O          -0.3894    3.0413    0.0002 O.2     1  LIG1       -0.4521
      6 H          -0.8305    1.0033    0.0003 H       1  LIG1        0.1069
      7 O           1.9499    0.4017    0.0003 O.3     1  LIG1       -0.5012
      8 H           2.9013    0.5272    0.0005 H       1  LIG1        0.2924
      9 O           3.1188    3.4086    0.0001 O.3     1  LIG1       -0.4883
     10 C           4.1735    2.4798   -0.0004 C.3     1  LIG1        0.0791
     11 H           5.0952    3.0618   -0.0006 H       1  LIG1        0.0660
     12 H           4.1705    1.8523    0.9020 H       1  LIG1        0.0660
     13 H           4.1698    1.8524   -0.9028 H       1  LIG1        0.0660
     14 C           0.5637    5.2083    0.0000 C.ar    1  LIG1        0.2194
     15 C           1.3739    6.3129   -0.0000 C.ar    1  LIG1        0.2094
     16 C           0.5082    7.4617   -0.0001 C.ar    1  LIG1        0.2117
     17 C          -0.7713    6.9804   -0.0001 C.ar    1  LIG1        0.2197
     18 O          -0.7419    5.6179   -0.0000 O.2     1  LIG1       -0.4407
     19 O           2.7316    6.2525    0.0000 O.3     1  LIG1       -0.5007
     20 H           3.0969    7.1401    0.0002 H       1  LIG1        0.2924
     21 O           0.7730    8.7955   -0.0002 O.3     1  LIG1       -0.4883
     22 C           2.1101    9.2269   -0.0007 C.3     1  LIG1        0.0791
     23 H           2.0800   10.3165   -0.0010 H       1  LIG1        0.0660
     24 H           2.6490    8.9053    0.9018 H       1  LIG1        0.0660
     25 H           2.6484    8.9047   -0.9034 H       1  LIG1        0.0660
     26 C          -2.0858    7.5414   -0.0002 C.ar    1  LIG1        0.2195
     27 C          -3.2960    6.9098   -0.0002 C.ar    1  LIG1        0.2094
     28 C          -4.2955    7.9304   -0.0003 C.ar    1  LIG1        0.2117
     29 C          -3.6182    9.1346   -0.0003 C.ar    1  LIG1        0.2196
     30 O          -2.2692    8.8857   -0.0003 O.2     1  LIG1       -0.4407
     31 O          -3.5840    5.5934   -0.0001 O.3     1  LIG1       -0.5007
     32 H          -2.7507    5.0991   -0.0001 H       1  LIG1        0.2924
     33 O          -5.5843    7.5366   -0.0002 O.3     1  LIG1       -0.4883
     34 C          -6.6367    8.4797   -0.0002 C.3     1  LIG1        0.0791
     35 H          -7.5550    7.8917   -0.0001 H       1  LIG1        0.0660
     36 H          -6.6069    9.1156    0.8882 H       1  LIG1        0.0660
     37 H          -6.6071    9.1154   -0.8888 H       1  LIG1        0.0660
     38 C          -3.9240   10.5460   -0.0005 C.ar    1  LIG1        0.2184
     39 C          -3.1045   11.6469    0.0001 C.ar    1  LIG1        0.2086
     40 C          -3.9760   12.7940   -0.0005 C.ar    1  LIG1        0.2002
     41 C          -5.2423   12.3088   -0.0013 C.ar    1  LIG1        0.1381
     42 O          -5.2217   10.9522   -0.0013 O.2     1  LIG1       -0.4521
     43 H          -6.2044   12.7915   -0.0019 H       1  LIG1        0.1069
     44 O          -1.7451   11.5854    0.0010 O.3     1  LIG1       -0.5007
     45 H          -1.3817   12.4735    0.0015 H       1  LIG1        0.2924
     46 O          -3.7161   14.1312   -0.0003 O.3     1  LIG1       -0.4888
     47 C          -2.3778   14.5663    0.0002 C.3     1  LIG1        0.0791
     48 H          -2.4083   15.6560   -0.0001 H       1  LIG1        0.0660
     49 H          -1.8404   14.2441    0.9026 H       1  LIG1        0.0660
     50 H          -1.8397   14.2437   -0.9018 H       1  LIG1        0.0660
@<TRIPOS>BOND
     1    25    22    1
     2    13    10    1
     3    50    47    1
     4    37    34    1
     5    43    41    1
     6    42    41   ar
     7    42    38   ar
     8    41    40   ar
     9    23    22    1
    10    22    21    1
    11    22    24    1
    12    11    10    1
    13    38    29    1
    14    38    39   ar
    15    40    46    1
    16    40    39   ar
    17    10     9    1
    18    10    12    1
    19    29    28   ar
    20    29    30   ar
    21    28    33    1
    22    28    27   ar
    23    30    26   ar
    24    46    47    1
    25    34    33    1
    26    34    35    1
    27    34    36    1
    28    27    26   ar
    29    27    31    1
    30    26    17    1
    31    21    16    1
    32    31    32    1
    33    17    16   ar
    34    17    18   ar
    35    16    15   ar
    36    48    47    1
    37    18    14   ar
    38    15    14   ar
    39    15    19    1
    40    14     4    1
    41    19    20    1
    42    39    44    1
    43     4     3   ar
    44     4     5   ar
    45     9     3    1
    46     3     2   ar
    47    47    49    1
    48     5     1   ar
    49     2     1   ar
    50     2     7    1
    51     1     6    1
    52     7     8    1
    53    44    45    1
