@<TRIPOS>MOLECULE
mol_data/opt/cam/geoms/mol2/12ga12ga12ga-12ga-.out
 34 37 0 0 0
SMALL
GASTEIGER

@<TRIPOS>ATOM
      1 C           0.5592    1.8360    0.1233 C.ar    1  LIG1        0.1058
      2 C           1.9072    1.9611    0.0045 C.ar    1  LIG1        0.0433
      3 C           2.1663    3.3594   -0.1442 C.ar    1  LIG1        0.0005
      4 C           0.9509    3.9737   -0.0922 C.ar    1  LIG1        0.1719
      5 O          -0.0357    3.0453    0.0648 O.2     1  LIG1       -0.4587
      6 H          -0.0889    0.9829    0.2444 H       1  LIG1        0.1041
      7 S           3.0602    0.6218   -0.0610 S.3     1  LIG1       -0.1396
      8 H           3.6157    0.8063    1.1507 H       1  LIG1        0.1072
      9 H           3.1236    3.8362   -0.2790 H       1  LIG1        0.0667
     10 C           0.5260    5.3508   -0.1654 C.ar    1  LIG1        0.1838
     11 C           1.1915    6.5480   -0.2467 C.ar    1  LIG1        0.0544
     12 C           0.1907    7.5611   -0.2981 C.ar    1  LIG1        0.0012
     13 C          -1.0087    6.9176   -0.2319 C.ar    1  LIG1        0.1729
     14 O          -0.8093    5.5715   -0.1573 O.2     1  LIG1       -0.4475
     15 S           2.9392    6.7852   -0.3624 S.3     1  LIG1       -0.1389
     16 H           3.1380    7.2418    0.8882 H       1  LIG1        0.1072
     17 H           0.3483    8.6243   -0.3808 H       1  LIG1        0.0668
     18 C          -2.3793    7.3623   -0.2247 C.ar    1  LIG1        0.1838
     19 C          -2.9769    8.5975   -0.2018 C.ar    1  LIG1        0.0544
     20 C          -4.3825    8.3636   -0.2190 C.ar    1  LIG1        0.0012
     21 C          -4.5452    7.0113   -0.2383 C.ar    1  LIG1        0.1729
     22 O          -3.3288    6.3975   -0.2481 O.2     1  LIG1       -0.4475
     23 S          -2.1673   10.1682   -0.2376 S.3     1  LIG1       -0.1389
     24 H          -2.3876   10.5086    1.0460 H       1  LIG1        0.1072
     25 H          -5.1635    9.1067   -0.2243 H       1  LIG1        0.0668
     26 C          -5.6981    6.1435   -0.2509 C.ar    1  LIG1        0.1828
     27 C          -7.0496    6.3599   -0.1762 C.ar    1  LIG1        0.0537
     28 C          -7.6639    5.0693   -0.2541 C.ar    1  LIG1       -0.0099
     29 C          -6.6531    4.1777   -0.3582 C.ar    1  LIG1        0.0938
     30 O          -5.4547    4.8153   -0.3620 O.2     1  LIG1       -0.4587
     31 H          -6.6124    3.1035   -0.4396 H       1  LIG1        0.1030
     32 S          -7.8745    7.9206   -0.0933 S.3     1  LIG1       -0.1389
     33 H          -8.1794    7.8945    1.2179 H       1  LIG1        0.1072
     34 H          -8.7226    4.8609   -0.2361 H       1  LIG1        0.0660
@<TRIPOS>BOND
     1    31    29    1
     2    17    12    1
     3    15    11    1
     4    15    16    1
     5    30    29   ar
     6    30    26   ar
     7    29    28   ar
     8    12    11   ar
     9    12    13   ar
    10     9     3    1
    11    28    34    1
    12    28    27   ar
    13    26    21    1
    14    26    27   ar
    15    22    21   ar
    16    22    18   ar
    17    11    10   ar
    18    21    20   ar
    19    23    19    1
    20    23    24    1
    21    13    18    1
    22    13    14   ar
    23    18    19   ar
    24    25    20    1
    25    20    19   ar
    26    27    32    1
    27    10    14   ar
    28    10     4    1
    29     3     4   ar
    30     3     2   ar
    31    32    33    1
    32     4     5   ar
    33     7     2    1
    34     7     8    1
    35     2     1   ar
    36     5     1   ar
    37     1     6    1
