@<TRIPOS>MOLECULE
mol_data/opt/cam/geoms/mol2/12ga12ga12ga.out
 26 28 0 0 0
SMALL
GASTEIGER

@<TRIPOS>ATOM
      1 C           0.4019    1.8493   -0.0985 C.ar    1  LIG1        0.1058
      2 C           1.7546    1.9566   -0.0264 C.ar    1  LIG1        0.0433
      3 C           2.0425    3.3569    0.0041 C.ar    1  LIG1        0.0005
      4 C           0.8364    3.9891   -0.0441 C.ar    1  LIG1        0.1719
      5 O          -0.1701    3.0713   -0.1130 O.2     1  LIG1       -0.4587
      6 H          -0.2638    1.0026   -0.1487 H       1  LIG1        0.1041
      7 S           2.8950    0.6059   -0.0725 S.3     1  LIG1       -0.1396
      8 H           3.2946    0.6675    1.2109 H       1  LIG1        0.1072
      9 H           3.0124    3.8245    0.0560 H       1  LIG1        0.0667
     10 C           0.4378    5.3762   -0.0442 C.ar    1  LIG1        0.1838
     11 C           1.1256    6.5628   -0.0202 C.ar    1  LIG1        0.0544
     12 C           0.1437    7.5963   -0.0300 C.ar    1  LIG1        0.0012
     13 C          -1.0668    6.9736   -0.0685 C.ar    1  LIG1        0.1729
     14 O          -0.8930    5.6217   -0.0729 O.2     1  LIG1       -0.4475
     15 S           2.8768    6.7770    0.0920 S.3     1  LIG1       -0.1389
     16 H           3.1038    7.0733   -1.2015 H       1  LIG1        0.1072
     17 H           0.3217    8.6593   -0.0138 H       1  LIG1        0.0668
     18 C          -2.4314    7.4423   -0.0978 C.ar    1  LIG1        0.1828
     19 C          -3.0081    8.6854   -0.0671 C.ar    1  LIG1        0.0537
     20 C          -4.4217    8.4696   -0.1340 C.ar    1  LIG1       -0.0099
     21 C          -4.5956    7.1303   -0.1898 C.ar    1  LIG1        0.0938
     22 O          -3.3960    6.4939   -0.1713 O.2     1  LIG1       -0.4587
     23 H          -5.4630    6.4929   -0.2469 H       1  LIG1        0.1030
     24 S          -2.1793   10.2463   -0.0435 S.3     1  LIG1       -0.1389
     25 H          -2.2787   10.4869    1.2777 H       1  LIG1        0.1072
     26 H          -5.1863    9.2312   -0.1412 H       1  LIG1        0.0660
@<TRIPOS>BOND
     1    16    15    1
     2    23    21    1
     3    21    22   ar
     4    21    20   ar
     5    22    18   ar
     6     6     1    1
     7    26    20    1
     8    20    19   ar
     9     5     1   ar
    10     5     4   ar
    11     1     2   ar
    12    18    13    1
    13    18    19   ar
    14    14    13   ar
    15    14    10   ar
    16     7     2    1
    17     7     8    1
    18    13    12   ar
    19    19    24    1
    20    10     4    1
    21    10    11   ar
    22     4     3   ar
    23    24    25    1
    24    12    11   ar
    25    12    17    1
    26     2     3   ar
    27    11    15    1
    28     3     9    1
