@<TRIPOS>MOLECULE
mol_data/opt/cam/geoms/mol2/12ga12ga12ga12ga-.out
 34 37 0 0 0
SMALL
GASTEIGER

@<TRIPOS>ATOM
      1 C           0.5636    1.8400    0.0116 C.ar    1  LIG1        0.1058
      2 C           1.9143    1.9769    0.0734 C.ar    1  LIG1        0.0433
      3 C           2.1734    3.3828    0.0624 C.ar    1  LIG1        0.0005
      4 C           0.9541    3.9886    0.0029 C.ar    1  LIG1        0.1719
      5 O          -0.0334    3.0488   -0.0346 O.2     1  LIG1       -0.4587
      6 H          -0.0846    0.9787   -0.0112 H       1  LIG1        0.1041
      7 S           3.0820    0.6489    0.0594 S.3     1  LIG1       -0.1396
      8 H           3.4846    0.7529    1.3392 H       1  LIG1        0.1072
      9 H           3.1337    3.8714    0.0959 H       1  LIG1        0.0667
     10 C           0.5267    5.3663   -0.0336 C.ar    1  LIG1        0.1838
     11 C           1.1906    6.5673   -0.0485 C.ar    1  LIG1        0.0544
     12 C           0.1885    7.5795   -0.0801 C.ar    1  LIG1        0.0012
     13 C          -1.0102    6.9312   -0.0912 C.ar    1  LIG1        0.1729
     14 O          -0.8084    5.5835   -0.0594 O.2     1  LIG1       -0.4475
     15 S           2.9377    6.8210    0.0436 S.3     1  LIG1       -0.1389
     16 H           3.1558    7.0460   -1.2657 H       1  LIG1        0.1072
     17 H           0.3449    8.6459   -0.0955 H       1  LIG1        0.0668
     18 C          -2.3817    7.3721   -0.1208 C.ar    1  LIG1        0.1838
     19 C          -2.9827    8.6061   -0.1132 C.ar    1  LIG1        0.0544
     20 C          -4.3868    8.3685   -0.1649 C.ar    1  LIG1        0.0012
     21 C          -4.5457    7.0158   -0.1887 C.ar    1  LIG1        0.1729
     22 O          -3.3276    6.4052   -0.1658 O.2     1  LIG1       -0.4475
     23 S          -2.1806   10.1813   -0.1317 S.3     1  LIG1       -0.1389
     24 H          -2.3129   10.4656    1.1776 H       1  LIG1        0.1072
     25 H          -5.1687    9.1102   -0.1891 H       1  LIG1        0.0668
     26 C          -5.6954    6.1447   -0.2311 C.ar    1  LIG1        0.1828
     27 C          -7.0491    6.3576   -0.1965 C.ar    1  LIG1        0.0537
     28 C          -7.6573    5.0648   -0.2857 C.ar    1  LIG1       -0.0099
     29 C          -6.6415    4.1756   -0.3562 C.ar    1  LIG1        0.0938
     30 O          -5.4451    4.8167   -0.3286 O.2     1  LIG1       -0.4587
     31 H          -6.5955    3.1012   -0.4310 H       1  LIG1        0.1030
     32 S          -7.8804    7.9162   -0.1453 S.3     1  LIG1       -0.1389
     33 H          -8.2181    7.8984    1.1580 H       1  LIG1        0.1072
     34 H          -8.7155    4.8535   -0.2970 H       1  LIG1        0.0660
@<TRIPOS>BOND
     1    16    15    1
     2    31    29    1
     3    29    30   ar
     4    29    28   ar
     5    30    26   ar
     6    34    28    1
     7    28    27   ar
     8    26    27   ar
     9    26    21    1
    10    27    32    1
    11    25    20    1
    12    21    22   ar
    13    21    20   ar
    14    22    18   ar
    15    20    19   ar
    16    32    33    1
    17    23    19    1
    18    23    24    1
    19    18    19   ar
    20    18    13    1
    21    17    12    1
    22    13    12   ar
    23    13    14   ar
    24    12    11   ar
    25    14    10   ar
    26    11    10   ar
    27    11    15    1
    28     5     4   ar
    29     5     1   ar
    30    10     4    1
    31     6     1    1
    32     4     3   ar
    33     1     2   ar
    34     7     2    1
    35     7     8    1
    36     3     2   ar
    37     3     9    1
