@<TRIPOS>MOLECULE
mol_data/opt/cam/geoms/mol2/12ga12ga-.out
 18 19 0 0 0
SMALL
GASTEIGER

@<TRIPOS>ATOM
      1 C           0.1687    1.8214   -0.0001 C.ar    1  LIG1        0.1058
      2 C           1.5252    1.8707   -0.0000 C.ar    1  LIG1        0.0433
      3 C           1.8742    3.2573   -0.0000 C.ar    1  LIG1        0.0005
      4 C           0.6944    3.9426   -0.0001 C.ar    1  LIG1        0.1718
      5 O          -0.3488    3.0783   -0.0001 O.2     1  LIG1       -0.4587
      6 H          -0.5434    1.0128   -0.0001 H       1  LIG1        0.1041
      7 S           2.6091    0.4749    0.0001 S.3     1  LIG1       -0.1396
      8 H           3.7484    1.1833    0.0002 H       1  LIG1        0.1072
      9 H           2.8687    3.6761    0.0000 H       1  LIG1        0.0667
     10 C           0.3831    5.3495   -0.0001 C.ar    1  LIG1        0.1827
     11 C           1.1597    6.4757   -0.0001 C.ar    1  LIG1        0.0537
     12 C           0.2545    7.5835   -0.0001 C.ar    1  LIG1       -0.0099
     13 C          -0.9896    7.0499   -0.0002 C.ar    1  LIG1        0.0938
     14 O          -0.9330    5.7002   -0.0002 O.2     1  LIG1       -0.4587
     15 H          -1.9772    7.4825   -0.0002 H       1  LIG1        0.1030
     16 S           2.9220    6.5165    0.0000 S.3     1  LIG1       -0.1389
     17 H           3.0313    7.8534    0.0000 H       1  LIG1        0.1072
     18 H           0.5104    8.6324   -0.0002 H       1  LIG1        0.0660
@<TRIPOS>BOND
     1    15    13    1
     2    13    14   ar
     3    13    12   ar
     4    14    10   ar
     5    18    12    1
     6    12    11   ar
     7     5     4   ar
     8     5     1   ar
     9    10    11   ar
    10    10     4    1
    11     6     1    1
    12    11    16    1
    13     4     3   ar
    14     1     2   ar
    15     3     2   ar
    16     3     9    1
    17     2     7    1
    18    16    17    1
    19     7     8    1
