@<TRIPOS>MOLECULE
mol_data/opt/cam/geoms/mol2/12ga12ga-12ga.out
 26 28 0 0 0
SMALL
GASTEIGER

@<TRIPOS>ATOM
      1 C           0.3314    1.6954   -0.0001 C.ar    1  LIG1        0.1058
      2 C           1.6848    1.8028   -0.0000 C.ar    1  LIG1        0.0433
      3 C           1.9742    3.2025   -0.0000 C.ar    1  LIG1        0.0005
      4 C           0.7653    3.8370   -0.0001 C.ar    1  LIG1        0.1719
      5 O          -0.2396    2.9284   -0.0001 O.2     1  LIG1       -0.4587
      6 H          -0.3452    0.8568   -0.0001 H       1  LIG1        0.1041
      7 S           2.8269    0.4542    0.0000 S.3     1  LIG1       -0.1396
      8 H           3.9355    1.2097    0.0001 H       1  LIG1        0.1072
      9 H           2.9499    3.6633    0.0000 H       1  LIG1        0.0667
     10 C           0.3953    5.2272   -0.0001 C.ar    1  LIG1        0.1838
     11 C           1.1234    6.3867   -0.0001 C.ar    1  LIG1        0.0544
     12 C           0.1794    7.4540   -0.0001 C.ar    1  LIG1        0.0012
     13 C          -1.0548    6.8706   -0.0001 C.ar    1  LIG1        0.1729
     14 O          -0.9347    5.5217   -0.0001 O.2     1  LIG1       -0.4475
     15 S           2.8818    6.5026    0.0000 S.3     1  LIG1       -0.1389
     16 H           2.9334    7.8429    0.0000 H       1  LIG1        0.1072
     17 H           0.3983    8.5106   -0.0001 H       1  LIG1        0.0668
     18 C          -2.3882    7.4107   -0.0002 C.ar    1  LIG1        0.1828
     19 C          -2.8754    8.6900   -0.0002 C.ar    1  LIG1        0.0537
     20 C          -4.3005    8.5723   -0.0002 C.ar    1  LIG1       -0.0099
     21 C          -4.5665    7.2447   -0.0003 C.ar    1  LIG1        0.0938
     22 O          -3.4234    6.5259   -0.0002 O.2     1  LIG1       -0.4587
     23 H          -5.4830    6.6768   -0.0004 H       1  LIG1        0.1030
     24 S          -1.9101   10.1644   -0.0002 S.3     1  LIG1       -0.1389
     25 H          -2.9487   11.0130   -0.0002 H       1  LIG1        0.1072
     26 H          -5.0194    9.3778   -0.0002 H       1  LIG1        0.0660
@<TRIPOS>BOND
     1    23    21    1
     2    21    22   ar
     3    21    20   ar
     4    22    18   ar
     5    20    26    1
     6    20    19   ar
     7    19    18   ar
     8    19    24    1
     9    18    13    1
    10    25    24    1
    11    13    14   ar
    12    13    12   ar
    13    14    10   ar
    14     6     1    1
    15    12    17    1
    16    12    11   ar
    17     5     1   ar
    18     5     4   ar
    19    10     4    1
    20    10    11   ar
    21     1     2   ar
    22     4     3   ar
    23    11    15    1
    24     3     2   ar
    25     3     9    1
    26     2     7    1
    27    15    16    1
    28     7     8    1
