@<TRIPOS>MOLECULE
mol_data/opt/cam/geoms/mol2/12ga.out
 10 10 0 0 0
SMALL
GASTEIGER

@<TRIPOS>ATOM
      1 C           0.1500    1.9382   -0.0000 C.ar    1  LIG1        0.1048
      2 C           1.5070    1.9274    0.0001 C.ar    1  LIG1        0.0425
      3 C           1.9137    3.3028   -0.0001 C.ar    1  LIG1       -0.0107
      4 C           0.7704    4.0278   -0.0000 C.ar    1  LIG1        0.0928
      5 O          -0.3109    3.2169   -0.0003 O.2     1  LIG1       -0.4699
      6 H          -0.5957    1.1601   -0.0000 H       1  LIG1        0.1040
      7 H           0.5702    5.0875   -0.0000 H       1  LIG1        0.1029
      8 S           2.5276    0.4837    0.0002 S.3     1  LIG1       -0.1396
      9 H           3.6984    1.1388    0.0001 H       1  LIG1        0.1072
     10 H           2.9234    3.6854   -0.0001 H       1  LIG1        0.0660
@<TRIPOS>BOND
     1     5     1   ar
     2     5     4   ar
     3    10     3    1
     4     3     4   ar
     5     3     2   ar
     6     6     1    1
     7     7     4    1
     8     1     2   ar
     9     2     8    1
    10     9     8    1
