@<TRIPOS>MOLECULE
mol_data/opt/cam/geoms/mol2/12ga12ga12ga-.out
 26 28 0 0 0
SMALL
GASTEIGER

@<TRIPOS>ATOM
      1 C           0.4024    1.8496   -0.1036 C.ar    1  LIG1        0.1058
      2 C           1.7551    1.9570   -0.0302 C.ar    1  LIG1        0.0433
      3 C           2.0428    3.3572    0.0032 C.ar    1  LIG1        0.0005
      4 C           0.8366    3.9893   -0.0448 C.ar    1  LIG1        0.1719
      5 O          -0.1696    3.0715   -0.1163 O.2     1  LIG1       -0.4587
      6 H          -0.2630    1.0029   -0.1559 H       1  LIG1        0.1041
      7 S           2.8958    0.6064   -0.0779 S.3     1  LIG1       -0.1396
      8 H           3.2943    0.6657    1.2060 H       1  LIG1        0.1072
      9 H           3.0125    3.8249    0.0568 H       1  LIG1        0.0667
     10 C           0.4378    5.3764   -0.0426 C.ar    1  LIG1        0.1838
     11 C           1.1254    6.5630   -0.0157 C.ar    1  LIG1        0.0544
     12 C           0.1435    7.5964   -0.0244 C.ar    1  LIG1        0.0012
     13 C          -1.0670    6.9736   -0.0652 C.ar    1  LIG1        0.1729
     14 O          -0.8930    5.6218   -0.0720 O.2     1  LIG1       -0.4475
     15 S           2.8765    6.7772    0.0984 S.3     1  LIG1       -0.1389
     16 H           3.1046    7.0759   -1.1943 H       1  LIG1        0.1072
     17 H           0.3213    8.6594   -0.0060 H       1  LIG1        0.0668
     18 C          -2.4316    7.4422   -0.0949 C.ar    1  LIG1        0.1828
     19 C          -3.0085    8.6852   -0.0623 C.ar    1  LIG1        0.0537
     20 C          -4.4220    8.4693   -0.1308 C.ar    1  LIG1       -0.0099
     21 C          -4.5956    7.1301   -0.1893 C.ar    1  LIG1        0.0938
     22 O          -3.3960    6.4938   -0.1710 O.2     1  LIG1       -0.4587
     23 H          -5.4629    6.4927   -0.2484 H       1  LIG1        0.1030
     24 S          -2.1799   10.2462   -0.0350 S.3     1  LIG1       -0.1389
     25 H          -2.2805   10.4841    1.2866 H       1  LIG1        0.1072
     26 H          -5.1867    9.2308   -0.1372 H       1  LIG1        0.0660
@<TRIPOS>BOND
     1    16    15    1
     2    23    21    1
     3    21    22   ar
     4    21    20   ar
     5    22    18   ar
     6     6     1    1
     7    26    20    1
     8    20    19   ar
     9     5     1   ar
    10     5     4   ar
    11     1     2   ar
    12    18    13    1
    13    18    19   ar
    14     7     2    1
    15     7     8    1
    16    14    13   ar
    17    14    10   ar
    18    13    12   ar
    19    19    24    1
    20     4    10    1
    21     4     3   ar
    22    10    11   ar
    23    24    25    1
    24     2     3   ar
    25    12    11   ar
    26    12    17    1
    27    11    15    1
    28     3     9    1
