@<TRIPOS>MOLECULE
mol_data/opt/cam/geoms/mol2/12ga12ga12ga-12ga.out
 34 37 0 0 0
SMALL
GASTEIGER

@<TRIPOS>ATOM
      1 C           0.5645    1.8405    0.1428 C.ar    1  LIG1        0.1058
      2 C           1.9115    1.9658    0.0132 C.ar    1  LIG1        0.0433
      3 C           2.1680    3.3629   -0.1507 C.ar    1  LIG1        0.0005
      4 C           0.9523    3.9764   -0.0960 C.ar    1  LIG1        0.1719
      5 O          -0.0321    3.0485    0.0769 O.2     1  LIG1       -0.4587
      6 H          -0.0818    0.9879    0.2766 H       1  LIG1        0.1041
      7 S           3.0655    0.6271   -0.0476 S.3     1  LIG1       -0.1396
      8 H           3.6293    0.8238    1.1583 H       1  LIG1        0.1072
      9 H           3.1238    3.8394   -0.2968 H       1  LIG1        0.0667
     10 C           0.5254    5.3523   -0.1794 C.ar    1  LIG1        0.1838
     11 C           1.1890    6.5493   -0.2768 C.ar    1  LIG1        0.0544
     12 C           0.1868    7.5608   -0.3308 C.ar    1  LIG1        0.0012
     13 C          -1.0114    6.9168   -0.2500 C.ar    1  LIG1        0.1729
     14 O          -0.8100    5.5717   -0.1639 O.2     1  LIG1       -0.4475
     15 S           2.9355    6.7872   -0.4071 S.3     1  LIG1       -0.1389
     16 H           3.1427    7.2560    0.8376 H       1  LIG1        0.1072
     17 H           0.3426    8.6234   -0.4248 H       1  LIG1        0.0668
     18 C          -2.3825    7.3601   -0.2374 C.ar    1  LIG1        0.1838
     19 C          -2.9812    8.5948   -0.2221 C.ar    1  LIG1        0.0544
     20 C          -4.3867    8.3593   -0.2271 C.ar    1  LIG1        0.0012
     21 C          -4.5480    7.0067   -0.2323 C.ar    1  LIG1        0.1729
     22 O          -3.3311    6.3941   -0.2448 O.2     1  LIG1       -0.4475
     23 S          -2.1737   10.1660   -0.2786 S.3     1  LIG1       -0.1389
     24 H          -2.3853   10.5185    1.0031 H       1  LIG1        0.1072
     25 H          -5.1685    9.1015   -0.2339 H       1  LIG1        0.0668
     26 C          -5.7000    6.1376   -0.2284 C.ar    1  LIG1        0.1828
     27 C          -7.0512    6.3534   -0.1463 C.ar    1  LIG1        0.0537
     28 C          -7.6646    5.0614   -0.2074 C.ar    1  LIG1       -0.0099
     29 C          -6.6536    4.1699   -0.3102 C.ar    1  LIG1        0.0938
     30 O          -5.4559    4.8087   -0.3286 O.2     1  LIG1       -0.4587
     31 H          -6.6123    3.0951   -0.3816 H       1  LIG1        0.1030
     32 S          -7.8772    7.9139   -0.0725 S.3     1  LIG1       -0.1389
     33 H          -8.1728    7.9001    1.2411 H       1  LIG1        0.1072
     34 H          -8.7229    4.8521   -0.1799 H       1  LIG1        0.0660
@<TRIPOS>BOND
     1    17    12    1
     2    15    11    1
     3    15    16    1
     4    31    29    1
     5    12    11   ar
     6    12    13   ar
     7    30    29   ar
     8    30    26   ar
     9    29    28   ar
    10     9     3    1
    11    23    19    1
    12    23    24    1
    13    11    10   ar
    14    13    18    1
    15    13    14   ar
    16    22    18   ar
    17    22    21   ar
    18    18    19   ar
    19    25    20    1
    20    21    26    1
    21    21    20   ar
    22    26    27   ar
    23    20    19   ar
    24    28    34    1
    25    28    27   ar
    26    10    14   ar
    27    10     4    1
    28     3     4   ar
    29     3     2   ar
    30    27    32    1
    31     4     5   ar
    32    32    33    1
    33     7     2    1
    34     7     8    1
    35     2     1   ar
    36     5     1   ar
    37     1     6    1
