@<TRIPOS>MOLECULE
mol_data/opt/cam/geoms/mol2/12ga12ga-12ga12ga-.out
 34 37 0 0 0
SMALL
GASTEIGER

@<TRIPOS>ATOM
      1 C           0.6315    1.6597   -0.0001 C.ar    1  LIG1        0.1058
      2 C           1.9793    1.8234   -0.0000 C.ar    1  LIG1        0.0433
      3 C           2.2102    3.2338   -0.0000 C.ar    1  LIG1        0.0005
      4 C           0.9758    3.8174   -0.0001 C.ar    1  LIG1        0.1719
      5 O           0.0098    2.8677   -0.0001 O.2     1  LIG1       -0.4587
      6 H          -0.0095    0.7937   -0.0001 H       1  LIG1        0.1041
      7 S           3.1761    0.5229    0.0000 S.3     1  LIG1       -0.1396
      8 H           4.2528    1.3231    0.0001 H       1  LIG1        0.1072
      9 H           3.1660    3.7347   -0.0000 H       1  LIG1        0.0667
     10 C           0.5475    5.1906   -0.0001 C.ar    1  LIG1        0.1838
     11 C           1.2263    6.3801   -0.0000 C.ar    1  LIG1        0.0544
     12 C           0.2391    7.4065   -0.0001 C.ar    1  LIG1        0.0012
     13 C          -0.9706    6.7713   -0.0001 C.ar    1  LIG1        0.1729
     14 O          -0.7934    5.4287   -0.0001 O.2     1  LIG1       -0.4475
     15 S           2.9784    6.5695    0.0000 S.3     1  LIG1       -0.1389
     16 H           2.9735    7.9108    0.0000 H       1  LIG1        0.1072
     17 H           0.4137    8.4713   -0.0001 H       1  LIG1        0.0668
     18 C          -2.3228    7.2552   -0.0002 C.ar    1  LIG1        0.1838
     19 C          -2.8636    8.5142   -0.0002 C.ar    1  LIG1        0.0544
     20 C          -4.2774    8.3436   -0.0002 C.ar    1  LIG1        0.0012
     21 C          -4.4986    6.9958   -0.0003 C.ar    1  LIG1        0.1729
     22 O          -3.3209    6.3283   -0.0002 O.2     1  LIG1       -0.4475
     23 S          -1.9605   10.0268   -0.0001 S.3     1  LIG1       -0.1389
     24 H          -3.0342   10.8306   -0.0001 H       1  LIG1        0.1072
     25 H          -5.0225    9.1241   -0.0003 H       1  LIG1        0.0668
     26 C          -5.7006    6.2060   -0.0003 C.ar    1  LIG1        0.1828
     27 C          -7.0303    6.5320   -0.0003 C.ar    1  LIG1        0.0537
     28 C          -7.7430    5.2925   -0.0003 C.ar    1  LIG1       -0.0099
     29 C          -6.8013    4.3194   -0.0004 C.ar    1  LIG1        0.0938
     30 O          -5.5607    4.8516   -0.0003 O.2     1  LIG1       -0.4587
     31 H          -6.8545    3.2425   -0.0004 H       1  LIG1        0.1030
     32 S          -7.6954    8.1638   -0.0004 S.3     1  LIG1       -0.1389
     33 H          -8.9838    7.7911   -0.0003 H       1  LIG1        0.1072
     34 H          -8.8143    5.1584   -0.0003 H       1  LIG1        0.0660
@<TRIPOS>BOND
     1    31    29    1
     2    29    28   ar
     3    29    30   ar
     4    32    27    1
     5    32    33    1
     6    34    28    1
     7    27    28   ar
     8    27    26   ar
     9    30    26   ar
    10    26    21    1
    11    25    20    1
    12    21    20   ar
    13    21    22   ar
    14    20    19   ar
    15    22    18   ar
    16    19    18   ar
    17    19    23    1
    18    18    13    1
    19    24    23    1
    20    13    14   ar
    21    13    12   ar
    22    14    10   ar
    23     6     1    1
    24     5     1   ar
    25     5     4   ar
    26    12    17    1
    27    12    11   ar
    28     1     2   ar
    29    10     4    1
    30    10    11   ar
    31     4     3   ar
    32    11    15    1
    33     3     2   ar
    34     3     9    1
    35     2     7    1
    36    15    16    1
    37     7     8    1
