@<TRIPOS>MOLECULE
mol_data/opt/cam/geoms/mol2/12ga12ga12ga12ga.out
 34 37 0 0 0
SMALL
GASTEIGER

@<TRIPOS>ATOM
      1 C           0.5655    1.8417    0.0422 C.ar    1  LIG1        0.1058
      2 C           1.9164    1.9798    0.0968 C.ar    1  LIG1        0.0433
      3 C           2.1748    3.3857    0.0697 C.ar    1  LIG1        0.0005
      4 C           0.9550    3.9902    0.0090 C.ar    1  LIG1        0.1719
      5 O          -0.0322    3.0497   -0.0142 O.2     1  LIG1       -0.4587
      6 H          -0.0824    0.9800    0.0313 H       1  LIG1        0.1041
      7 S           3.0846    0.6522    0.0918 S.3     1  LIG1       -0.1396
      8 H           3.4927    0.7700    1.3687 H       1  LIG1        0.1072
      9 H           3.1350    3.8750    0.0940 H       1  LIG1        0.0667
     10 C           0.5268    5.3673   -0.0402 C.ar    1  LIG1        0.1838
     11 C           1.1901    6.5684   -0.0706 C.ar    1  LIG1        0.0544
     12 C           0.1874    7.5798   -0.1086 C.ar    1  LIG1        0.0012
     13 C          -1.0111    6.9309   -0.1078 C.ar    1  LIG1        0.1729
     14 O          -0.8085    5.5837   -0.0626 O.2     1  LIG1       -0.4475
     15 S           2.9375    6.8237    0.0114 S.3     1  LIG1       -0.1389
     16 H           3.1498    7.0350   -1.3012 H       1  LIG1        0.1072
     17 H           0.3433    8.6460   -0.1360 H       1  LIG1        0.0668
     18 C          -2.3828    7.3709   -0.1362 C.ar    1  LIG1        0.1838
     19 C          -2.9844    8.6046   -0.1391 C.ar    1  LIG1        0.0544
     20 C          -4.3886    8.3660   -0.1823 C.ar    1  LIG1        0.0012
     21 C          -4.5470    7.0130   -0.1912 C.ar    1  LIG1        0.1729
     22 O          -3.3285    6.4032   -0.1669 O.2     1  LIG1       -0.4475
     23 S          -2.1831   10.1799   -0.1776 S.3     1  LIG1       -0.1389
     24 H          -2.3100   10.4780    1.1292 H       1  LIG1        0.1072
     25 H          -5.1709    9.1071   -0.2109 H       1  LIG1        0.0668
     26 C          -5.6964    6.1410   -0.2194 C.ar    1  LIG1        0.1828
     27 C          -7.0500    6.3537   -0.1813 C.ar    1  LIG1        0.0537
     28 C          -7.6580    5.0598   -0.2543 C.ar    1  LIG1       -0.0099
     29 C          -6.6422    4.1704   -0.3198 C.ar    1  LIG1        0.0938
     30 O          -5.4460    4.8122   -0.3039 O.2     1  LIG1       -0.4587
     31 H          -6.5960    3.0952   -0.3834 H       1  LIG1        0.1030
     32 S          -7.8819    7.9125   -0.1430 S.3     1  LIG1       -0.1389
     33 H          -8.2140    7.9083    1.1619 H       1  LIG1        0.1072
     34 H          -8.7162    4.8480   -0.2589 H       1  LIG1        0.0660
@<TRIPOS>BOND
     1    16    15    1
     2    31    29    1
     3    29    30   ar
     4    29    28   ar
     5    30    26   ar
     6    34    28    1
     7    28    27   ar
     8    26    21    1
     9    26    27   ar
    10    25    20    1
    11    21    20   ar
    12    21    22   ar
    13    20    19   ar
    14    27    32    1
    15    23    19    1
    16    23    24    1
    17    22    18   ar
    18    32    33    1
    19    19    18   ar
    20    18    13    1
    21    17    12    1
    22    12    13   ar
    23    12    11   ar
    24    13    14   ar
    25    11    10   ar
    26    11    15    1
    27    14    10   ar
    28    10     4    1
    29     5     4   ar
    30     5     1   ar
    31     4     3   ar
    32     6     1    1
    33     1     2   ar
    34     3     9    1
    35     3     2   ar
    36     7     2    1
    37     7     8    1
