@<TRIPOS>MOLECULE
mol_data/opt/cam/geoms/mol2/12ga12ga-12ga12ga.out
 34 37 0 0 0
SMALL
GASTEIGER

@<TRIPOS>ATOM
      1 C           0.5618    1.8319    0.0872 C.ar    1  LIG1        0.1058
      2 C           1.9119    1.9686    0.1618 C.ar    1  LIG1        0.0433
      3 C           2.1696    3.3749    0.1833 C.ar    1  LIG1        0.0005
      4 C           0.9511    3.9806    0.1084 C.ar    1  LIG1        0.1719
      5 O          -0.0358    3.0408    0.0563 O.2     1  LIG1       -0.4587
      6 H          -0.0860    0.9706    0.0558 H       1  LIG1        0.1041
      7 S           3.0707    0.6416    0.3145 S.3     1  LIG1       -0.1396
      8 H           3.6014    0.7264   -0.9192 H       1  LIG1        0.1072
      9 H           3.1283    3.8629    0.2524 H       1  LIG1        0.0667
     10 C           0.5233    5.3583    0.0735 C.ar    1  LIG1        0.1838
     11 C           1.1864    6.5590    0.0362 C.ar    1  LIG1        0.0544
     12 C           0.1838    7.5712    0.0217 C.ar    1  LIG1        0.0012
     13 C          -1.0147    6.9228    0.0411 C.ar    1  LIG1        0.1729
     14 O          -0.8126    5.5757    0.0787 O.2     1  LIG1       -0.4475
     15 S           2.9356    6.8072    0.0865 S.3     1  LIG1       -0.1389
     16 H           3.0977    7.1750   -1.1981 H       1  LIG1        0.1072
     17 H           0.3389    8.6377   -0.0023 H       1  LIG1        0.0668
     18 C          -2.3863    7.3643    0.0379 C.ar    1  LIG1        0.1838
     19 C          -2.9864    8.5987    0.0297 C.ar    1  LIG1        0.0544
     20 C          -4.3914    8.3615    0.0259 C.ar    1  LIG1        0.0012
     21 C          -4.5515    7.0087    0.0412 C.ar    1  LIG1        0.1729
     22 O          -3.3335    6.3976    0.0445 O.2     1  LIG1       -0.4475
     23 S          -2.1846   10.1721   -0.0508 S.3     1  LIG1       -0.1389
     24 H          -2.2927   10.4953    1.2518 H       1  LIG1        0.1072
     25 H          -5.1737    9.1031    0.0163 H       1  LIG1        0.0668
     26 C          -5.7026    6.1387    0.0487 C.ar    1  LIG1        0.1828
     27 C          -7.0557    6.3553    0.0089 C.ar    1  LIG1        0.0537
     28 C          -7.6667    5.0616    0.0537 C.ar    1  LIG1       -0.0099
     29 C          -6.6532    4.1686    0.1068 C.ar    1  LIG1        0.0938
     30 O          -5.4554    4.8081    0.1072 O.2     1  LIG1       -0.4587
     31 H          -6.6094    3.0925    0.1505 H       1  LIG1        0.1030
     32 S          -7.8873    7.9149   -0.0021 S.3     1  LIG1       -0.1389
     33 H          -8.1330    7.9818   -1.3245 H       1  LIG1        0.1072
     34 H          -8.7254    4.8527    0.0490 H       1  LIG1        0.0660
@<TRIPOS>BOND
     1    33    32    1
     2    16    15    1
     3     8     7    1
     4    23    19    1
     5    23    24    1
     6    17    12    1
     7    32    27    1
     8    27    26   ar
     9    27    28   ar
    10    25    20    1
    11    12    11   ar
    12    12    13   ar
    13    20    19   ar
    14    20    21   ar
    15    19    18   ar
    16    11    10   ar
    17    11    15    1
    18    18    13    1
    19    18    22   ar
    20    13    14   ar
    21    21    22   ar
    22    21    26    1
    23    26    30   ar
    24    34    28    1
    25    28    29   ar
    26     6     1    1
    27     5     1   ar
    28     5     4   ar
    29    10    14   ar
    30    10     4    1
    31     1     2   ar
    32    29    30   ar
    33    29    31    1
    34     4     3   ar
    35     2     3   ar
    36     2     7    1
    37     3     9    1
