@<TRIPOS>MOLECULE
mol_data/opt/cam/geoms/mol2/12ga12ga-12ga-12ga.out
 34 37 0 0 0
SMALL
GASTEIGER

@<TRIPOS>ATOM
      1 C           0.5699    1.8374   -0.0934 C.ar    1  LIG1        0.1058
      2 C           1.9197    1.9769   -0.1686 C.ar    1  LIG1        0.0433
      3 C           2.1743    3.3837   -0.1920 C.ar    1  LIG1        0.0005
      4 C           0.9546    3.9869   -0.1175 C.ar    1  LIG1        0.1719
      5 O          -0.0302    3.0451   -0.0639 O.2     1  LIG1       -0.4587
      6 H          -0.0760    0.9747   -0.0605 H       1  LIG1        0.1041
      7 S           3.0811    0.6520   -0.3200 S.3     1  LIG1       -0.1396
      8 H           3.6126    0.7399    0.9131 H       1  LIG1        0.1072
      9 H           3.1320    3.8736   -0.2622 H       1  LIG1        0.0667
     10 C           0.5239    5.3637   -0.0842 C.ar    1  LIG1        0.1838
     11 C           1.1845    6.5659   -0.0491 C.ar    1  LIG1        0.0544
     12 C           0.1797    7.5760   -0.0354 C.ar    1  LIG1        0.0012
     13 C          -1.0174    6.9250   -0.0532 C.ar    1  LIG1        0.1729
     14 O          -0.8124    5.5783   -0.0891 O.2     1  LIG1       -0.4475
     15 S           2.9331    6.8177   -0.1007 S.3     1  LIG1       -0.1389
     16 H           3.0952    7.1881    1.1831 H       1  LIG1        0.1072
     17 H           0.3326    8.6428   -0.0129 H       1  LIG1        0.0668
     18 C          -2.3899    7.3636   -0.0499 C.ar    1  LIG1        0.1838
     19 C          -2.9927    8.5967   -0.0429 C.ar    1  LIG1        0.0544
     20 C          -4.3972    8.3565   -0.0380 C.ar    1  LIG1        0.0012
     21 C          -4.5543    7.0034   -0.0515 C.ar    1  LIG1        0.1729
     22 O          -3.3350    6.3949   -0.0547 O.2     1  LIG1       -0.4475
     23 S          -2.1942   10.1719    0.0351 S.3     1  LIG1       -0.1389
     24 H          -2.3030   10.4930   -1.2679 H       1  LIG1        0.1072
     25 H          -5.1810    9.0964   -0.0289 H       1  LIG1        0.0668
     26 C          -5.7036    6.1308   -0.0572 C.ar    1  LIG1        0.1828
     27 C          -7.0571    6.3447   -0.0176 C.ar    1  LIG1        0.0537
     28 C          -7.6653    5.0496   -0.0600 C.ar    1  LIG1       -0.0099
     29 C          -6.6500    4.1587   -0.1118 C.ar    1  LIG1        0.0938
     30 O          -5.4536    4.8007   -0.1135 O.2     1  LIG1       -0.4587
     31 H          -6.6039    3.0825   -0.1536 H       1  LIG1        0.1030
     32 S          -7.8920    7.9024   -0.0091 S.3     1  LIG1       -0.1389
     33 H          -8.1373    7.9714    1.3132 H       1  LIG1        0.1072
     34 H          -8.7237    4.8384   -0.0547 H       1  LIG1        0.0660
@<TRIPOS>BOND
     1    24    23    1
     2     7     2    1
     3     7     8    1
     4     9     3    1
     5     3     2   ar
     6     3     4   ar
     7     2     1   ar
     8    31    29    1
     9     4    10    1
    10     4     5   ar
    11    30    29   ar
    12    30    26   ar
    13    29    28   ar
    14    15    11    1
    15    15    16    1
    16     1     5   ar
    17     1     6    1
    18    14    10   ar
    19    14    13   ar
    20    10    11   ar
    21    28    34    1
    22    28    27   ar
    23    26    21    1
    24    26    27   ar
    25    22    21   ar
    26    22    18   ar
    27    13    18    1
    28    13    12   ar
    29    21    20   ar
    30    18    19   ar
    31    11    12   ar
    32    19    20   ar
    33    19    23    1
    34    20    25    1
    35    12    17    1
    36    27    32    1
    37    32    33    1
