@<TRIPOS>MOLECULE
mol_data/opt/cam/geoms/mol2/12ga12ga-12ga-.out
 26 28 0 0 0
SMALL
GASTEIGER

@<TRIPOS>ATOM
      1 C           0.3880    1.8438   -0.0594 C.ar    1  LIG1        0.1058
      2 C           1.7343    1.9485   -0.2114 C.ar    1  LIG1        0.0433
      3 C           2.0221    3.3482   -0.2643 C.ar    1  LIG1        0.0005
      4 C           0.8239    3.9829   -0.1284 C.ar    1  LIG1        0.1719
      5 O          -0.1795    3.0668   -0.0093 O.2     1  LIG1       -0.4587
      6 H          -0.2763    0.9982    0.0193 H       1  LIG1        0.1041
      7 S           2.8528    0.5937   -0.4137 S.3     1  LIG1       -0.1396
      8 H           3.4480    0.6732    0.7906 H       1  LIG1        0.1072
      9 H           2.9859    3.8132   -0.3938 H       1  LIG1        0.0667
     10 C           0.4301    5.3708   -0.0871 C.ar    1  LIG1        0.1838
     11 C           1.1204    6.5559   -0.1062 C.ar    1  LIG1        0.0544
     12 C           0.1424    7.5914   -0.0468 C.ar    1  LIG1        0.0012
     13 C          -1.0683    6.9709    0.0141 C.ar    1  LIG1        0.1729
     14 O          -0.8989    5.6191   -0.0160 O.2     1  LIG1       -0.4475
     15 S           2.8685    6.7647   -0.2635 S.3     1  LIG1       -0.1389
     16 H           3.1196    7.1169    1.0112 H       1  LIG1        0.1072
     17 H           0.3224    8.6542   -0.0465 H       1  LIG1        0.0668
     18 C          -2.4300    7.4426    0.0929 C.ar    1  LIG1        0.1828
     19 C          -3.0033    8.6876    0.1047 C.ar    1  LIG1        0.0537
     20 C          -4.4151    8.4741    0.2073 C.ar    1  LIG1       -0.0099
     21 C          -4.5916    7.1344    0.2402 C.ar    1  LIG1        0.0938
     22 O          -3.3951    6.4954    0.1741 O.2     1  LIG1       -0.4587
     23 H          -5.4591    6.4982    0.3085 H       1  LIG1        0.1030
     24 S          -2.1704   10.2465    0.0897 S.3     1  LIG1       -0.1389
     25 H          -2.3043   10.5134   -1.2234 H       1  LIG1        0.1072
     26 H          -5.1767    9.2374    0.2521 H       1  LIG1        0.0660
@<TRIPOS>BOND
     1    25    24    1
     2     7     2    1
     3     7     8    1
     4     9     3    1
     5     3     2   ar
     6     3     4   ar
     7    15    11    1
     8    15    16    1
     9     2     1   ar
    10     4    10    1
    11     4     5   ar
    12    11    10   ar
    13    11    12   ar
    14    10    14   ar
    15     1     5   ar
    16     1     6    1
    17    12    17    1
    18    12    13   ar
    19    14    13   ar
    20    13    18    1
    21    24    19    1
    22    18    19   ar
    23    18    22   ar
    24    19    20   ar
    25    22    21   ar
    26    20    21   ar
    27    20    26    1
    28    21    23    1
