@<TRIPOS>MOLECULE
mol_data/opt/cam/geoms/mol2/12ga12ga-12ga-12ga-.out
 34 37 0 0 0
SMALL
GASTEIGER

@<TRIPOS>ATOM
      1 C           0.5627    1.8326   -0.0960 C.ar    1  LIG1        0.1058
      2 C           1.9132    1.9697   -0.1623 C.ar    1  LIG1        0.0433
      3 C           2.1708    3.3761   -0.1776 C.ar    1  LIG1        0.0005
      4 C           0.9519    3.9814   -0.1078 C.ar    1  LIG1        0.1719
      5 O          -0.0352    3.0414   -0.0646 O.2     1  LIG1       -0.4587
      6 H          -0.0852    0.9712   -0.0712 H       1  LIG1        0.1041
      7 S           3.0728    0.6431   -0.3126 S.3     1  LIG1       -0.1396
      8 H           3.5971    0.7246    0.9240 H       1  LIG1        0.1072
      9 H           3.1298    3.8644   -0.2395 H       1  LIG1        0.0667
     10 C           0.5237    5.3590   -0.0708 C.ar    1  LIG1        0.1838
     11 C           1.1865    6.5596   -0.0259 C.ar    1  LIG1        0.0544
     12 C           0.1836    7.5717   -0.0138 C.ar    1  LIG1        0.0012
     13 C          -1.0146    6.9232   -0.0421 C.ar    1  LIG1        0.1729
     14 O          -0.8122    5.5763   -0.0829 O.2     1  LIG1       -0.4475
     15 S           2.9359    6.8082   -0.0656 S.3     1  LIG1       -0.1389
     16 H           3.0908    7.1714    1.2212 H       1  LIG1        0.1072
     17 H           0.3384    8.6381    0.0146 H       1  LIG1        0.0668
     18 C          -2.3863    7.3645   -0.0452 C.ar    1  LIG1        0.1838
     19 C          -2.9867    8.5988   -0.0363 C.ar    1  LIG1        0.0544
     20 C          -4.3916    8.3614   -0.0412 C.ar    1  LIG1        0.0012
     21 C          -4.5514    7.0087   -0.0620 C.ar    1  LIG1        0.1729
     22 O          -3.3332    6.3977   -0.0605 O.2     1  LIG1       -0.4475
     23 S          -2.1855   10.1720    0.0542 S.3     1  LIG1       -0.1389
     24 H          -2.2857   10.4995   -1.2479 H       1  LIG1        0.1072
     25 H          -5.1741    9.1028   -0.0336 H       1  LIG1        0.0668
     26 C          -5.7023    6.1384   -0.0790 C.ar    1  LIG1        0.1828
     27 C          -7.0556    6.3547   -0.0469 C.ar    1  LIG1        0.0537
     28 C          -7.6661    5.0611   -0.0991 C.ar    1  LIG1       -0.0099
     29 C          -6.6521    4.1684   -0.1485 C.ar    1  LIG1        0.0938
     30 O          -5.4545    4.8081   -0.1398 O.2     1  LIG1       -0.4587
     31 H          -6.6079    3.0924   -0.1950 H       1  LIG1        0.1030
     32 S          -7.8875    7.9141   -0.0366 S.3     1  LIG1       -0.1389
     33 H          -8.1413    7.9774    1.2843 H       1  LIG1        0.1072
     34 H          -8.7248    4.8520   -0.1014 H       1  LIG1        0.0660
@<TRIPOS>BOND
     1    24    23    1
     2     7     2    1
     3     7     8    1
     4     9     3    1
     5    31    29    1
     6     3     2   ar
     7     3     4   ar
     8     2     1   ar
     9    29    30   ar
    10    29    28   ar
    11    30    26   ar
    12     4    10    1
    13     4     5   ar
    14    34    28    1
    15    28    27   ar
    16     1     6    1
    17     1     5   ar
    18    14    10   ar
    19    14    13   ar
    20    26    21    1
    21    26    27   ar
    22    10    11   ar
    23    15    11    1
    24    15    16    1
    25    21    22   ar
    26    21    20   ar
    27    22    18   ar
    28    27    32    1
    29    18    13    1
    30    18    19   ar
    31    13    12   ar
    32    20    19   ar
    33    20    25    1
    34    32    33    1
    35    19    23    1
    36    11    12   ar
    37    12    17    1
