@<TRIPOS>MOLECULE
mol_data/opt/cam/geoms/mol2/12gd12gd-12gd12gd.out
 38 41 0 0 0
SMALL
GASTEIGER

@<TRIPOS>ATOM
      1 C           0.6338    1.7406    0.2146 C.ar    1  LIG1        0.1071
      2 C           1.9259    1.8618   -0.1711 C.ar    1  LIG1        0.0607
      3 C           2.1729    3.2802   -0.2521 C.ar    1  LIG1        0.1136
      4 C           1.0010    3.8961    0.1056 C.ar    1  LIG1        0.1892
      5 O           0.0686    2.9599    0.3953 O.2     1  LIG1       -0.4573
      6 H           0.0039    0.8857    0.3990 H       1  LIG1        0.1041
      7 S           3.0657    0.5387   -0.4057 S.3     1  LIG1       -0.1383
      8 H           3.4231    0.8543   -1.6632 H       1  LIG1        0.1072
      9 N           4.3385    4.3683   -1.1248 N.1     1  LIG1       -0.1907
     10 C           3.3654    3.8934   -0.7168 C.1     1  LIG1        0.1042
     11 C           0.5972    5.2727    0.2374 C.ar    1  LIG1        0.1864
     12 C           1.2320    6.4157    0.6345 C.ar    1  LIG1        0.0719
     13 C           0.2293    7.4464    0.5864 C.ar    1  LIG1        0.1144
     14 C          -0.9323    6.8493    0.1617 C.ar    1  LIG1        0.1902
     15 O          -0.7131    5.5405   -0.0556 O.2     1  LIG1       -0.4461
     16 S           2.9050    6.6032    1.1308 S.3     1  LIG1       -0.1376
     17 H           2.6679    7.6626    1.9248 H       1  LIG1        0.1073
     18 N           0.6044    9.8476    1.4367 N.1     1  LIG1       -0.1907
     19 C           0.4123    8.7801    1.0327 C.1     1  LIG1        0.1042
     20 C          -2.2632    7.3321   -0.0942 C.ar    1  LIG1        0.1864
     21 C          -2.7786    8.5170   -0.5426 C.ar    1  LIG1        0.0719
     22 C          -4.1982    8.3039   -0.6345 C.ar    1  LIG1        0.1144
     23 C          -4.4331    7.0118   -0.2322 C.ar    1  LIG1        0.1902
     24 O          -3.2704    6.4247    0.0987 O.2     1  LIG1       -0.4461
     25 S          -1.9131    9.9840   -0.9605 S.3     1  LIG1       -0.1376
     26 H          -2.8595   10.4357   -1.8026 H       1  LIG1        0.1073
     27 N          -5.8332   10.0182   -1.6431 N.1     1  LIG1       -0.1907
     28 C          -5.1250    9.2340   -1.1708 C.1     1  LIG1        0.1042
     29 C          -5.6225    6.2140   -0.0892 C.ar    1  LIG1        0.1854
     30 C          -6.9237    6.4870    0.2347 C.ar    1  LIG1        0.0712
     31 C          -7.5845    5.2070    0.2464 C.ar    1  LIG1        0.1033
     32 C          -6.6365    4.2772   -0.0559 C.ar    1  LIG1        0.1112
     33 O          -5.4562    4.8644   -0.2667 O.2     1  LIG1       -0.4573
     34 H          -6.6762    3.2036   -0.1512 H       1  LIG1        0.1043
     35 S          -7.6528    8.0442    0.5802 S.3     1  LIG1       -0.1376
     36 H          -8.6706    7.5343    1.2958 H       1  LIG1        0.1073
     37 N         -10.0664    4.8137    0.8177 N.1     1  LIG1       -0.1907
     38 C          -8.9516    4.9701    0.5520 C.1     1  LIG1        0.1034
@<TRIPOS>BOND
     1    26    25    1
     2     8     7    1
     3    27    28    3
     4    28    22    1
     5     9    10    3
     6    25    21    1
     7    10     3    1
     8    22    21   ar
     9    22    23   ar
    10    21    20   ar
    11     7     2    1
    12    33    29   ar
    13    33    32   ar
    14     3     2   ar
    15     3     4   ar
    16    23    29    1
    17    23    24   ar
    18     2     1   ar
    19    34    32    1
    20    20    24   ar
    21    20    14    1
    22    29    30   ar
    23    32    31   ar
    24    15    14   ar
    25    15    11   ar
    26     4    11    1
    27     4     5   ar
    28    14    13   ar
    29     1     5   ar
    30     1     6    1
    31    30    31   ar
    32    30    35    1
    33    11    12   ar
    34    31    38    1
    35    38    37    3
    36    35    36    1
    37    13    12   ar
    38    13    19    1
    39    12    16    1
    40    19    18    3
    41    16    17    1
