@<TRIPOS>MOLECULE
mol_data/opt/cam/geoms/mol2/12gd.out
 11 11 0 0 0
SMALL
GASTEIGER

@<TRIPOS>ATOM
      1 C           0.1132    1.9180   -0.0000 C.ar    1  LIG1        0.1061
      2 C           1.4677    1.8915    0.0000 C.ar    1  LIG1        0.0600
      3 C           1.8756    3.2759   -0.0001 C.ar    1  LIG1        0.1025
      4 C           0.7292    4.0119   -0.0000 C.ar    1  LIG1        0.1101
      5 O          -0.3387    3.2056   -0.0002 O.2     1  LIG1       -0.4686
      6 H          -0.6410    1.1488   -0.0000 H       1  LIG1        0.1041
      7 H           0.5468    5.0747   -0.0001 H       1  LIG1        0.1043
      8 S           2.4995    0.4647    0.0002 S.3     1  LIG1       -0.1384
      9 H           3.6598    1.1422    0.0001 H       1  LIG1        0.1072
     10 N           4.3149    4.1062    0.0000 N.1     1  LIG1       -0.1907
     11 C           3.2110    3.7591   -0.0001 C.1     1  LIG1        0.1034
@<TRIPOS>BOND
     1     5     4   ar
     2     5     1   ar
     3    11     3    1
     4    11    10    3
     5     7     4    1
     6     3     4   ar
     7     3     2   ar
     8     6     1    1
     9     1     2   ar
    10     2     8    1
    11     9     8    1
