@<TRIPOS>MOLECULE
mol_data/opt/cam/geoms/mol2/12gd12gd-12gd.out
 29 31 0 0 0
SMALL
GASTEIGER

@<TRIPOS>ATOM
      1 C           0.1286    1.8451   -0.0001 C.ar    1  LIG1        0.1071
      2 C           1.4788    1.7615   -0.0000 C.ar    1  LIG1        0.0607
      3 C           1.9528    3.1247   -0.0000 C.ar    1  LIG1        0.1136
      4 C           0.8320    3.9268   -0.0001 C.ar    1  LIG1        0.1892
      5 O          -0.2661    3.1471   -0.0001 O.2     1  LIG1       -0.4573
      6 H          -0.6586    1.1098   -0.0001 H       1  LIG1        0.1041
      7 S           2.4433    0.2899    0.0000 S.3     1  LIG1       -0.1383
      8 H           3.6341    0.9128    0.0001 H       1  LIG1        0.1072
      9 N           4.4793    3.6028    0.0001 N.1     1  LIG1       -0.1907
     10 C           3.3305    3.4561    0.0001 C.1     1  LIG1        0.1042
     11 C           0.5657    5.3439   -0.0001 C.ar    1  LIG1        0.1864
     12 C           1.3039    6.4965   -0.0001 C.ar    1  LIG1        0.0719
     13 C           0.3434    7.5707   -0.0001 C.ar    1  LIG1        0.1144
     14 C          -0.9057    6.9910   -0.0002 C.ar    1  LIG1        0.1902
     15 O          -0.7683    5.6568   -0.0001 O.2     1  LIG1       -0.4461
     16 S           3.0469    6.6875   -0.0000 S.3     1  LIG1       -0.1376
     17 H           3.0070    8.0315   -0.0001 H       1  LIG1        0.1073
     18 N           1.1410   10.0156   -0.0002 N.1     1  LIG1       -0.1907
     19 C           0.7200    8.9369   -0.0001 C.1     1  LIG1        0.1042
     20 C          -2.2695    7.4574   -0.0002 C.ar    1  LIG1        0.1854
     21 C          -2.9086    8.6713   -0.0002 C.ar    1  LIG1        0.0712
     22 C          -4.3146    8.3561   -0.0002 C.ar    1  LIG1        0.1033
     23 C          -4.4122    6.9984   -0.0003 C.ar    1  LIG1        0.1112
     24 O          -3.2000    6.4466   -0.0003 O.2     1  LIG1       -0.4573
     25 H          -5.2587    6.3300   -0.0003 H       1  LIG1        0.1043
     26 S          -2.2317   10.2883   -0.0001 S.3     1  LIG1       -0.1376
     27 H          -3.4289   10.9004   -0.0001 H       1  LIG1        0.1073
     28 N          -6.2176   10.0930   -0.0002 N.1     1  LIG1       -0.1907
     29 C          -5.3811    9.2937   -0.0002 C.1     1  LIG1        0.1034
@<TRIPOS>BOND
     1    25    23    1
     2    23    24   ar
     3    23    22   ar
     4    24    20   ar
     5    28    29    3
     6    29    22    1
     7    22    21   ar
     8    20    21   ar
     9    20    14    1
    10    21    26    1
    11    18    19    3
    12    14    15   ar
    13    14    13   ar
    14    19    13    1
    15    15    11   ar
    16    13    12   ar
    17     6     1    1
    18     5     1   ar
    19     5     4   ar
    20    11    12   ar
    21    11     4    1
    22     1     2   ar
    23    26    27    1
    24    12    16    1
    25    17    16    1
    26     4     3   ar
    27     2     3   ar
    28     2     7    1
    29     3    10    1
    30     7     8    1
    31    10     9    3
