@<TRIPOS>MOLECULE
mol_data/opt/cam/geoms/mol2/12gd12gd-12gd-.out
 29 31 0 0 0
SMALL
GASTEIGER

@<TRIPOS>ATOM
      1 C           0.4677    1.7947   -0.5491 C.ar    1  LIG1        0.1071
      2 C           1.6874    1.8278    0.0376 C.ar    1  LIG1        0.0607
      3 C           1.9574    3.2220    0.2881 C.ar    1  LIG1        0.1136
      4 C           0.8722    3.9151   -0.1834 C.ar    1  LIG1        0.1892
      5 O          -0.0292    3.0476   -0.6979 O.2     1  LIG1       -0.4573
      6 H          -0.1494    0.9865   -0.9063 H       1  LIG1        0.1041
      7 S           2.7405    0.4432    0.3175 S.3     1  LIG1       -0.1383
      8 H           2.9078    0.6318    1.6386 H       1  LIG1        0.1072
      9 N           3.9906    4.1379    1.5779 N.1     1  LIG1       -0.1907
     10 C           3.0799    3.7418    0.9839 C.1     1  LIG1        0.1042
     11 C           0.5298    5.3132   -0.2440 C.ar    1  LIG1        0.1864
     12 C           1.2473    6.4609   -0.4308 C.ar    1  LIG1        0.0719
     13 C           0.2754    7.5220   -0.4389 C.ar    1  LIG1        0.1144
     14 C          -0.9523    6.9364   -0.2538 C.ar    1  LIG1        0.1902
     15 O          -0.8026    5.6059   -0.1288 O.2     1  LIG1       -0.4461
     16 S           2.9815    6.6253   -0.6464 S.3     1  LIG1       -0.1376
     17 H           2.8978    7.7544   -1.3722 H       1  LIG1        0.1073
     18 N           0.8353    9.9746   -0.9883 N.1     1  LIG1       -0.1907
     19 C           0.5578    8.8828   -0.7226 C.1     1  LIG1        0.1042
     20 C          -2.2951    7.4474   -0.1578 C.ar    1  LIG1        0.1854
     21 C          -2.8443    8.6037    0.3242 C.ar    1  LIG1        0.0712
     22 C          -4.2661    8.4449    0.1535 C.ar    1  LIG1        0.1033
     23 C          -4.4559    7.2148   -0.3992 C.ar    1  LIG1        0.1112
     24 O          -3.2840    6.6065   -0.5994 O.2     1  LIG1       -0.4573
     25 H          -5.3450    6.6778   -0.6894 H       1  LIG1        0.1043
     26 S          -2.0195    9.9899    1.0141 S.3     1  LIG1       -0.1376
     27 H          -3.0727   10.3952    1.7452 H       1  LIG1        0.1073
     28 N          -6.0588   10.1581    0.8553 N.1     1  LIG1       -0.1907
     29 C          -5.2681    9.3800    0.5277 C.1     1  LIG1        0.1034
@<TRIPOS>BOND
     1    17    16    1
     2    18    19    3
     3     6     1    1
     4    19    13    1
     5     5     1   ar
     6     5     4   ar
     7    25    23    1
     8    16    12    1
     9    24    23   ar
    10    24    20   ar
    11     1     2   ar
    12    13    12   ar
    13    13    14   ar
    14    12    11   ar
    15    23    22   ar
    16    14    20    1
    17    14    15   ar
    18    11     4    1
    19    11    15   ar
    20     4     3   ar
    21    20    21   ar
    22     2     3   ar
    23     2     7    1
    24    22    21   ar
    25    22    29    1
    26     3    10    1
    27     7     8    1
    28    21    26    1
    29    29    28    3
    30    10     9    3
    31    26    27    1
