@<TRIPOS>MOLECULE
mol_data/opt/cam/geoms/mol2/12gd12gd12gd-12gd.out
 38 41 0 0 0
SMALL
GASTEIGER

@<TRIPOS>ATOM
      1 C           0.7195    2.1144    1.5984 C.ar    1  LIG1        0.1071
      2 C           1.8128    1.9220    0.8230 C.ar    1  LIG1        0.0607
      3 C           1.9892    3.1529    0.0934 C.ar    1  LIG1        0.1136
      4 C           0.9848    3.9915    0.5035 C.ar    1  LIG1        0.1892
      5 O           0.2182    3.3616    1.4231 O.2     1  LIG1       -0.4573
      6 H           0.2023    1.4820    2.3016 H       1  LIG1        0.1041
      7 S           2.8417    0.4917    0.8187 S.3     1  LIG1       -0.1383
      8 H           2.7706    0.2460   -0.5017 H       1  LIG1        0.1072
      9 N           3.7272    3.5452   -1.7672 N.1     1  LIG1       -0.1907
     10 C           2.9514    3.3884   -0.9231 C.1     1  LIG1        0.1042
     11 C           0.6153    5.3445    0.1726 C.ar    1  LIG1        0.1864
     12 C           1.3183    6.4707   -0.1509 C.ar    1  LIG1        0.0719
     13 C           0.3291    7.4973   -0.3425 C.ar    1  LIG1        0.1144
     14 C          -0.8918    6.9230   -0.0885 C.ar    1  LIG1        0.1902
     15 O          -0.7244    5.6215    0.2077 O.2     1  LIG1       -0.4461
     16 S           3.0566    6.6446   -0.3243 S.3     1  LIG1       -0.1376
     17 H           3.0741    7.9467    0.0107 H       1  LIG1        0.1073
     18 N           0.8628    9.8938   -1.1201 N.1     1  LIG1       -0.1907
     19 C           0.5983    8.8238   -0.7673 C.1     1  LIG1        0.1042
     20 C          -2.2435    7.4186   -0.0719 C.ar    1  LIG1        0.1864
     21 C          -2.8195    8.6137    0.2583 C.ar    1  LIG1        0.0719
     22 C          -4.2333    8.4178    0.0791 C.ar    1  LIG1        0.1144
     23 C          -4.4065    7.1139   -0.3146 C.ar    1  LIG1        0.1902
     24 O          -3.2093    6.5120   -0.4184 O.2     1  LIG1       -0.4461
     25 S          -2.0287   10.0902    0.7805 S.3     1  LIG1       -0.1376
     26 H          -3.1013   10.5654    1.4373 H       1  LIG1        0.1073
     27 N          -5.9916   10.2762    0.3725 N.1     1  LIG1       -0.1907
     28 C          -5.2224    9.4223    0.2361 C.1     1  LIG1        0.1042
     29 C          -5.5616    6.3084   -0.6167 C.ar    1  LIG1        0.1854
     30 C          -6.8434    6.2586   -0.1420 C.ar    1  LIG1        0.0712
     31 C          -7.4667    5.1728   -0.8550 C.ar    1  LIG1        0.1033
     32 C          -6.5170    4.6558   -1.6830 C.ar    1  LIG1        0.1112
     33 O          -5.3709    5.3293   -1.5574 O.2     1  LIG1       -0.4573
     34 H          -6.5334    3.8395   -2.3877 H       1  LIG1        0.1043
     35 S          -7.5896    7.2732    1.0794 S.3     1  LIG1       -0.1376
     36 H          -8.5269    6.3703    1.4170 H       1  LIG1        0.1073
     37 N          -9.8892    4.3617   -0.5173 N.1     1  LIG1       -0.1907
     38 C          -8.8014    4.7154   -0.6888 C.1     1  LIG1        0.1034
@<TRIPOS>BOND
     1    34    32    1
     2     9    10    3
     3    32    33   ar
     4    32    31   ar
     5    33    29   ar
     6    18    19    3
     7    10     3    1
     8    31    38    1
     9    31    30   ar
    10    19    13    1
    11    38    37    3
    12    29    23    1
    13    29    30   ar
    14     8     7    1
    15    24    23   ar
    16    24    20   ar
    17    13    12   ar
    18    13    14   ar
    19    16    12    1
    20    16    17    1
    21    23    22   ar
    22    12    11   ar
    23    30    35    1
    24    14    20    1
    25    14    15   ar
    26    20    21   ar
    27    22    28    1
    28    22    21   ar
    29     3     4   ar
    30     3     2   ar
    31    11    15   ar
    32    11     4    1
    33    28    27    3
    34    21    25    1
    35     4     5   ar
    36    25    26    1
    37     7     2    1
    38     2     1   ar
    39    35    36    1
    40     5     1   ar
    41     1     6    1
