@<TRIPOS>MOLECULE
mol_data/opt/cam/geoms/mol2/12gd12gd-.out
 20 21 0 0 0
SMALL
GASTEIGER

@<TRIPOS>ATOM
      1 C           0.1238    1.8438   -0.0000 C.ar    1  LIG1        0.1071
      2 C           1.4753    1.7927    0.0000 C.ar    1  LIG1        0.0607
      3 C           1.9163    3.1672   -0.0000 C.ar    1  LIG1        0.1136
      4 C           0.7774    3.9418   -0.0001 C.ar    1  LIG1        0.1892
      5 O          -0.3017    3.1366   -0.0001 O.2     1  LIG1       -0.4573
      6 H          -0.6461    1.0905   -0.0000 H       1  LIG1        0.1041
      7 S           2.4754    0.3450    0.0001 S.3     1  LIG1       -0.1383
      8 H           3.6505    0.9970    0.0001 H       1  LIG1        0.1072
      9 N           4.4294    3.7122   -0.0000 N.1     1  LIG1       -0.1907
     10 C           3.2851    3.5343   -0.0000 C.1     1  LIG1        0.1042
     11 C           0.4786    5.3542   -0.0001 C.ar    1  LIG1        0.1853
     12 C           1.1940    6.5229   -0.0001 C.ar    1  LIG1        0.0712
     13 C           0.2047    7.5714   -0.0002 C.ar    1  LIG1        0.1033
     14 C          -1.0119    6.9619   -0.0002 C.ar    1  LIG1        0.1112
     15 O          -0.8656    5.6372   -0.0002 O.2     1  LIG1       -0.4573
     16 H          -2.0192    7.3473   -0.0003 H       1  LIG1        0.1043
     17 S           2.9318    6.7646    0.0001 S.3     1  LIG1       -0.1376
     18 H           2.8484    8.1066    0.0001 H       1  LIG1        0.1073
     19 N           0.7230   10.0954   -0.0001 N.1     1  LIG1       -0.1907
     20 C           0.4651    8.9675   -0.0001 C.1     1  LIG1        0.1034
@<TRIPOS>BOND
     1    16    14    1
     2    14    15   ar
     3    14    13   ar
     4    15    11   ar
     5    13    20    1
     6    13    12   ar
     7    20    19    3
     8    11     4    1
     9    11    12   ar
    10     4     5   ar
    11     4     3   ar
    12    12    17    1
    13     5     1   ar
    14     9    10    3
    15    10     3    1
    16     3     2   ar
    17     1     6    1
    18     1     2   ar
    19     2     7    1
    20     7     8    1
    21    17    18    1
