@<TRIPOS>MOLECULE
mol_data/opt/cam/geoms/mol2/12gd12gd12gd-12gd-.out
 38 41 0 0 0
SMALL
GASTEIGER

@<TRIPOS>ATOM
      1 C           0.7030    2.1199    1.6368 C.ar    1  LIG1        0.1071
      2 C           1.8038    1.9246    0.8727 C.ar    1  LIG1        0.0607
      3 C           1.9874    3.1529    0.1403 C.ar    1  LIG1        0.1136
      4 C           0.9792    3.9930    0.5376 C.ar    1  LIG1        0.1892
      5 O           0.2037    3.3666    1.4521 O.2     1  LIG1       -0.4573
      6 H           0.1791    1.4902    2.3373 H       1  LIG1        0.1041
      7 S           2.8326    0.4942    0.8835 S.3     1  LIG1       -0.1383
      8 H           2.7728    0.2428   -0.4364 H       1  LIG1        0.1072
      9 N           3.7432    3.5379   -1.7050 N.1     1  LIG1       -0.1907
     10 C           2.9594    3.3844   -0.8678 C.1     1  LIG1        0.1042
     11 C           0.6132    5.3449    0.1982 C.ar    1  LIG1        0.1864
     12 C           1.3194    6.4698   -0.1227 C.ar    1  LIG1        0.0719
     13 C           0.3321    7.4958   -0.3275 C.ar    1  LIG1        0.1144
     14 C          -0.8911    6.9227   -0.0828 C.ar    1  LIG1        0.1902
     15 O          -0.7268    5.6223    0.2199 O.2     1  LIG1       -0.4461
     16 S           3.0592    6.6430   -0.2804 S.3     1  LIG1       -0.1376
     17 H           3.0735    7.9464    0.0492 H       1  LIG1        0.1073
     18 N           0.8742    9.8891   -1.1091 N.1     1  LIG1       -0.1907
     19 C           0.6058    8.8206   -0.7547 C.1     1  LIG1        0.1042
     20 C          -2.2429    7.4185   -0.0807 C.ar    1  LIG1        0.1864
     21 C          -2.8218    8.6149    0.2392 C.ar    1  LIG1        0.0719
     22 C          -4.2338    8.4186    0.0477 C.ar    1  LIG1        0.1144
     23 C          -4.4035    7.1131   -0.3424 C.ar    1  LIG1        0.1902
     24 O          -3.2056    6.5106   -0.4325 O.2     1  LIG1       -0.4461
     25 S          -2.0356   10.0935    0.7630 S.3     1  LIG1       -0.1376
     26 H          -3.1144   10.5716    1.4074 H       1  LIG1        0.1073
     27 N          -5.9941   10.2786    0.3175 N.1     1  LIG1       -0.1907
     28 C          -5.2240    9.4239    0.1914 C.1     1  LIG1        0.1042
     29 C          -5.5559    6.3066   -0.6521 C.ar    1  LIG1        0.1854
     30 C          -6.8422    6.2592   -0.1895 C.ar    1  LIG1        0.0712
     31 C          -7.4590    5.1706   -0.9039 C.ar    1  LIG1        0.1033
     32 C          -6.5017    4.6499   -1.7205 C.ar    1  LIG1        0.1112
     33 O          -5.3566    5.3235   -1.5868 O.2     1  LIG1       -0.4573
     34 H          -6.5116    3.8306   -2.4220 H       1  LIG1        0.1043
     35 S          -7.5996    7.2791    1.0205 S.3     1  LIG1       -0.1376
     36 H          -8.5405    6.3779    1.3529 H       1  LIG1        0.1073
     37 N          -9.8850    4.3618   -0.5857 N.1     1  LIG1       -0.1907
     38 C          -8.7955    4.7143   -0.7485 C.1     1  LIG1        0.1034
@<TRIPOS>BOND
     1    34    32    1
     2    32    33   ar
     3    32    31   ar
     4     9    10    3
     5    33    29   ar
     6    18    19    3
     7    31    38    1
     8    31    30   ar
     9    10     3    1
    10    19    13    1
    11    38    37    3
    12    29    23    1
    13    29    30   ar
    14     8     7    1
    15    24    23   ar
    16    24    20   ar
    17    23    22   ar
    18    13    12   ar
    19    13    14   ar
    20    16    12    1
    21    16    17    1
    22    30    35    1
    23    12    11   ar
    24    14    20    1
    25    14    15   ar
    26    20    21   ar
    27    22    28    1
    28    22    21   ar
    29     3     4   ar
    30     3     2   ar
    31    28    27    3
    32    11    15   ar
    33    11     4    1
    34    21    25    1
    35     4     5   ar
    36    25    26    1
    37     2     7    1
    38     2     1   ar
    39    35    36    1
    40     5     1   ar
    41     1     6    1
