@<TRIPOS>MOLECULE
mol_data/opt/cam/geoms/mol2/12gd12gd.out
 20 21 0 0 0
SMALL
GASTEIGER

@<TRIPOS>ATOM
      1 C           0.2816    1.8781    0.5306 C.ar    1  LIG1        0.1071
      2 C           1.6016    1.8573    0.2310 C.ar    1  LIG1        0.0607
      3 C           1.9488    3.2228   -0.0771 C.ar    1  LIG1        0.1136
      4 C           0.8008    3.9562    0.0755 C.ar    1  LIG1        0.1892
      5 O          -0.2098    3.1397    0.4519 O.2     1  LIG1       -0.4573
      6 H          -0.4162    1.1062    0.8113 H       1  LIG1        0.1041
      7 S           2.6624    0.4531    0.3189 S.3     1  LIG1       -0.1383
      8 H           3.1291    0.5240   -0.9405 H       1  LIG1        0.1072
      9 N           4.2365    4.0177   -0.9551 N.1     1  LIG1       -0.1907
     10 C           3.2085    3.6772   -0.5474 C.1     1  LIG1        0.1042
     11 C           0.4828    5.3551   -0.0675 C.ar    1  LIG1        0.1853
     12 C           1.1627    6.5152    0.1758 C.ar    1  LIG1        0.0712
     13 C           0.2392    7.5714   -0.1541 C.ar    1  LIG1        0.1033
     14 C          -0.9143    6.9674   -0.5517 C.ar    1  LIG1        0.1112
     15 O          -0.7820    5.6380   -0.5150 O.2     1  LIG1       -0.4573
     16 H          -1.8659    7.3584   -0.8753 H       1  LIG1        0.1043
     17 S           2.8067    6.7012    0.7640 S.3     1  LIG1       -0.1376
     18 H           2.5806    7.8864    1.3575 H       1  LIG1        0.1073
     19 N           0.7009   10.0972    0.0684 N.1     1  LIG1       -0.1907
     20 C           0.4798    8.9674   -0.0441 C.1     1  LIG1        0.1034
@<TRIPOS>BOND
     1     9    10    3
     2     8     7    1
     3    16    14    1
     4    14    15   ar
     5    14    13   ar
     6    10     3    1
     7    15    11   ar
     8    13    20    1
     9    13    12   ar
    10     3     4   ar
    11     3     2   ar
    12    11     4    1
    13    11    12   ar
    14    20    19    3
    15     4     5   ar
    16    12    17    1
    17     2     7    1
    18     2     1   ar
    19     5     1   ar
    20     1     6    1
    21    17    18    1
