@<TRIPOS>MOLECULE
mol_data/opt/cam/geoms/mol2/12gd12gd12gd12gd.out
 38 41 0 0 0
SMALL
GASTEIGER

@<TRIPOS>ATOM
      1 C           0.6248    1.7355    0.1996 C.ar    1  LIG1        0.1071
      2 C           1.9231    1.8573   -0.1646 C.ar    1  LIG1        0.0607
      3 C           2.1732    3.2759   -0.2324 C.ar    1  LIG1        0.1136
      4 C           0.9966    3.8911    0.1106 C.ar    1  LIG1        0.1892
      5 O           0.0584    2.9543    0.3793 O.2     1  LIG1       -0.4573
      6 H          -0.0091    0.8802    0.3684 H       1  LIG1        0.1041
      7 S           3.0647    0.5342   -0.3897 S.3     1  LIG1       -0.1383
      8 H           3.4425    0.8575   -1.6393 H       1  LIG1        0.1072
      9 N           4.3539    4.3666   -1.0635 N.1     1  LIG1       -0.1907
     10 C           3.3738    3.8904   -0.6741 C.1     1  LIG1        0.1042
     11 C           0.5925    5.2674    0.2449 C.ar    1  LIG1        0.1864
     12 C           1.2225    6.4069    0.6596 C.ar    1  LIG1        0.0719
     13 C           0.2220    7.4393    0.6023 C.ar    1  LIG1        0.1144
     14 C          -0.9335    6.8467    0.1553 C.ar    1  LIG1        0.1902
     15 O          -0.7125    5.5389   -0.0671 O.2     1  LIG1       -0.4461
     16 S           2.8876    6.5888    1.1837 S.3     1  LIG1       -0.1376
     17 H           2.6393    7.6433    1.9806 H       1  LIG1        0.1073
     18 N           0.5867    9.8344    1.4742 N.1     1  LIG1       -0.1907
     19 C           0.3997    8.7698    1.0601 C.1     1  LIG1        0.1042
     20 C          -2.2595    7.3330   -0.1187 C.ar    1  LIG1        0.1864
     21 C          -2.7661    8.5215   -0.5674 C.ar    1  LIG1        0.0719
     22 C          -4.1843    8.3111   -0.6833 C.ar    1  LIG1        0.1144
     23 C          -4.4273    7.0167   -0.2932 C.ar    1  LIG1        0.1902
     24 O          -3.2708    6.4258    0.0523 O.2     1  LIG1       -0.4461
     25 S          -1.8922    9.9900   -0.9618 S.3     1  LIG1       -0.1376
     26 H          -2.8244   10.4486   -1.8159 H       1  LIG1        0.1073
     27 N          -5.8008   10.0343   -1.7064 N.1     1  LIG1       -0.1907
     28 C          -5.1013    9.2459   -1.2281 C.1     1  LIG1        0.1042
     29 C          -5.6199    6.2197   -0.1744 C.ar    1  LIG1        0.1854
     30 C          -6.9257    6.4924    0.1306 C.ar    1  LIG1        0.0712
     31 C          -7.5884    5.2133    0.1234 C.ar    1  LIG1        0.1033
     32 C          -6.6368    4.2842   -0.1699 C.ar    1  LIG1        0.1112
     33 O          -5.4526    4.8711   -0.3581 O.2     1  LIG1       -0.4573
     34 H          -6.6765    3.2112   -0.2729 H       1  LIG1        0.1043
     35 S          -7.6582    8.0483    0.4746 S.3     1  LIG1       -0.1376
     36 H          -8.6879    7.5352    1.1706 H       1  LIG1        0.1073
     37 N         -10.0796    4.8198    0.6525 N.1     1  LIG1       -0.1907
     38 C          -8.9604    4.9764    0.4056 C.1     1  LIG1        0.1034
@<TRIPOS>BOND
     1    26    25    1
     2    27    28    3
     3     8     7    1
     4    28    22    1
     5     9    10    3
     6    25    21    1
     7    22    21   ar
     8    22    23   ar
     9    10     3    1
    10    21    20   ar
    11     7     2    1
    12    33    29   ar
    13    33    32   ar
    14    23    29    1
    15    23    24   ar
    16    34    32    1
    17     3     2   ar
    18     3     4   ar
    19    29    30   ar
    20    32    31   ar
    21     2     1   ar
    22    20    24   ar
    23    20    14    1
    24    15    14   ar
    25    15    11   ar
    26     4    11    1
    27     4     5   ar
    28    31    30   ar
    29    31    38    1
    30    30    35    1
    31    14    13   ar
    32     1     6    1
    33     1     5   ar
    34    11    12   ar
    35    38    37    3
    36    35    36    1
    37    13    12   ar
    38    13    19    1
    39    12    16    1
    40    19    18    3
    41    16    17    1
