@<TRIPOS>MOLECULE
mol_data/opt/cam/geoms/mol2/12gd12gd-12gd-12gd.out
 38 41 0 0 0
SMALL
GASTEIGER

@<TRIPOS>ATOM
      1 C           0.5466    1.7395   -0.1292 C.ar    1  LIG1        0.1071
      2 C           1.8006    1.8348    0.3722 C.ar    1  LIG1        0.0607
      3 C           2.0715    3.2479    0.4677 C.ar    1  LIG1        0.1136
      4 C           0.9514    3.8870    0.0013 C.ar    1  LIG1        0.1892
      5 O           0.0282    2.9697   -0.3673 O.2     1  LIG1       -0.4573
      6 H          -0.0835    0.8976   -0.3656 H       1  LIG1        0.1041
      7 S           2.8836    0.4886    0.7174 S.3     1  LIG1       -0.1383
      8 H           3.1378    0.8104    1.9982 H       1  LIG1        0.1072
      9 N           4.1727    4.2938    1.5293 N.1     1  LIG1       -0.1907
     10 C           3.2303    3.8378    1.0363 C.1     1  LIG1        0.1042
     11 C           0.5917    5.2713   -0.1723 C.ar    1  LIG1        0.1864
     12 C           1.2852    6.3984   -0.5130 C.ar    1  LIG1        0.0719
     13 C           0.3051    7.4504   -0.5599 C.ar    1  LIG1        0.1144
     14 C          -0.9034    6.8810   -0.2418 C.ar    1  LIG1        0.1902
     15 O          -0.7332    5.5687   -0.0011 O.2     1  LIG1       -0.4461
     16 S           3.0004    6.5471   -0.8548 S.3     1  LIG1       -0.1376
     17 H           2.8603    7.6058   -1.6723 H       1  LIG1        0.1073
     18 N           0.8091    9.8389   -1.3792 N.1     1  LIG1       -0.1907
     19 C           0.5573    8.7778   -0.9914 C.1     1  LIG1        0.1042
     20 C          -2.2413    7.3935   -0.1075 C.ar    1  LIG1        0.1864
     21 C          -2.7699    8.5896    0.2926 C.ar    1  LIG1        0.0719
     22 C          -4.1962    8.4178    0.2241 C.ar    1  LIG1        0.1144
     23 C          -4.4213    7.1251   -0.1806 C.ar    1  LIG1        0.1902
     24 O          -3.2463    6.5083   -0.3930 O.2     1  LIG1       -0.4461
     25 S          -1.9151   10.0423    0.7780 S.3     1  LIG1       -0.1376
     26 H          -2.9252   10.5236    1.5235 H       1  LIG1        0.1073
     27 N          -5.8959   10.2948    0.6923 N.1     1  LIG1       -0.1907
     28 C          -5.1535    9.4329    0.4791 C.1     1  LIG1        0.1042
     29 C          -5.6101    6.3435   -0.4045 C.ar    1  LIG1        0.1854
     30 C          -6.8506    6.3036    0.1703 C.ar    1  LIG1        0.0712
     31 C          -7.5472    5.2427   -0.5116 C.ar    1  LIG1        0.1033
     32 C          -6.6756    4.7286   -1.4230 C.ar    1  LIG1        0.1112
     33 O          -5.5119    5.3814   -1.3766 O.2     1  LIG1       -0.4573
     34 H          -6.7623    3.9274   -2.1400 H       1  LIG1        0.1043
     35 S          -7.4798    7.3036    1.4673 S.3     1  LIG1       -0.1376
     36 H          -8.4017    6.4078    1.8615 H       1  LIG1        0.1073
     37 N          -9.9488    4.4618    0.0016 N.1     1  LIG1       -0.1907
     38 C          -8.8721    4.8025   -0.2485 C.1     1  LIG1        0.1034
@<TRIPOS>BOND
     1    34    32    1
     2    17    16    1
     3    32    33   ar
     4    32    31   ar
     5    18    19    3
     6    33    29   ar
     7    19    13    1
     8    16    12    1
     9    13    12   ar
    10    13    14   ar
    11    12    11   ar
    12    31    38    1
    13    31    30   ar
    14    29    23    1
    15    29    30   ar
    16    24    23   ar
    17    24    20   ar
    18     5     1   ar
    19     5     4   ar
    20     6     1    1
    21    38    37    3
    22    14    20    1
    23    14    15   ar
    24    23    22   ar
    25    11    15   ar
    26    11     4    1
    27     1     2   ar
    28    20    21   ar
    29     4     3   ar
    30    30    35    1
    31    22    21   ar
    32    22    28    1
    33    21    25    1
    34     2     3   ar
    35     2     7    1
    36     3    10    1
    37    28    27    3
    38     7     8    1
    39    25    26    1
    40    10     9    3
    41    35    36    1
