@<TRIPOS>MOLECULE
mol_data/opt/cam/geoms/mol2/12gd12gd12gd-.out
 29 31 0 0 0
SMALL
GASTEIGER

@<TRIPOS>ATOM
      1 C           0.4525    1.9259    1.0029 C.ar    1  LIG1        0.1071
      2 C           1.6759    1.8489    0.4278 C.ar    1  LIG1        0.0607
      3 C           1.9602    3.1783   -0.0528 C.ar    1  LIG1        0.1136
      4 C           0.8790    3.9503    0.2867 C.ar    1  LIG1        0.1892
      5 O          -0.0334    3.1894    0.9341 O.2     1  LIG1       -0.4573
      6 H          -0.1740    1.1945    1.4871 H       1  LIG1        0.1041
      7 S           2.7175    0.4281    0.3937 S.3     1  LIG1       -0.1383
      8 H           2.8821    0.3798   -0.9402 H       1  LIG1        0.1072
      9 N           4.0088    3.8456   -1.4650 N.1     1  LIG1       -0.1907
     10 C           3.0914    3.5635   -0.8187 C.1     1  LIG1        0.1042
     11 C           0.5497    5.3420    0.1097 C.ar    1  LIG1        0.1864
     12 C           1.2763    6.4989    0.1056 C.ar    1  LIG1        0.0719
     13 C           0.3184    7.5516   -0.1050 C.ar    1  LIG1        0.1144
     14 C          -0.9154    6.9550   -0.1791 C.ar    1  LIG1        0.1902
     15 O          -0.7790    5.6219   -0.0646 O.2     1  LIG1       -0.4461
     16 S           3.0121    6.6838    0.2928 S.3     1  LIG1       -0.1376
     17 H           2.9378    7.9172    0.8228 H       1  LIG1        0.1073
     18 N           0.9331   10.0378   -0.3768 N.1     1  LIG1       -0.1907
     19 C           0.6322    8.9269   -0.2554 C.1     1  LIG1        0.1042
     20 C          -2.2568    7.4549   -0.3405 C.ar    1  LIG1        0.1854
     21 C          -2.9105    8.5859    0.0642 C.ar    1  LIG1        0.0712
     22 C          -4.2640    8.4266   -0.4035 C.ar    1  LIG1        0.1033
     23 C          -4.3175    7.2208   -1.0340 C.ar    1  LIG1        0.1112
     24 O          -3.1208    6.6285   -1.0117 O.2     1  LIG1       -0.4573
     25 H          -5.1195    6.6918   -1.5244 H       1  LIG1        0.1043
     26 S          -2.2682    9.9460    0.9681 S.3     1  LIG1       -0.1376
     27 H          -3.4572   10.3130    1.4776 H       1  LIG1        0.1073
     28 N          -6.1872   10.0971   -0.0139 N.1     1  LIG1       -0.1907
     29 C          -5.3351    9.3386   -0.2051 C.1     1  LIG1        0.1034
@<TRIPOS>BOND
     1    25    23    1
     2     9    10    3
     3    23    24   ar
     4    23    22   ar
     5    24    20   ar
     6     8     7    1
     7    10     3    1
     8    22    29    1
     9    22    21   ar
    10    18    19    3
    11    20    14    1
    12    20    21   ar
    13    19    13    1
    14    29    28    3
    15    14    13   ar
    16    14    15   ar
    17    13    12   ar
    18    15    11   ar
    19     3     4   ar
    20     3     2   ar
    21    21    26    1
    22    12    11   ar
    23    12    16    1
    24    11     4    1
    25     4     5   ar
    26    16    17    1
    27     7     2    1
    28     2     1   ar
    29     5     1   ar
    30    26    27    1
    31     1     6    1
