@<TRIPOS>MOLECULE
mol_data/opt/cam/geoms/mol2/12gd12gd12gd12gd-.out
 38 41 0 0 0
SMALL
GASTEIGER

@<TRIPOS>ATOM
      1 C           0.6269    1.7373    0.2054 C.ar    1  LIG1        0.1071
      2 C           1.9246    1.8587   -0.1610 C.ar    1  LIG1        0.0607
      3 C           2.1740    3.2772   -0.2330 C.ar    1  LIG1        0.1136
      4 C           0.9977    3.8928    0.1100 C.ar    1  LIG1        0.1892
      5 O           0.0603    2.9564    0.3826 O.2     1  LIG1       -0.4573
      6 H          -0.0063    0.8823    0.3775 H       1  LIG1        0.1041
      7 S           3.0665    0.5355   -0.3841 S.3     1  LIG1       -0.1383
      8 H           3.4424    0.8555   -1.6351 H       1  LIG1        0.1072
      9 N           4.3531    4.3666   -1.0702 N.1     1  LIG1       -0.1907
     10 C           3.3737    3.8910   -0.6781 C.1     1  LIG1        0.1042
     11 C           0.5932    5.2693    0.2411 C.ar    1  LIG1        0.1864
     12 C           1.2232    6.4102    0.6517 C.ar    1  LIG1        0.0719
     13 C           0.2222    7.4420    0.5930 C.ar    1  LIG1        0.1144
     14 C          -0.9337    6.8477    0.1493 C.ar    1  LIG1        0.1902
     15 O          -0.7125    5.5395   -0.0698 O.2     1  LIG1       -0.4461
     16 S           2.8890    6.5943    1.1730 S.3     1  LIG1       -0.1376
     17 H           2.6414    7.6508    1.9674 H       1  LIG1        0.1073
     18 N           0.5871    9.8397    1.4578 N.1     1  LIG1       -0.1907
     19 C           0.3999    8.7739    1.0470 C.1     1  LIG1        0.1042
     20 C          -2.2603    7.3327   -0.1241 C.ar    1  LIG1        0.1864
     21 C          -2.7680    8.5198   -0.5754 C.ar    1  LIG1        0.0719
     22 C          -4.1863    8.3084   -0.6886 C.ar    1  LIG1        0.1144
     23 C          -4.4282    7.0150   -0.2947 C.ar    1  LIG1        0.1902
     24 O          -3.2709    6.4255    0.0508 O.2     1  LIG1       -0.4461
     25 S          -1.8953    9.9876   -0.9751 S.3     1  LIG1       -0.1376
     26 H          -2.8290   10.4433   -1.8291 H       1  LIG1        0.1073
     27 N          -5.8050   10.0281   -1.7143 N.1     1  LIG1       -0.1907
     28 C          -5.1045    9.2413   -1.2347 C.1     1  LIG1        0.1042
     29 C          -5.6203    6.2178   -0.1720 C.ar    1  LIG1        0.1854
     30 C          -6.9258    6.4908    0.1341 C.ar    1  LIG1        0.0712
     31 C          -7.5879    5.2114    0.1314 C.ar    1  LIG1        0.1033
     32 C          -6.6364    4.2819   -0.1607 C.ar    1  LIG1        0.1112
     33 O          -5.4526    4.8687   -0.3522 O.2     1  LIG1       -0.4573
     34 H          -6.6757    3.2086   -0.2607 H       1  LIG1        0.1043
     35 S          -7.6585    8.0473    0.4749 S.3     1  LIG1       -0.1376
     36 H          -8.6869    7.5357    1.1737 H       1  LIG1        0.1073
     37 N         -10.0781    4.8182    0.6651 N.1     1  LIG1       -0.1907
     38 C          -8.9594    4.9746    0.4162 C.1     1  LIG1        0.1034
@<TRIPOS>BOND
     1    26    25    1
     2    27    28    3
     3     8     7    1
     4    28    22    1
     5     9    10    3
     6    25    21    1
     7    22    21   ar
     8    22    23   ar
     9    10     3    1
    10    21    20   ar
    11     7     2    1
    12    33    29   ar
    13    33    32   ar
    14    23    29    1
    15    23    24   ar
    16    34    32    1
    17     3     2   ar
    18     3     4   ar
    19    29    30   ar
    20     2     1   ar
    21    32    31   ar
    22    20    24   ar
    23    20    14    1
    24    15    14   ar
    25    15    11   ar
    26     4    11    1
    27     4     5   ar
    28    31    30   ar
    29    31    38    1
    30    30    35    1
    31    14    13   ar
    32     1     6    1
    33     1     5   ar
    34    11    12   ar
    35    38    37    3
    36    35    36    1
    37    13    12   ar
    38    13    19    1
    39    12    16    1
    40    19    18    3
    41    16    17    1
