@<TRIPOS>MOLECULE
mol_data/opt/cam/geoms/mol2/12gd12gd-12gd-12gd-.out
 38 41 0 0 0
SMALL
GASTEIGER

@<TRIPOS>ATOM
      1 C           0.6288    1.7371   -0.2213 C.ar    1  LIG1        0.1071
      2 C           1.9209    1.8570    0.1651 C.ar    1  LIG1        0.0607
      3 C           2.1695    3.2751    0.2453 C.ar    1  LIG1        0.1136
      4 C           0.9987    3.8922   -0.1136 C.ar    1  LIG1        0.1892
      5 O           0.0652    2.9570   -0.4032 O.2     1  LIG1       -0.4573
      6 H          -0.0020    0.8829   -0.4055 H       1  LIG1        0.1041
      7 S           3.0588    0.5326    0.4013 S.3     1  LIG1       -0.1383
      8 H           3.4159    0.8486    1.6589 H       1  LIG1        0.1072
      9 N           4.3360    4.3611    1.1187 N.1     1  LIG1       -0.1907
     10 C           3.3626    3.8872    0.7103 C.1     1  LIG1        0.1042
     11 C           0.5966    5.2692   -0.2465 C.ar    1  LIG1        0.1864
     12 C           1.2331    6.4112   -0.6440 C.ar    1  LIG1        0.0719
     13 C           0.2317    7.4431   -0.5973 C.ar    1  LIG1        0.1144
     14 C          -0.9309    6.8479   -0.1729 C.ar    1  LIG1        0.1902
     15 O          -0.7135    5.5389    0.0455 O.2     1  LIG1       -0.4461
     16 S           2.9067    6.5963   -1.1395 S.3     1  LIG1       -0.1376
     17 H           2.6714    7.6554   -1.9343 H       1  LIG1        0.1073
     18 N           0.6104    9.8433   -1.4490 N.1     1  LIG1       -0.1907
     19 C           0.4167    8.7764   -1.0444 C.1     1  LIG1        0.1042
     20 C          -2.2614    7.3325    0.0819 C.ar    1  LIG1        0.1864
     21 C          -2.7755    8.5183    0.5291 C.ar    1  LIG1        0.0719
     22 C          -4.1955    8.3071    0.6203 C.ar    1  LIG1        0.1144
     23 C          -4.4317    7.0150    0.2187 C.ar    1  LIG1        0.1902
     24 O          -3.2695    6.4262   -0.1111 O.2     1  LIG1       -0.4461
     25 S          -1.9085    9.9846    0.9465 S.3     1  LIG1       -0.1376
     26 H          -2.8548   10.4380    1.7877 H       1  LIG1        0.1073
     27 N          -5.8290   10.0242    1.6266 N.1     1  LIG1       -0.1907
     28 C          -5.1215    9.2387    1.1553 C.1     1  LIG1        0.1042
     29 C          -5.6221    6.2186    0.0756 C.ar    1  LIG1        0.1854
     30 C          -6.9227    6.4930   -0.2494 C.ar    1  LIG1        0.0712
     31 C          -7.5851    5.2138   -0.2607 C.ar    1  LIG1        0.1033
     32 C          -6.6384    4.2831    0.0429 C.ar    1  LIG1        0.1112
     33 O          -5.4575    4.8689    0.2541 O.2     1  LIG1       -0.4573
     34 H          -6.6796    3.2096    0.1390 H       1  LIG1        0.1043
     35 S          -7.6496    8.0508   -0.5965 S.3     1  LIG1       -0.1376
     36 H          -8.6676    7.5417   -1.3123 H       1  LIG1        0.1073
     37 N         -10.0672    4.8232   -0.8332 N.1     1  LIG1       -0.1907
     38 C          -8.9523    4.9784   -0.5669 C.1     1  LIG1        0.1034
@<TRIPOS>BOND
     1    17    16    1
     2    18    19    3
     3    36    35    1
     4    16    12    1
     5    19    13    1
     6    37    38    3
     7    12    13   ar
     8    12    11   ar
     9    13    14   ar
    10    35    30    1
    11    38    31    1
    12     6     1    1
    13     5     1   ar
    14     5     4   ar
    15    31    30   ar
    16    31    32   ar
    17    30    29   ar
    18    11     4    1
    19    11    15   ar
    20     1     2   ar
    21    14    15   ar
    22    14    20    1
    23     4     3   ar
    24    24    20   ar
    25    24    23   ar
    26    32    34    1
    27    32    33   ar
    28    29    23    1
    29    29    33   ar
    30    20    21   ar
    31     2     3   ar
    32     2     7    1
    33    23    22   ar
    34     3    10    1
    35     7     8    1
    36    21    22   ar
    37    21    25    1
    38    22    28    1
    39    10     9    3
    40    25    26    1
    41    28    27    3
