@<TRIPOS>MOLECULE
mol_data/opt/cam/geoms/mol2/12gd12gd-12gd12gd-.out
 38 41 0 0 0
SMALL
GASTEIGER

@<TRIPOS>ATOM
      1 C           0.0595    1.8777    0.0002 C.ar    1  LIG1        0.1071
      2 C           1.4074    1.7647    0.0001 C.ar    1  LIG1        0.0607
      3 C           1.9109    3.1172   -0.0000 C.ar    1  LIG1        0.1136
      4 C           0.8077    3.9437   -0.0000 C.ar    1  LIG1        0.1892
      5 O          -0.3072    3.1879    0.0001 O.2     1  LIG1       -0.4573
      6 H          -0.7430    1.1593    0.0003 H       1  LIG1        0.1041
      7 S           2.3388    0.2721    0.0001 S.3     1  LIG1       -0.1383
      8 H           3.5434    0.8678   -0.0000 H       1  LIG1        0.1072
      9 N           4.4478    3.5357   -0.0003 N.1     1  LIG1       -0.1907
     10 C           3.2957    3.4171   -0.0002 C.1     1  LIG1        0.1042
     11 C           0.5727    5.3661   -0.0001 C.ar    1  LIG1        0.1864
     12 C           1.3378    6.5013   -0.0001 C.ar    1  LIG1        0.0719
     13 C           0.4036    7.5977   -0.0002 C.ar    1  LIG1        0.1144
     14 C          -0.8600    7.0475   -0.0001 C.ar    1  LIG1        0.1902
     15 O          -0.7536    5.7098   -0.0001 O.2     1  LIG1       -0.4461
     16 S           3.0848    6.6508   -0.0001 S.3     1  LIG1       -0.1376
     17 H           3.0763    7.9954   -0.0001 H       1  LIG1        0.1073
     18 N           1.2685   10.0194   -0.0003 N.1     1  LIG1       -0.1907
     19 C           0.8161    8.9534   -0.0002 C.1     1  LIG1        0.1042
     20 C          -2.2104    7.5453   -0.0002 C.ar    1  LIG1        0.1864
     21 C          -2.8217    8.7717   -0.0001 C.ar    1  LIG1        0.0719
     22 C          -4.2354    8.4977   -0.0002 C.ar    1  LIG1        0.1144
     23 C          -4.3786    7.1273   -0.0002 C.ar    1  LIG1        0.1902
     24 O          -3.1639    6.5604   -0.0002 O.2     1  LIG1       -0.4461
     25 S          -2.0956   10.3661   -0.0000 S.3     1  LIG1       -0.1376
     26 H          -3.2715   11.0184    0.0000 H       1  LIG1        0.1073
     27 N          -5.9242   10.4371   -0.0002 N.1     1  LIG1       -0.1907
     28 C          -5.2148    9.5220   -0.0002 C.1     1  LIG1        0.1042
     29 C          -5.4795    6.1979   -0.0003 C.ar    1  LIG1        0.1854
     30 C          -6.8497    6.2746   -0.0003 C.ar    1  LIG1        0.0712
     31 C          -7.3024    4.9069   -0.0004 C.ar    1  LIG1        0.1033
     32 C          -6.1880    4.1250   -0.0005 C.ar    1  LIG1        0.1112
     33 O          -5.0913    4.8800   -0.0004 O.2     1  LIG1       -0.4573
     34 H          -6.0508    3.0551   -0.0006 H       1  LIG1        0.1043
     35 S          -7.8883    7.6859   -0.0002 S.3     1  LIG1       -0.1376
     36 H          -9.0292    6.9742   -0.0002 H       1  LIG1        0.1073
     37 N          -9.7711    4.1696   -0.0005 N.1     1  LIG1       -0.1907
     38 C          -8.6552    4.4750   -0.0005 C.1     1  LIG1        0.1034
@<TRIPOS>BOND
     1    34    32    1
     2    32    33   ar
     3    32    31   ar
     4    37    38    3
     5    38    31    1
     6    33    29   ar
     7    31    30   ar
     8    29    30   ar
     9    29    23    1
    10    30    35    1
    11     9    10    3
    12    18    19    3
    13    23    24   ar
    14    23    22   ar
    15    24    20   ar
    16    19    13    1
    17    36    35    1
    18    22    28    1
    19    22    21   ar
    20    28    27    3
    21    10     3    1
    22    20    14    1
    23    20    21   ar
    24    13    14   ar
    25    13    12   ar
    26    14    15   ar
    27    21    25    1
    28    12    16    1
    29    12    11   ar
    30    15    11   ar
    31    16    17    1
    32    11     4    1
    33     3     4   ar
    34     3     2   ar
    35    25    26    1
    36     8     7    1
    37     4     5   ar
    38     2     7    1
    39     2     1   ar
    40     5     1   ar
    41     1     6    1
