@<TRIPOS>MOLECULE
mol_data/opt/cam/geoms/mol2/12ge12ge12ge12ge-.out
 42 45 0 0 0
SMALL
GASTEIGER

@<TRIPOS>ATOM
      1 C           0.7121    1.6946    0.2115 C.ar    1  LIG1        0.1071
      2 C           2.0037    1.8496   -0.1644 C.ar    1  LIG1        0.0587
      3 C           2.2332    3.2738   -0.2242 C.ar    1  LIG1        0.0866
      4 C           1.0459    3.8554    0.1406 C.ar    1  LIG1        0.1872
      5 O           0.1227    2.8962    0.4108 O.2     1  LIG1       -0.4574
      6 H           0.0991    0.8231    0.3757 H       1  LIG1        0.1041
      7 S           3.1642    0.5494   -0.4263 S.3     1  LIG1       -0.1384
      8 H           3.5226    0.8987   -1.6746 H       1  LIG1        0.1072
      9 C           3.4168    3.9196   -0.6601 C.1     1  LIG1       -0.0647
     10 C           4.4237    4.4492   -1.0531 C.1     1  LIG1       -0.1138
     11 H           5.3099    4.9340   -1.3926 H       1  LIG1        0.1232
     12 C           0.6173    5.2234    0.2877 C.ar    1  LIG1        0.1863
     13 C           1.2208    6.3646    0.7338 C.ar    1  LIG1        0.0699
     14 C           0.2195    7.3978    0.6626 C.ar    1  LIG1        0.0874
     15 C          -0.9129    6.7965    0.1721 C.ar    1  LIG1        0.1882
     16 O          -0.6782    5.4877   -0.0605 O.2     1  LIG1       -0.4461
     17 S           2.8586    6.5587    1.3397 S.3     1  LIG1       -0.1377
     18 H           2.5596    7.6415    2.0802 H       1  LIG1        0.1073
     19 C           0.3672    8.7272    1.1292 C.1     1  LIG1       -0.0646
     20 C           0.5210    9.8422    1.5575 C.1     1  LIG1       -0.1138
     21 H           0.6340   10.8364    1.9248 H       1  LIG1        0.1232
     22 C          -2.2349    7.2807   -0.1295 C.ar    1  LIG1        0.1863
     23 C          -2.7287    8.4581   -0.6172 C.ar    1  LIG1        0.0699
     24 C          -4.1524    8.2733   -0.7325 C.ar    1  LIG1        0.0874
     25 C          -4.4072    6.9962   -0.2986 C.ar    1  LIG1        0.1882
     26 O          -3.2569    6.3949    0.0701 O.2     1  LIG1       -0.4461
     27 S          -1.8398    9.8979   -1.0887 S.3     1  LIG1       -0.1377
     28 H          -2.8021   10.3359   -1.9209 H       1  LIG1        0.1073
     29 C          -5.0636    9.1993   -1.2976 C.1     1  LIG1       -0.0646
     30 C          -5.8048   10.0017   -1.8047 C.1     1  LIG1       -0.1138
     31 H          -6.4821   10.6973   -2.2446 H       1  LIG1        0.1232
     32 C          -5.6142    6.2216   -0.1634 C.ar    1  LIG1        0.1852
     33 C          -6.9056    6.5179    0.1725 C.ar    1  LIG1        0.0691
     34 C          -7.6159    5.2615    0.1521 C.ar    1  LIG1        0.0762
     35 C          -6.6919    4.3181   -0.1808 C.ar    1  LIG1        0.1092
     36 O          -5.4891    4.8753   -0.3813 O.2     1  LIG1       -0.4574
     37 H          -6.7600    3.2492   -0.3051 H       1  LIG1        0.1042
     38 S          -7.5925    8.0795    0.5914 S.3     1  LIG1       -0.1377
     39 H          -8.6291    7.5512    1.2666 H       1  LIG1        0.1073
     40 C          -8.9876    5.0615    0.4571 C.1     1  LIG1       -0.0654
     41 C         -10.1520    4.9229    0.7292 C.1     1  LIG1       -0.1138
     42 H         -11.1833    4.7867    0.9614 H       1  LIG1        0.1232
@<TRIPOS>BOND
     1    31    30    1
     2    28    27    1
     3    30    29    3
     4     8     7    1
     5    11    10    1
     6    29    24    1
     7    27    23    1
     8    10     9    3
     9    24    23   ar
    10    24    25   ar
    11     9     3    1
    12    23    22   ar
    13     7     2    1
    14    36    35   ar
    15    36    32   ar
    16    37    35    1
    17    25    32    1
    18    25    26   ar
    19     3     2   ar
    20     3     4   ar
    21    35    34   ar
    22     2     1   ar
    23    32    33   ar
    24    22    26   ar
    25    22    15    1
    26    16    15   ar
    27    16    12   ar
    28     4    12    1
    29     4     5   ar
    30    34    33   ar
    31    34    40    1
    32    15    14   ar
    33    33    38    1
    34     1     6    1
    35     1     5   ar
    36    12    13   ar
    37    40    41    3
    38    38    39    1
    39    14    13   ar
    40    14    19    1
    41    41    42    1
    42    13    17    1
    43    19    20    3
    44    17    18    1
    45    20    21    1
