@<TRIPOS>MOLECULE
mol_data/opt/cam/geoms/mol2/12ge12ge12ge12ge.out
 42 45 0 0 0
SMALL
GASTEIGER

@<TRIPOS>ATOM
      1 C           0.7110    1.6917    0.1716 C.ar    1  LIG1        0.1071
      2 C           2.0031    1.8504   -0.2016 C.ar    1  LIG1        0.0587
      3 C           2.2328    3.2750   -0.2465 C.ar    1  LIG1        0.0866
      4 C           1.0454    3.8531    0.1231 C.ar    1  LIG1        0.1872
      5 O           0.1218    2.8914    0.3827 O.2     1  LIG1       -0.4574
      6 H           0.0977    0.8188    0.3262 H       1  LIG1        0.1041
      7 S           3.1633    0.5524   -0.4755 S.3     1  LIG1       -0.1384
      8 H           3.5228    0.9139   -1.7200 H       1  LIG1        0.1072
      9 C           3.4170    3.9250   -0.6746 C.1     1  LIG1       -0.0647
     10 C           4.4244    4.4583   -1.0613 C.1     1  LIG1       -0.1138
     11 H           5.3112    4.9462   -1.3950 H       1  LIG1        0.1232
     12 C           0.6169    5.2196    0.2839 C.ar    1  LIG1        0.1863
     13 C           1.2202    6.3560    0.7422 C.ar    1  LIG1        0.0699
     14 C           0.2192    7.3901    0.6807 C.ar    1  LIG1        0.0874
     15 C          -0.9129    6.7941    0.1831 C.ar    1  LIG1        0.1882
     16 O          -0.6783    5.4876   -0.0627 O.2     1  LIG1       -0.4461
     17 S           2.8575    6.5436    1.3516 S.3     1  LIG1       -0.1377
     18 H           2.5580    7.6188    2.1029 H       1  LIG1        0.1073
     19 C           0.3666    8.7146    1.1610 C.1     1  LIG1       -0.0646
     20 C           0.5202    9.8252    1.6008 C.1     1  LIG1       -0.1138
     21 H           0.6330   10.8155    1.9785 H       1  LIG1        0.1232
     22 C          -2.2345    7.2816   -0.1147 C.ar    1  LIG1        0.1863
     23 C          -2.7277    8.4640   -0.5908 C.ar    1  LIG1        0.0699
     24 C          -4.1514    8.2807   -0.7092 C.ar    1  LIG1        0.0874
     25 C          -4.4068    6.9993   -0.2886 C.ar    1  LIG1        0.1882
     26 O          -3.2569    6.3940    0.0749 O.2     1  LIG1       -0.4461
     27 S          -1.8381    9.9083   -1.0468 S.3     1  LIG1       -0.1377
     28 H          -2.7998   10.3551   -1.8751 H       1  LIG1        0.1073
     29 C          -5.0620    9.2125   -1.2657 C.1     1  LIG1       -0.0646
     30 C          -5.8026   10.0201   -1.7651 C.1     1  LIG1       -0.1138
     31 H          -6.4795   10.7203   -2.1985 H       1  LIG1        0.1232
     32 C          -5.6141    6.2236   -0.1623 C.ar    1  LIG1        0.1852
     33 C          -6.9055    6.5168    0.1760 C.ar    1  LIG1        0.0691
     34 C          -7.6162    5.2609    0.1422 C.ar    1  LIG1        0.0762
     35 C          -6.6924    4.3208   -0.2002 C.ar    1  LIG1        0.1092
     36 O          -5.4892    4.8796   -0.3941 O.2     1  LIG1       -0.4574
     37 H          -6.7607    3.2532   -0.3356 H       1  LIG1        0.1042
     38 S          -7.5922    8.0742    0.6108 S.3     1  LIG1       -0.1377
     39 H          -8.6294    7.5392    1.2799 H       1  LIG1        0.1073
     40 C          -8.9881    5.0582    0.4444 C.1     1  LIG1       -0.0654
     41 C         -10.1527    4.9170    0.7145 C.1     1  LIG1       -0.1138
     42 H         -11.1841    4.7786    0.9449 H       1  LIG1        0.1232
@<TRIPOS>BOND
     1    31    30    1
     2    28    27    1
     3    30    29    3
     4     8     7    1
     5    11    10    1
     6    29    24    1
     7    10     9    3
     8    27    23    1
     9    24    23   ar
    10    24    25   ar
    11     9     3    1
    12    23    22   ar
    13     7     2    1
    14    36    35   ar
    15    36    32   ar
    16    37    35    1
    17    25    32    1
    18    25    26   ar
    19     3     2   ar
    20     3     4   ar
    21     2     1   ar
    22    35    34   ar
    23    32    33   ar
    24    22    26   ar
    25    22    15    1
    26    16    15   ar
    27    16    12   ar
    28     4    12    1
    29     4     5   ar
    30    34    33   ar
    31    34    40    1
    32     1     6    1
    33     1     5   ar
    34    33    38    1
    35    15    14   ar
    36    12    13   ar
    37    40    41    3
    38    38    39    1
    39    14    13   ar
    40    14    19    1
    41    41    42    1
    42    13    17    1
    43    19    20    3
    44    17    18    1
    45    20    21    1
