@<TRIPOS>MOLECULE
mol_data/opt/cam/geoms/mol2/12ge12ge12ge-12ge.out
 42 45 0 0 0
SMALL
GASTEIGER

@<TRIPOS>ATOM
      1 C           0.7829    2.1759    1.9257 C.ar    1  LIG1        0.1071
      2 C           1.8654    1.9749    1.1371 C.ar    1  LIG1        0.0587
      3 C           2.0327    3.1885    0.3736 C.ar    1  LIG1        0.0866
      4 C           1.0302    4.0278    0.7875 C.ar    1  LIG1        0.1872
      5 O           0.2741    3.4149    1.7353 O.2     1  LIG1       -0.4574
      6 H           0.2797    1.5530    2.6475 H       1  LIG1        0.1041
      7 S           2.8908    0.5416    1.1389 S.3     1  LIG1       -0.1384
      8 H           2.8041    0.2783   -0.1770 H       1  LIG1        0.1072
      9 C           2.9836    3.4137   -0.6528 C.1     1  LIG1       -0.0647
     10 C           3.7854    3.5768   -1.5355 C.1     1  LIG1       -0.1138
     11 H           4.4934    3.7399   -2.3152 H       1  LIG1        0.1232
     12 C           0.6496    5.3708    0.4280 C.ar    1  LIG1        0.1863
     13 C           1.3449    6.4988    0.0969 C.ar    1  LIG1        0.0699
     14 C           0.3568    7.5175   -0.1486 C.ar    1  LIG1        0.0874
     15 C          -0.8609    6.9306    0.0884 C.ar    1  LIG1        0.1882
     16 O          -0.6918    5.6327    0.4207 O.2     1  LIG1       -0.4461
     17 S           3.0868    6.7066   -0.0093 S.3     1  LIG1       -0.1377
     18 H           3.0433    8.0307    0.2231 H       1  LIG1        0.1073
     19 C           0.6176    8.8390   -0.5877 C.1     1  LIG1       -0.0646
     20 C           0.8737    9.9521   -0.9687 C.1     1  LIG1       -0.1138
     21 H           1.0765   10.9402   -1.3131 H       1  LIG1        0.1232
     22 C          -2.2165    7.4171    0.0511 C.ar    1  LIG1        0.1863
     23 C          -2.8126    8.6030    0.3748 C.ar    1  LIG1        0.0699
     24 C          -4.2179    8.4255    0.1138 C.ar    1  LIG1        0.0874
     25 C          -4.3641    7.1306   -0.3162 C.ar    1  LIG1        0.1882
     26 O          -3.1607    6.5222   -0.3695 O.2     1  LIG1       -0.4461
     27 S          -2.0622   10.0632    1.0014 S.3     1  LIG1       -0.1377
     28 H          -3.1922   10.5166    1.5727 H       1  LIG1        0.1073
     29 C          -5.2189    9.4196    0.2442 C.1     1  LIG1       -0.0646
     30 C          -6.0431   10.2899    0.3587 C.1     1  LIG1       -0.1138
     31 H          -6.7887   11.0466    0.4456 H       1  LIG1        0.1232
     32 C          -5.5063    6.3400   -0.7010 C.ar    1  LIG1        0.1852
     33 C          -6.7993    6.2572   -0.2671 C.ar    1  LIG1        0.0691
     34 C          -7.4187    5.2281   -1.0676 C.ar    1  LIG1        0.0762
     35 C          -6.4452    4.7724   -1.9037 C.ar    1  LIG1        0.1092
     36 O          -5.2949    5.4321   -1.7042 O.2     1  LIG1       -0.4574
     37 H          -6.4420    4.0072   -2.6634 H       1  LIG1        0.1042
     38 S          -7.5763    7.1639    1.0221 S.3     1  LIG1       -0.1377
     39 H          -8.5269    6.2363    1.2352 H       1  LIG1        0.1073
     40 C          -8.7579    4.7692   -0.9657 C.1     1  LIG1       -0.0654
     41 C          -9.8963    4.3952   -0.8501 C.1     1  LIG1       -0.1138
     42 H         -10.9041    4.0593   -0.7628 H       1  LIG1        0.1232
@<TRIPOS>BOND
     1    37    35    1
     2    11    10    1
     3    35    36   ar
     4    35    34   ar
     5    36    32   ar
     6    10     9    3
     7    21    20    1
     8    34    40    1
     9    34    33   ar
    10    20    19    3
    11    40    41    3
    12    41    42    1
    13    32    25    1
    14    32    33   ar
    15     9     3    1
    16    19    14    1
    17    26    25   ar
    18    26    22   ar
    19    25    24   ar
    20    33    38    1
    21     8     7    1
    22    14    15   ar
    23    14    13   ar
    24    17    13    1
    25    17    18    1
    26    22    15    1
    27    22    23   ar
    28    15    16   ar
    29    13    12   ar
    30    24    29    1
    31    24    23   ar
    32    29    30    3
    33    30    31    1
    34     3     4   ar
    35     3     2   ar
    36    23    27    1
    37    16    12   ar
    38    12     4    1
    39     4     5   ar
    40    27    28    1
    41    38    39    1
    42     2     7    1
    43     2     1   ar
    44     5     1   ar
    45     1     6    1
