@<TRIPOS>MOLECULE
mol_data/opt/cam/geoms/mol2/12ge12ge12ge-12ge-.out
 42 45 0 0 0
SMALL
GASTEIGER

@<TRIPOS>ATOM
      1 C           0.7786    2.1838    1.9449 C.ar    1  LIG1        0.1071
      2 C           1.8635    1.9805    1.1602 C.ar    1  LIG1        0.0587
      3 C           2.0324    3.1915    0.3929 C.ar    1  LIG1        0.0866
      4 C           1.0285    4.0318    0.8010 C.ar    1  LIG1        0.1872
      5 O           0.2698    3.4219    1.7487 O.2     1  LIG1       -0.4574
      6 H           0.2734    1.5633    2.6674 H       1  LIG1        0.1041
      7 S           2.8896    0.5478    1.1700 S.3     1  LIG1       -0.1384
      8 H           2.8074    0.2801   -0.1453 H       1  LIG1        0.1072
      9 C           2.9860    3.4134   -0.6317 C.1     1  LIG1       -0.0647
     10 C           3.7901    3.5736   -1.5129 C.1     1  LIG1       -0.1138
     11 H           4.5002    3.7341   -2.2912 H       1  LIG1        0.1232
     12 C           0.6485    5.3734    0.4357 C.ar    1  LIG1        0.1863
     13 C           1.3443    6.5005    0.1028 C.ar    1  LIG1        0.0699
     14 C           0.3565    7.5180   -0.1489 C.ar    1  LIG1        0.0874
     15 C          -0.8616    6.9315    0.0867 C.ar    1  LIG1        0.1882
     16 O          -0.6931    5.6349    0.4239 O.2     1  LIG1       -0.4461
     17 S           3.0865    6.7084    0.0007 S.3     1  LIG1       -0.1377
     18 H           3.0419    8.0333    0.2282 H       1  LIG1        0.1073
     19 C           0.6181    8.8381   -0.5918 C.1     1  LIG1       -0.0646
     20 C           0.8749    9.9501   -0.9757 C.1     1  LIG1       -0.1138
     21 H           1.0783   10.9371   -1.3228 H       1  LIG1        0.1232
     22 C          -2.2173    7.4175    0.0439 C.ar    1  LIG1        0.1863
     23 C          -2.8146    8.6044    0.3619 C.ar    1  LIG1        0.0699
     24 C          -4.2191    8.4254    0.0977 C.ar    1  LIG1        0.0874
     25 C          -4.3638    7.1290   -0.3283 C.ar    1  LIG1        0.1882
     26 O          -3.1600    6.5209   -0.3763 O.2     1  LIG1       -0.4461
     27 S          -2.0663   10.0669    0.9854 S.3     1  LIG1       -0.1377
     28 H          -3.1981   10.5220    1.5520 H       1  LIG1        0.1073
     29 C          -5.2208    9.4196    0.2219 C.1     1  LIG1       -0.0646
     30 C          -6.0456   10.2901    0.3313 C.1     1  LIG1       -0.1138
     31 H          -6.7916   11.0469    0.4136 H       1  LIG1        0.1232
     32 C          -5.5046    6.3367   -0.7134 C.ar    1  LIG1        0.1852
     33 C          -6.7988    6.2549   -0.2828 C.ar    1  LIG1        0.0691
     34 C          -7.4155    5.2227   -1.0813 C.ar    1  LIG1        0.0762
     35 C          -6.4395    4.7644   -1.9131 C.ar    1  LIG1        0.1092
     36 O          -5.2901    5.4253   -1.7128 O.2     1  LIG1       -0.4574
     37 H          -6.4338    3.9965   -2.6700 H       1  LIG1        0.1042
     38 S          -7.5797    7.1659    1.0009 S.3     1  LIG1       -0.1377
     39 H          -8.5308    6.2388    1.2144 H       1  LIG1        0.1073
     40 C          -8.7548    4.7634   -0.9814 C.1     1  LIG1       -0.0654
     41 C          -9.8933    4.3894   -0.8676 C.1     1  LIG1       -0.1138
     42 H         -10.9012    4.0533   -0.7819 H       1  LIG1        0.1232
@<TRIPOS>BOND
     1    37    35    1
     2    11    10    1
     3    35    36   ar
     4    35    34   ar
     5    36    32   ar
     6    10     9    3
     7    21    20    1
     8    34    40    1
     9    34    33   ar
    10    40    41    3
    11    20    19    3
    12    41    42    1
    13    32    25    1
    14    32    33   ar
    15     9     3    1
    16    19    14    1
    17    26    25   ar
    18    26    22   ar
    19    25    24   ar
    20    33    38    1
    21    14    15   ar
    22    14    13   ar
    23     8     7    1
    24    17    13    1
    25    17    18    1
    26    22    15    1
    27    22    23   ar
    28    15    16   ar
    29    24    29    1
    30    24    23   ar
    31    13    12   ar
    32    29    30    3
    33    30    31    1
    34    23    27    1
    35     3     4   ar
    36     3     2   ar
    37    16    12   ar
    38    12     4    1
    39     4     5   ar
    40    27    28    1
    41    38    39    1
    42     2     7    1
    43     2     1   ar
    44     5     1   ar
    45     1     6    1
