@<TRIPOS>MOLECULE
mol_data/opt/cam/geoms/mol2/12ge12ge12ge-.out
 32 34 0 0 0
SMALL
GASTEIGER

@<TRIPOS>ATOM
      1 C           0.4367    1.9089    1.1126 C.ar    1  LIG1        0.1071
      2 C           1.6737    1.8432    0.5651 C.ar    1  LIG1        0.0587
      3 C           1.9761    3.1772    0.1034 C.ar    1  LIG1        0.0866
      4 C           0.8846    3.9394    0.4322 C.ar    1  LIG1        0.1872
      5 O          -0.0490    3.1701    1.0508 O.2     1  LIG1       -0.4574
      6 H          -0.1991    1.1685    1.5705 H       1  LIG1        0.1041
      7 S           2.7100    0.4183    0.5280 S.3     1  LIG1       -0.1384
      8 H           2.9224    0.4054   -0.7999 H       1  LIG1        0.1072
      9 C           3.1269    3.5778   -0.6202 C.1     1  LIG1       -0.0647
     10 C           4.1017    3.8930   -1.2519 C.1     1  LIG1       -0.1138
     11 H           4.9621    4.1897   -1.8064 H       1  LIG1        0.1232
     12 C           0.5602    5.3332    0.2596 C.ar    1  LIG1        0.1863
     13 C           1.2822    6.4909    0.3167 C.ar    1  LIG1        0.0699
     14 C           0.3482    7.5558    0.0538 C.ar    1  LIG1        0.0874
     15 C          -0.8754    6.9567   -0.1076 C.ar    1  LIG1        0.1882
     16 O          -0.7522    5.6163   -0.0002 O.2     1  LIG1       -0.4461
     17 S           2.9971    6.6836    0.6489 S.3     1  LIG1       -0.1377
     18 H           2.8679    7.9394    1.1129 H       1  LIG1        0.1073
     19 C           0.6647    8.9329   -0.0505 C.1     1  LIG1       -0.0646
     20 C           0.9683   10.0946   -0.1400 C.1     1  LIG1       -0.1138
     21 H           1.2156   11.1274   -0.2308 H       1  LIG1        0.1232
     22 C          -2.2005    7.4669   -0.3561 C.ar    1  LIG1        0.1852
     23 C          -2.8877    8.5753    0.0510 C.ar    1  LIG1        0.0691
     24 C          -4.1983    8.4678   -0.5444 C.ar    1  LIG1        0.0762
     25 C          -4.1920    7.3011   -1.2466 C.ar    1  LIG1        0.1092
     26 O          -3.0011    6.6917   -1.1524 O.2     1  LIG1       -0.4574
     27 H          -4.9463    6.8070   -1.8379 H       1  LIG1        0.1042
     28 S          -2.3422    9.8661    1.1114 S.3     1  LIG1       -0.1377
     29 H          -3.5855   10.2172    1.4863 H       1  LIG1        0.1073
     30 C          -5.2753    9.3791   -0.3886 C.1     1  LIG1       -0.0654
     31 C          -6.1730   10.1655   -0.2310 C.1     1  LIG1       -0.1138
     32 H          -6.9739   10.8576   -0.1052 H       1  LIG1        0.1232
@<TRIPOS>BOND
     1    27    25    1
     2    11    10    1
     3    10     9    3
     4    25    26   ar
     5    25    24   ar
     6    26    22   ar
     7     8     7    1
     8     9     3    1
     9    24    30    1
    10    24    23   ar
    11    30    31    3
    12    22    15    1
    13    22    23   ar
    14    31    32    1
    15    21    20    1
    16    20    19    3
    17    15    16   ar
    18    15    14   ar
    19    19    14    1
    20    16    12   ar
    21    23    28    1
    22    14    13   ar
    23     3     4   ar
    24     3     2   ar
    25    12    13   ar
    26    12     4    1
    27    13    17    1
    28     4     5   ar
    29     7     2    1
    30     2     1   ar
    31    17    18    1
    32     5     1   ar
    33    28    29    1
    34     1     6    1
