@<TRIPOS>MOLECULE
mol_data/opt/cam/geoms/mol2/12ge12ge-12ge-12ge.out
 42 45 0 0 0
SMALL
GASTEIGER

@<TRIPOS>ATOM
      1 C           0.6029    1.6965   -0.2086 C.ar    1  LIG1        0.1071
      2 C           1.8479    1.8081    0.3124 C.ar    1  LIG1        0.0587
      3 C           2.1076    3.2238    0.4245 C.ar    1  LIG1        0.0866
      4 C           0.9850    3.8453   -0.0599 C.ar    1  LIG1        0.1872
      5 O           0.0727    2.9180   -0.4502 O.2     1  LIG1       -0.4574
      6 H          -0.0115    0.8462   -0.4566 H       1  LIG1        0.1041
      7 S           2.9361    0.4712    0.6784 S.3     1  LIG1       -0.1384
      8 H           3.1843    0.8090    1.9562 H       1  LIG1        0.1072
      9 C           3.2513    3.8273    1.0037 C.1     1  LIG1       -0.0647
     10 C           4.2215    4.3198    1.5187 C.1     1  LIG1       -0.1138
     11 H           5.0765    4.7721    1.9659 H       1  LIG1        0.1232
     12 C           0.6122    5.2274   -0.2269 C.ar    1  LIG1        0.1863
     13 C           1.2927    6.3587   -0.5774 C.ar    1  LIG1        0.0699
     14 C           0.3172    7.4183   -0.5991 C.ar    1  LIG1        0.0874
     15 C          -0.8794    6.8411   -0.2539 C.ar    1  LIG1        0.1882
     16 O          -0.7068    5.5221   -0.0231 O.2     1  LIG1       -0.4461
     17 S           2.9937    6.5167   -0.9890 S.3     1  LIG1       -0.1377
     18 H           2.8098    7.6203   -1.7363 H       1  LIG1        0.1073
     19 C           0.5526    8.7511   -1.0179 C.1     1  LIG1       -0.0646
     20 C           0.7845    9.8686   -1.4023 C.1     1  LIG1       -0.1138
     21 H           0.9658   10.8654   -1.7332 H       1  LIG1        0.1232
     22 C          -2.2143    7.3571   -0.0935 C.ar    1  LIG1        0.1863
     23 C          -2.7304    8.5375    0.3620 C.ar    1  LIG1        0.0699
     24 C          -4.1619    8.4041    0.2763 C.ar    1  LIG1        0.0874
     25 C          -4.3984    7.1367   -0.1938 C.ar    1  LIG1        0.1882
     26 O          -3.2294    6.5058   -0.4314 O.2     1  LIG1       -0.4461
     27 S          -1.8649    9.9464    0.9557 S.3     1  LIG1       -0.1377
     28 H          -2.9047   10.4036    1.6760 H       1  LIG1        0.1073
     29 C          -5.1091    9.4120    0.5831 C.1     1  LIG1       -0.0646
     30 C          -5.8860   10.2937    0.8456 C.1     1  LIG1       -0.1138
     31 H          -6.5921   11.0614    1.0652 H       1  LIG1        0.1232
     32 C          -5.6021    6.3924   -0.4665 C.ar    1  LIG1        0.1852
     33 C          -6.8320    6.3168    0.1241 C.ar    1  LIG1        0.0691
     34 C          -7.5764    5.3435   -0.6388 C.ar    1  LIG1        0.0762
     35 C          -6.7295    4.9088   -1.6126 C.ar    1  LIG1        0.1092
     36 O          -5.5450    5.5318   -1.5303 O.2     1  LIG1       -0.4574
     37 H          -6.8440    4.1831   -2.4018 H       1  LIG1        0.1042
     38 S          -7.4148    7.1740    1.5430 S.3     1  LIG1       -0.1377
     39 H          -8.3602    6.2602    1.8276 H       1  LIG1        0.1073
     40 C          -8.9047    4.9099   -0.3891 C.1     1  LIG1       -0.0654
     41 C         -10.0295    4.5558   -0.1473 C.1     1  LIG1       -0.1138
     42 H         -11.0274    4.2383    0.0515 H       1  LIG1        0.1232
@<TRIPOS>BOND
     1    37    35    1
     2    18    17    1
     3    21    20    1
     4    35    36   ar
     5    35    34   ar
     6    36    32   ar
     7    20    19    3
     8    19    14    1
     9    17    13    1
    10    34    40    1
    11    34    33   ar
    12    14    13   ar
    13    14    15   ar
    14    13    12   ar
    15    32    25    1
    16    32    33   ar
    17     6     1    1
    18     5     1   ar
    19     5     4   ar
    20    26    25   ar
    21    26    22   ar
    22    40    41    3
    23    15    22    1
    24    15    16   ar
    25    12     4    1
    26    12    16   ar
    27     1     2   ar
    28    25    24   ar
    29    41    42    1
    30    22    23   ar
    31     4     3   ar
    32    33    38    1
    33    24    23   ar
    34    24    29    1
    35     2     3   ar
    36     2     7    1
    37    23    27    1
    38     3     9    1
    39    29    30    3
    40     7     8    1
    41    30    31    1
    42    27    28    1
    43     9    10    3
    44    10    11    1
    45    38    39    1
