@<TRIPOS>MOLECULE
mol_data/opt/cam/geoms/mol2/12ge12ge-12ge-12ge-.out
 42 45 0 0 0
SMALL
GASTEIGER

@<TRIPOS>ATOM
      1 C           0.7084    1.6867   -0.1146 C.ar    1  LIG1        0.1071
      2 C           1.9944    1.8487    0.2774 C.ar    1  LIG1        0.0587
      3 C           2.2252    3.2735    0.3080 C.ar    1  LIG1        0.0866
      4 C           1.0446    3.8482   -0.0881 C.ar    1  LIG1        0.1872
      5 O           0.1241    2.8843   -0.3504 O.2     1  LIG1       -0.4574
      6 H           0.0966    0.8125   -0.2681 H       1  LIG1        0.1041
      7 S           3.1484    0.5532    0.5867 S.3     1  LIG1       -0.1384
      8 H           3.4882    0.9302    1.8322 H       1  LIG1        0.1072
      9 C           3.4031    3.9277    0.7470 C.1     1  LIG1       -0.0647
     10 C           4.4048    4.4649    1.1433 C.1     1  LIG1       -0.1138
     11 H           5.2866    4.9561    1.4851 H       1  LIG1        0.1232
     12 C           0.6205    5.2130   -0.2731 C.ar    1  LIG1        0.1863
     13 C           1.2325    6.3429   -0.7358 C.ar    1  LIG1        0.0699
     14 C           0.2320    7.3787   -0.7037 C.ar    1  LIG1        0.0874
     15 C          -0.9088    6.7902   -0.2171 C.ar    1  LIG1        0.1882
     16 O          -0.6798    5.4867    0.0490 O.2     1  LIG1       -0.4461
     17 S           2.8798    6.5210   -1.3209 S.3     1  LIG1       -0.1377
     18 H           2.5938    7.5870   -2.0904 H       1  LIG1        0.1073
     19 C           0.3889    8.6969   -1.1983 C.1     1  LIG1       -0.0646
     20 C           0.5510    9.8016   -1.6496 C.1     1  LIG1       -0.1138
     21 H           0.6711   10.7869   -2.0379 H       1  LIG1        0.1232
     22 C          -2.2345    7.2828    0.0530 C.ar    1  LIG1        0.1863
     23 C          -2.7339    8.4717    0.5059 C.ar    1  LIG1        0.0699
     24 C          -4.1596    8.2912    0.6035 C.ar    1  LIG1        0.0874
     25 C          -4.4096    7.0048    0.1952 C.ar    1  LIG1        0.1882
     26 O          -3.2546    6.3938   -0.1418 O.2     1  LIG1       -0.4461
     27 S          -1.8502    9.9208    0.9579 S.3     1  LIG1       -0.1377
     28 H          -2.8246   10.3790    1.7647 H       1  LIG1        0.1073
     29 C          -5.0780    9.2309    1.1331 C.1     1  LIG1       -0.0646
     30 C          -5.8257   10.0456    1.6101 C.1     1  LIG1       -0.1138
     31 H          -6.5087   10.7518    2.0235 H       1  LIG1        0.1232
     32 C          -5.6156    6.2287    0.0593 C.ar    1  LIG1        0.1852
     33 C          -6.9010    6.5188   -0.3036 C.ar    1  LIG1        0.0691
     34 C          -7.6136    5.2642   -0.2653 C.ar    1  LIG1        0.0762
     35 C          -6.6966    4.3276    0.1040 C.ar    1  LIG1        0.1092
     36 O          -5.4961    4.8877    0.3102 O.2     1  LIG1       -0.4574
     37 H          -6.7683    3.2619    0.2519 H       1  LIG1        0.1042
     38 S          -7.5788    8.0712   -0.7694 S.3     1  LIG1       -0.1377
     39 H          -8.6055    7.5287   -1.4484 H       1  LIG1        0.1073
     40 C          -8.9807    5.0589   -0.5871 C.1     1  LIG1       -0.0654
     41 C         -10.1409    4.9154   -0.8742 C.1     1  LIG1       -0.1138
     42 H         -11.1687    4.7751   -1.1195 H       1  LIG1        0.1232
@<TRIPOS>BOND
     1    18    17    1
     2    21    20    1
     3    20    19    3
     4    39    38    1
     5    17    13    1
     6    19    14    1
     7    42    41    1
     8    41    40    3
     9    38    33    1
    10    13    14   ar
    11    13    12   ar
    12    14    15   ar
    13    40    34    1
    14     5     1   ar
    15     5     4   ar
    16    33    34   ar
    17    33    32   ar
    18    12     4    1
    19    12    16   ar
    20     6     1    1
    21    34    35   ar
    22    15    16   ar
    23    15    22    1
    24    26    22   ar
    25    26    25   ar
    26     1     2   ar
    27     4     3   ar
    28    22    23   ar
    29    32    25    1
    30    32    36   ar
    31    35    37    1
    32    35    36   ar
    33    25    24   ar
    34     2     3   ar
    35     2     7    1
    36     3     9    1
    37    23    24   ar
    38    23    27    1
    39     7     8    1
    40    24    29    1
    41     9    10    3
    42    27    28    1
    43    29    30    3
    44    10    11    1
    45    30    31    1
