@<TRIPOS>MOLECULE
mol_data/opt/cam/geoms/mol2/12ge12ge-12ge.out
 32 34 0 0 0
SMALL
GASTEIGER

@<TRIPOS>ATOM
      1 C           0.4480    1.9092    1.1193 C.ar    1  LIG1        0.1071
      2 C           1.6800    1.8438    0.5608 C.ar    1  LIG1        0.0587
      3 C           1.9778    3.1779    0.0962 C.ar    1  LIG1        0.0866
      4 C           0.8892    3.9398    0.4347 C.ar    1  LIG1        0.1872
      5 O          -0.0386    3.1703    1.0618 O.2     1  LIG1       -0.4574
      6 H          -0.1835    1.1687    1.5829 H       1  LIG1        0.1041
      7 S           2.7165    0.4193    0.5146 S.3     1  LIG1       -0.1384
      8 H           2.9175    0.4067   -0.8151 H       1  LIG1        0.1072
      9 C           3.1220    3.5787   -0.6377 C.1     1  LIG1       -0.0647
     10 C           4.0910    3.8941   -1.2783 C.1     1  LIG1       -0.1138
     11 H           4.9462    4.1909   -1.8406 H       1  LIG1        0.1232
     12 C           0.5628    5.3335    0.2649 C.ar    1  LIG1        0.1863
     13 C           1.2849    6.4914    0.3154 C.ar    1  LIG1        0.0699
     14 C           0.3482    7.5560    0.0612 C.ar    1  LIG1        0.0874
     15 C          -0.8766    6.9565   -0.0892 C.ar    1  LIG1        0.1882
     16 O          -0.7519    5.6162    0.0171 O.2     1  LIG1       -0.4461
     17 S           3.0028    6.6847    0.6318 S.3     1  LIG1       -0.1377
     18 H           2.8775    7.9405    1.0970 H       1  LIG1        0.1073
     19 C           0.6633    8.9332   -0.0460 C.1     1  LIG1       -0.0646
     20 C           0.9657   10.0951   -0.1382 C.1     1  LIG1       -0.1138
     21 H           1.2120   11.1279   -0.2311 H       1  LIG1        0.1232
     22 C          -2.2040    7.4663   -0.3257 C.ar    1  LIG1        0.1852
     23 C          -2.8879    8.5744    0.0877 C.ar    1  LIG1        0.0691
     24 C          -4.2038    8.4666   -0.4960 C.ar    1  LIG1        0.0762
     25 C          -4.2035    7.2999   -1.1981 C.ar    1  LIG1        0.1092
     26 O          -3.0115    6.6908   -1.1147 O.2     1  LIG1       -0.4574
     27 H          -4.9629    6.8055   -1.7825 H       1  LIG1        0.1042
     28 S          -2.3332    9.8654    1.1430 S.3     1  LIG1       -0.1377
     29 H          -3.5731   10.2162    1.5292 H       1  LIG1        0.1073
     30 C          -5.2795    9.3777   -0.3306 C.1     1  LIG1       -0.0654
     31 C          -6.1758   10.1640   -0.1650 C.1     1  LIG1       -0.1138
     32 H          -6.9757   10.8559   -0.0321 H       1  LIG1        0.1232
@<TRIPOS>BOND
     1    11    10    1
     2    27    25    1
     3    10     9    3
     4    25    26   ar
     5    25    24   ar
     6    26    22   ar
     7     8     7    1
     8     9     3    1
     9    24    30    1
    10    24    23   ar
    11    30    31    3
    12    22    15    1
    13    22    23   ar
    14    21    20    1
    15    31    32    1
    16    20    19    3
    17    15    16   ar
    18    15    14   ar
    19    19    14    1
    20    16    12   ar
    21    14    13   ar
    22    23    28    1
    23     3     4   ar
    24     3     2   ar
    25    12    13   ar
    26    12     4    1
    27    13    17    1
    28     4     5   ar
    29     7     2    1
    30     2     1   ar
    31    17    18    1
    32     5     1   ar
    33     1     6    1
    34    28    29    1
