@<TRIPOS>MOLECULE
mol_data/opt/cam/geoms/mol2/12ge.out
 12 12 0 0 0
SMALL
GASTEIGER

@<TRIPOS>ATOM
      1 C           0.1035    1.9160   -0.0001 C.ar    1  LIG1        0.1060
      2 C           1.4575    1.8887    0.0000 C.ar    1  LIG1        0.0580
      3 C           1.8805    3.2713    0.0000 C.ar    1  LIG1        0.0755
      4 C           0.7329    4.0050   -0.0001 C.ar    1  LIG1        0.1081
      5 O          -0.3455    3.2028   -0.0001 O.2     1  LIG1       -0.4687
      6 H          -0.6514    1.1473   -0.0001 H       1  LIG1        0.1041
      7 H           0.5514    5.0677   -0.0001 H       1  LIG1        0.1042
      8 S           2.4956    0.4660    0.0001 S.3     1  LIG1       -0.1384
      9 H           3.6449    1.1630    0.0002 H       1  LIG1        0.1072
     10 C           3.2191    3.7433    0.0001 C.1     1  LIG1       -0.0654
     11 C           4.3686    4.1023    0.0001 C.1     1  LIG1       -0.1138
     12 H           5.3798    4.4393   -0.0002 H       1  LIG1        0.1232
@<TRIPOS>BOND
     1    12    11    1
     2     7     4    1
     3     6     1    1
     4     5     4   ar
     5     5     1   ar
     6     4     3   ar
     7     1     2   ar
     8     2     3   ar
     9     2     8    1
    10     3    10    1
    11    10    11    3
    12     8     9    1
