@<TRIPOS>MOLECULE
mol_data/opt/cam/geoms/mol2/12ge12ge-.out
 22 23 0 0 0
SMALL
GASTEIGER

@<TRIPOS>ATOM
      1 C           0.1242    1.8535    0.0009 C.ar    1  LIG1        0.1071
      2 C           1.4750    1.7987    0.0005 C.ar    1  LIG1        0.0587
      3 C           1.9332    3.1696    0.0000 C.ar    1  LIG1        0.0866
      4 C           0.7954    3.9451    0.0001 C.ar    1  LIG1        0.1872
      5 O          -0.2954    3.1457    0.0006 O.2     1  LIG1       -0.4574
      6 H          -0.6480    1.1022    0.0013 H       1  LIG1        0.1041
      7 S           2.4766    0.3513    0.0007 S.3     1  LIG1       -0.1384
      8 H           3.6424    1.0210   -0.0001 H       1  LIG1        0.1072
      9 C           3.3022    3.5330   -0.0008 C.1     1  LIG1       -0.0647
     10 C           4.4914    3.7271   -0.0015 C.1     1  LIG1       -0.1138
     11 H           5.5344    3.9466   -0.0025 H       1  LIG1        0.1232
     12 C           0.4963    5.3597   -0.0002 C.ar    1  LIG1        0.1852
     13 C           1.1999    6.5349    0.0004 C.ar    1  LIG1        0.0691
     14 C           0.2097    7.5873   -0.0005 C.ar    1  LIG1        0.0762
     15 C          -0.9995    6.9648   -0.0016 C.ar    1  LIG1        0.1092
     16 O          -0.8479    5.6354   -0.0015 O.2     1  LIG1       -0.4574
     17 H          -2.0100    7.3410   -0.0025 H       1  LIG1        0.1042
     18 S           2.9346    6.8201    0.0023 S.3     1  LIG1       -0.1377
     19 H           2.7978    8.1587    0.0030 H       1  LIG1        0.1073
     20 C           0.4622    8.9838   -0.0002 C.1     1  LIG1       -0.0654
     21 C           0.7101   10.1621    0.0001 C.1     1  LIG1       -0.1138
     22 H           0.9128   11.2086    0.0000 H       1  LIG1        0.1232
@<TRIPOS>BOND
     1    11    10    1
     2    17    15    1
     3    15    16   ar
     4    15    14   ar
     5    10     9    3
     6    16    12   ar
     7     9     3    1
     8    14    20    1
     9    14    13   ar
    10    12     4    1
    11    12    13   ar
    12    20    21    3
    13     8     7    1
    14     3     4   ar
    15     3     2   ar
    16    22    21    1
    17     4     5   ar
    18    13    18    1
    19     2     7    1
    20     2     1   ar
    21     5     1   ar
    22     1     6    1
    23    18    19    1
