@<TRIPOS>MOLECULE
mol_data/opt/cam/geoms/mol2/12ge12ge-12ge-.out
 32 34 0 0 0
SMALL
GASTEIGER

@<TRIPOS>ATOM
      1 C           0.5024    1.7811   -0.7190 C.ar    1  LIG1        0.1071
      2 C           1.7057    1.8140   -0.0990 C.ar    1  LIG1        0.0587
      3 C           1.9708    3.2048    0.1835 C.ar    1  LIG1        0.0866
      4 C           0.8942    3.8948   -0.3123 C.ar    1  LIG1        0.1872
      5 O           0.0042    3.0310   -0.8661 O.2     1  LIG1       -0.4574
      6 H          -0.1004    0.9733   -1.1013 H       1  LIG1        0.1041
      7 S           2.7495    0.4261    0.2005 S.3     1  LIG1       -0.1384
      8 H           2.9080    0.6243    1.5211 H       1  LIG1        0.1072
      9 C           3.0743    3.7224    0.9062 C.1     1  LIG1       -0.0647
     10 C           4.0083    4.1397    1.5406 C.1     1  LIG1       -0.1138
     11 H           4.8322    4.5265    2.0949 H       1  LIG1        0.1232
     12 C           0.5492    5.2933   -0.3575 C.ar    1  LIG1        0.1863
     13 C           1.2646    6.4429   -0.5360 C.ar    1  LIG1        0.0699
     14 C           0.3035    7.5161   -0.5172 C.ar    1  LIG1        0.0874
     15 C          -0.9206    6.9272   -0.3230 C.ar    1  LIG1        0.1882
     16 O          -0.7790    5.5887   -0.2200 O.2     1  LIG1       -0.4461
     17 S           2.9929    6.6134   -0.8023 S.3     1  LIG1       -0.1377
     18 H           2.8771    7.7956   -1.4342 H       1  LIG1        0.1073
     19 C           0.5817    8.8817   -0.7723 C.1     1  LIG1       -0.0646
     20 C           0.8511   10.0299   -1.0157 C.1     1  LIG1       -0.1138
     21 H           1.0656   11.0532   -1.2228 H       1  LIG1        0.1232
     22 C          -2.2594    7.4471   -0.2073 C.ar    1  LIG1        0.1852
     23 C          -2.7987    8.5807    0.3329 C.ar    1  LIG1        0.0691
     24 C          -4.2247    8.4703    0.1381 C.ar    1  LIG1        0.0762
     25 C          -4.4223    7.2778   -0.4891 C.ar    1  LIG1        0.1092
     26 O          -3.2560    6.6544   -0.7115 O.2     1  LIG1       -0.4574
     27 H          -5.3152    6.7732   -0.8219 H       1  LIG1        0.1042
     28 S          -1.9704    9.9024    1.1414 S.3     1  LIG1       -0.1377
     29 H          -3.0612   10.3002    1.8209 H       1  LIG1        0.1073
     30 C          -5.2096    9.4033    0.5552 C.1     1  LIG1       -0.0654
     31 C          -6.0223   10.2092    0.9284 C.1     1  LIG1       -0.1138
     32 H          -6.7517   10.9178    1.2477 H       1  LIG1        0.1232
@<TRIPOS>BOND
     1    18    17    1
     2    21    20    1
     3     6     1    1
     4    20    19    3
     5     5     1   ar
     6     5     4   ar
     7    27    25    1
     8    17    13    1
     9    19    14    1
    10     1     2   ar
    11    26    25   ar
    12    26    22   ar
    13    13    14   ar
    14    13    12   ar
    15    14    15   ar
    16    25    24   ar
    17    12     4    1
    18    12    16   ar
    19    15    16   ar
    20    15    22    1
    21     4     3   ar
    22    22    23   ar
    23     2     3   ar
    24     2     7    1
    25    24    23   ar
    26    24    30    1
    27     3     9    1
    28     7     8    1
    29    23    28    1
    30    30    31    3
    31     9    10    3
    32    31    32    1
    33    28    29    1
    34    10    11    1
