@<TRIPOS>MOLECULE
mol_data/opt/cam/geoms/mol2/12ge12ge-12ge12ge-.out
 42 45 0 0 0
SMALL
GASTEIGER

@<TRIPOS>ATOM
      1 C           0.8060    2.1995    1.9802 C.ar    1  LIG1        0.1071
      2 C           1.8795    1.9897    1.1817 C.ar    1  LIG1        0.0587
      3 C           2.0376    3.1945    0.4023 C.ar    1  LIG1        0.0866
      4 C           1.0396    4.0382    0.8179 C.ar    1  LIG1        0.1872
      5 O           0.2945    3.4361    1.7812 O.2     1  LIG1       -0.4574
      6 H           0.3111    1.5850    2.7147 H       1  LIG1        0.1041
      7 S           2.9055    0.5568    1.1884 S.3     1  LIG1       -0.1384
      8 H           2.8046    0.2786   -0.1234 H       1  LIG1        0.1072
      9 C           2.9766    3.4080   -0.6374 C.1     1  LIG1       -0.0647
     10 C           3.7682    3.5611   -1.5311 C.1     1  LIG1       -0.1138
     11 H           4.4672    3.7152   -2.3207 H       1  LIG1        0.1232
     12 C           0.6545    5.3769    0.4472 C.ar    1  LIG1        0.1863
     13 C           1.3457    6.5012    0.0955 C.ar    1  LIG1        0.0699
     14 C           0.3545    7.5168   -0.1506 C.ar    1  LIG1        0.0874
     15 C          -0.8602    6.9324    0.1067 C.ar    1  LIG1        0.1882
     16 O          -0.6870    5.6385    0.4520 O.2     1  LIG1       -0.4461
     17 S           3.0862    6.7080   -0.0327 S.3     1  LIG1       -0.1377
     18 H           3.0451    8.0346    0.1852 H       1  LIG1        0.1073
     19 C           0.6100    8.8332   -0.6078 C.1     1  LIG1       -0.0646
     20 C           0.8616    9.9419   -1.0044 C.1     1  LIG1       -0.1138
     21 H           1.0603   10.9259   -1.3625 H       1  LIG1        0.1232
     22 C          -2.2163    7.4182    0.0791 C.ar    1  LIG1        0.1863
     23 C          -2.8091    8.6077    0.3956 C.ar    1  LIG1        0.0699
     24 C          -4.2172    8.4267    0.1528 C.ar    1  LIG1        0.0874
     25 C          -4.3679    7.1269   -0.2602 C.ar    1  LIG1        0.1882
     26 O          -3.1649    6.5182   -0.3202 O.2     1  LIG1       -0.4461
     27 S          -2.0522   10.0753    0.9964 S.3     1  LIG1       -0.1377
     28 H          -3.1759   10.5353    1.5750 H       1  LIG1        0.1073
     29 C          -5.2170    9.4221    0.2829 C.1     1  LIG1       -0.0646
     30 C          -6.0402   10.2935    0.3966 C.1     1  LIG1       -0.1138
     31 H          -6.7850   11.0510    0.4832 H       1  LIG1        0.1232
     32 C          -5.5141    6.3316   -0.6226 C.ar    1  LIG1        0.1852
     33 C          -6.8020    6.2535   -0.1729 C.ar    1  LIG1        0.0691
     34 C          -7.4300    5.2148   -0.9541 C.ar    1  LIG1        0.0762
     35 C          -6.4660    4.7496   -1.7959 C.ar    1  LIG1        0.1092
     36 O          -5.3139    5.4120   -1.6175 O.2     1  LIG1       -0.4574
     37 H          -6.4712    3.9755   -2.5465 H       1  LIG1        0.1042
     38 S          -7.5644    7.1750    1.1143 S.3     1  LIG1       -0.1377
     39 H          -8.5121    6.2496    1.3493 H       1  LIG1        0.1073
     40 C          -8.7678    4.7566   -0.8312 C.1     1  LIG1       -0.0654
     41 C          -9.9045    4.3836   -0.6980 C.1     1  LIG1       -0.1138
     42 H         -10.9111    4.0484   -0.5950 H       1  LIG1        0.1232
@<TRIPOS>BOND
     1    37    35    1
     2    11    10    1
     3    35    36   ar
     4    35    34   ar
     5    36    32   ar
     6    10     9    3
     7    21    20    1
     8    20    19    3
     9    34    40    1
    10    34    33   ar
    11    40    41    3
    12    41    42    1
    13     9     3    1
    14    32    25    1
    15    32    33   ar
    16    19    14    1
    17    26    25   ar
    18    26    22   ar
    19    25    24   ar
    20    33    38    1
    21    14    13   ar
    22    14    15   ar
    23     8     7    1
    24    17    13    1
    25    17    18    1
    26    22    15    1
    27    22    23   ar
    28    13    12   ar
    29    15    16   ar
    30    24    29    1
    31    24    23   ar
    32    29    30    3
    33    23    27    1
    34    30    31    1
    35     3     4   ar
    36     3     2   ar
    37    12    16   ar
    38    12     4    1
    39     4     5   ar
    40    27    28    1
    41    38    39    1
    42     2     7    1
    43     2     1   ar
    44     5     1   ar
    45     1     6    1
