@<TRIPOS>MOLECULE
mol_data/opt/cam/geoms/mol2/12ge12ge-12ge12ge.out
 42 45 0 0 0
SMALL
GASTEIGER

@<TRIPOS>ATOM
      1 C           0.7205    1.6991    0.2182 C.ar    1  LIG1        0.1071
      2 C           2.0063    1.8542   -0.1775 C.ar    1  LIG1        0.0587
      3 C           2.2332    3.2784   -0.2454 C.ar    1  LIG1        0.0866
      4 C           1.0508    3.8600    0.1347 C.ar    1  LIG1        0.1872
      5 O           0.1329    2.9008    0.4220 O.2     1  LIG1       -0.4574
      6 H           0.1110    0.8276    0.3944 H       1  LIG1        0.1041
      7 S           3.1642    0.5544   -0.4521 S.3     1  LIG1       -0.1384
      8 H           3.5044    0.9005   -1.7063 H       1  LIG1        0.1072
      9 C           3.4095    3.9239   -0.7012 C.1     1  LIG1       -0.0647
     10 C           4.4099    4.4529   -1.1113 C.1     1  LIG1       -0.1138
     11 H           5.2906    4.9372   -1.4656 H       1  LIG1        0.1232
     12 C           0.6227    5.2280    0.2833 C.ar    1  LIG1        0.1863
     13 C           1.2313    6.3717    0.7160 C.ar    1  LIG1        0.0699
     14 C           0.2278    7.4033    0.6560 C.ar    1  LIG1        0.0874
     15 C          -0.9111    6.7987    0.1849 C.ar    1  LIG1        0.1882
     16 O          -0.6782    5.4893   -0.0463 O.2     1  LIG1       -0.4461
     17 S           2.8777    6.5701    1.2967 S.3     1  LIG1       -0.1377
     18 H           2.5882    7.6553    2.0376 H       1  LIG1        0.1073
     19 C           0.3806    8.7347    1.1154 C.1     1  LIG1       -0.0646
     20 C           0.5391    9.8514    1.5373 C.1     1  LIG1       -0.1138
     21 H           0.6562   10.8471    1.8993 H       1  LIG1        0.1232
     22 C          -2.2381    7.2802   -0.0985 C.ar    1  LIG1        0.1863
     23 C          -2.7408    8.4550   -0.5832 C.ar    1  LIG1        0.0699
     24 C          -4.1660    8.2680   -0.6759 C.ar    1  LIG1        0.0874
     25 C          -4.4124    6.9922   -0.2335 C.ar    1  LIG1        0.1882
     26 O          -3.2557    6.3938    0.1199 O.2     1  LIG1       -0.4461
     27 S          -1.8611    9.8941   -1.0737 S.3     1  LIG1       -0.1377
     28 H          -2.8365   10.3275   -1.8929 H       1  LIG1        0.1073
     29 C          -5.0871    9.1906   -1.2304 C.1     1  LIG1       -0.0646
     30 C          -5.8372    9.9900   -1.7289 C.1     1  LIG1       -0.1138
     31 H          -6.5220   10.6831   -2.1611 H       1  LIG1        0.1232
     32 C          -5.6163    6.2167   -0.0769 C.ar    1  LIG1        0.1852
     33 C          -6.9025    6.5127    0.2779 C.ar    1  LIG1        0.0691
     34 C          -7.6116    5.2556    0.2730 C.ar    1  LIG1        0.0762
     35 C          -6.6919    4.3120   -0.0710 C.ar    1  LIG1        0.1092
     36 O          -5.4929    4.8698   -0.2921 O.2     1  LIG1       -0.4574
     37 H          -6.7607    3.2426   -0.1905 H       1  LIG1        0.1042
     38 S          -7.5845    8.0752    0.7019 S.3     1  LIG1       -0.1377
     39 H          -8.6098    7.5483    1.3953 H       1  LIG1        0.1073
     40 C          -8.9782    5.0551    0.6000 C.1     1  LIG1       -0.0654
     41 C         -10.1380    4.9162    0.8908 C.1     1  LIG1       -0.1138
     42 H         -11.1655    4.7795    1.1394 H       1  LIG1        0.1232
@<TRIPOS>BOND
     1    31    30    1
     2    28    27    1
     3    30    29    3
     4     8     7    1
     5    11    10    1
     6    29    24    1
     7    10     9    3
     8    27    23    1
     9     9     3    1
    10    24    23   ar
    11    24    25   ar
    12    23    22   ar
    13     7     2    1
    14    36    32   ar
    15    36    35   ar
    16     3     2   ar
    17     3     4   ar
    18    25    32    1
    19    25    26   ar
    20    37    35    1
    21     2     1   ar
    22    22    26   ar
    23    22    15    1
    24    32    33   ar
    25    35    34   ar
    26    16    15   ar
    27    16    12   ar
    28     4    12    1
    29     4     5   ar
    30    15    14   ar
    31     1     6    1
    32     1     5   ar
    33    34    33   ar
    34    34    40    1
    35    33    38    1
    36    12    13   ar
    37    40    41    3
    38    14    13   ar
    39    14    19    1
    40    38    39    1
    41    13    17    1
    42    41    42    1
    43    19    20    3
    44    17    18    1
    45    20    21    1
