@<TRIPOS>MOLECULE
mol_data/opt/cam/geoms/mol2/12ge12ge.out
 22 23 0 0 0
SMALL
GASTEIGER

@<TRIPOS>ATOM
      1 C           0.2443    1.8641    0.5025 C.ar    1  LIG1        0.1071
      2 C           1.5788    1.8428    0.2746 C.ar    1  LIG1        0.0587
      3 C           1.9570    3.2077   -0.0058 C.ar    1  LIG1        0.0866
      4 C           0.8025    3.9403    0.0943 C.ar    1  LIG1        0.1872
      5 O          -0.2378    3.1259    0.4099 O.2     1  LIG1       -0.4574
      6 H          -0.4693    1.0908    0.7366 H       1  LIG1        0.1041
      7 S           2.6233    0.4288    0.3971 S.3     1  LIG1       -0.1384
      8 H           3.1848    0.5364   -0.8201 H       1  LIG1        0.1072
      9 C           3.2420    3.6640   -0.3920 C.1     1  LIG1       -0.0647
     10 C           4.3358    4.0279   -0.7385 C.1     1  LIG1       -0.1138
     11 H           5.3000    4.3675   -1.0398 H       1  LIG1        0.1232
     12 C           0.5019    5.3425   -0.0580 C.ar    1  LIG1        0.1852
     13 C           1.1606    6.4964    0.2576 C.ar    1  LIG1        0.0691
     14 C           0.2876    7.5732   -0.1461 C.ar    1  LIG1        0.0762
     15 C          -0.8249    6.9769   -0.6565 C.ar    1  LIG1        0.1092
     16 O          -0.7111    5.6405   -0.6209 O.2     1  LIG1       -0.4574
     17 H          -1.7392    7.3771   -1.0645 H       1  LIG1        0.1042
     18 S           2.7310    6.6738    1.0265 S.3     1  LIG1       -0.1377
     19 H           2.4643    7.8989    1.5140 H       1  LIG1        0.1073
     20 C           0.5341    8.9633    0.0016 C.1     1  LIG1       -0.0654
     21 C           0.7669   10.1353    0.1475 C.1     1  LIG1       -0.1138
     22 H           0.9642   11.1761    0.2648 H       1  LIG1        0.1232
@<TRIPOS>BOND
     1    17    15    1
     2    11    10    1
     3     8     7    1
     4    10     9    3
     5    15    16   ar
     6    15    14   ar
     7    16    12   ar
     8     9     3    1
     9    14    20    1
    10    14    13   ar
    11    12     4    1
    12    12    13   ar
    13     3     4   ar
    14     3     2   ar
    15    20    21    3
    16     4     5   ar
    17    21    22    1
    18    13    18    1
    19     2     7    1
    20     2     1   ar
    21     5     1   ar
    22     1     6    1
    23    18    19    1
