@<TRIPOS>MOLECULE
mol_data/opt/cam/geoms/mol2/12gf12gf-12gf-12gf.out
 38 41 0 0 0
SMALL
GASTEIGER

@<TRIPOS>ATOM
      1 C           0.3857    1.8590   -0.1863 C.ar    1  LIG1        0.1096
      2 C           1.7367    1.8930   -0.0550 C.ar    1  LIG1        0.0849
      3 C           2.0826    3.2779    0.0603 C.ar    1  LIG1        0.1792
      4 C           0.9029    3.9826   -0.0120 C.ar    1  LIG1        0.2131
      5 O          -0.1351    3.0961   -0.1749 O.2     1  LIG1       -0.4549
      6 H          -0.3095    1.0427   -0.3027 H       1  LIG1        0.1042
      7 S           2.8427    0.5251   -0.1311 S.3     1  LIG1       -0.1361
      8 H           3.5083    0.7937    1.0058 H       1  LIG1        0.1073
      9 O           3.3475    3.6729    0.2326 O.3     1  LIG1       -0.5024
     10 H           3.3970    4.6483    0.2765 H       1  LIG1        0.2923
     11 C           0.5325    5.3712    0.0414 C.ar    1  LIG1        0.1912
     12 C           1.2299    6.5559    0.1136 C.ar    1  LIG1        0.0962
     13 C           0.2522    7.5973    0.1393 C.ar    1  LIG1        0.1800
     14 C          -0.9773    6.9866    0.0742 C.ar    1  LIG1        0.2142
     15 O          -0.7870    5.6228    0.0208 O.2     1  LIG1       -0.4435
     16 S           2.9664    6.8117    0.2399 S.3     1  LIG1       -0.1353
     17 H           3.2288    7.1085   -1.0480 H       1  LIG1        0.1073
     18 O           0.5997    8.8838    0.2018 O.3     1  LIG1       -0.5024
     19 H          -0.1970    9.4506    0.2376 H       1  LIG1        0.2923
     20 C          -2.3436    7.4268    0.0428 C.ar    1  LIG1        0.1912
     21 C          -2.9648    8.6556    0.0647 C.ar    1  LIG1        0.0962
     22 C          -4.3692    8.3968    0.0115 C.ar    1  LIG1        0.1800
     23 C          -4.5186    7.0336   -0.0383 C.ar    1  LIG1        0.2141
     24 O          -3.2691    6.4531   -0.0128 O.2     1  LIG1       -0.4435
     25 S          -2.2470   10.2544    0.2204 S.3     1  LIG1       -0.1353
     26 H          -2.3509   10.6565   -1.0616 H       1  LIG1        0.1073
     27 O          -5.2650    9.3874   -0.0116 O.3     1  LIG1       -0.5024
     28 H          -6.1723    9.0256    0.0365 H       1  LIG1        0.2923
     29 C          -5.6298    6.1241   -0.1231 C.ar    1  LIG1        0.1901
     30 C          -6.9948    6.2583   -0.0148 C.ar    1  LIG1        0.0954
     31 C          -7.5341    4.9451   -0.2145 C.ar    1  LIG1        0.1686
     32 C          -6.4831    4.1145   -0.4155 C.ar    1  LIG1        0.1352
     33 O          -5.3187    4.8357   -0.3651 O.2     1  LIG1       -0.4548
     34 H          -6.3848    3.0569   -0.5938 H       1  LIG1        0.1068
     35 S          -7.9422    7.7176    0.2478 S.3     1  LIG1       -0.1354
     36 H          -8.0704    7.6542    1.5881 H       1  LIG1        0.1073
     37 O          -8.8610    4.6953   -0.1708 O.3     1  LIG1       -0.5029
     38 H          -9.0206    3.7608   -0.3457 H       1  LIG1        0.2923
@<TRIPOS>BOND
     1    26    25    1
     2    17    16    1
     3    34    32    1
     4    32    33   ar
     5    32    31   ar
     6    33    29   ar
     7    38    37    1
     8     6     1    1
     9    31    37    1
    10    31    30   ar
    11     1     5   ar
    12     1     2   ar
    13     5     4   ar
    14     7     2    1
    15     7     8    1
    16    29    23    1
    17    29    30   ar
    18     2     3   ar
    19    23    24   ar
    20    23    22   ar
    21    30    35    1
    22    24    20   ar
    23     4    11    1
    24     4     3   ar
    25    27    22    1
    26    27    28    1
    27    22    21   ar
    28    15    11   ar
    29    15    14   ar
    30    11    12   ar
    31    20    21   ar
    32    20    14    1
    33     3     9    1
    34    21    25    1
    35    14    13   ar
    36    12    13   ar
    37    12    16    1
    38    13    18    1
    39    18    19    1
    40     9    10    1
    41    35    36    1
