@<TRIPOS>MOLECULE
mol_data/opt/cam/geoms/mol2/12gf12gf-12gf12gf.out
 38 41 0 0 0
SMALL
GASTEIGER

@<TRIPOS>ATOM
      1 C           0.3815    1.8550   -0.1055 C.ar    1  LIG1        0.1096
      2 C           1.7376    1.8973   -0.1586 C.ar    1  LIG1        0.0849
      3 C           2.0868    3.2853   -0.1070 C.ar    1  LIG1        0.1792
      4 C           0.9034    3.9829   -0.0252 C.ar    1  LIG1        0.2131
      5 O          -0.1403    3.0882   -0.0144 O.2     1  LIG1       -0.4549
      6 H          -0.3174    1.0335   -0.1141 H       1  LIG1        0.1042
      7 S           2.8395    0.5239   -0.1668 S.3     1  LIG1       -0.1361
      8 H           3.5524    0.8953   -1.2446 H       1  LIG1        0.1073
      9 O           3.3581    3.6917   -0.1667 O.3     1  LIG1       -0.5024
     10 H           3.4084    4.6656   -0.0966 H       1  LIG1        0.2923
     11 C           0.5338    5.3709    0.0481 C.ar    1  LIG1        0.1912
     12 C           1.2319    6.5537    0.1413 C.ar    1  LIG1        0.0962
     13 C           0.2553    7.5958    0.1719 C.ar    1  LIG1        0.1800
     14 C          -0.9746    6.9869    0.0991 C.ar    1  LIG1        0.2142
     15 O          -0.7852    5.6242    0.0188 O.2     1  LIG1       -0.4435
     16 S           2.9723    6.8142    0.1489 S.3     1  LIG1       -0.1353
     17 H           3.1545    6.9747    1.4742 H       1  LIG1        0.1073
     18 O           0.6027    8.8791    0.2813 O.3     1  LIG1       -0.5024
     19 H          -0.1910    9.4507    0.2531 H       1  LIG1        0.2923
     20 C          -2.3407    7.4284    0.0936 C.ar    1  LIG1        0.1912
     21 C          -2.9576    8.6592    0.0629 C.ar    1  LIG1        0.0962
     22 C          -4.3638    8.4043    0.0811 C.ar    1  LIG1        0.1800
     23 C          -4.5181    7.0407    0.1117 C.ar    1  LIG1        0.2141
     24 O          -3.2693    6.4574    0.1246 O.2     1  LIG1       -0.4435
     25 S          -2.2294   10.2606    0.0838 S.3     1  LIG1       -0.1353
     26 H          -2.2950   10.5411   -1.2328 H       1  LIG1        0.1073
     27 O          -5.2572    9.3968    0.0605 O.3     1  LIG1       -0.5024
     28 H          -6.1659    9.0357    0.0607 H       1  LIG1        0.2923
     29 C          -5.6310    6.1290    0.1364 C.ar    1  LIG1        0.1901
     30 C          -6.9975    6.2685    0.0550 C.ar    1  LIG1        0.0954
     31 C          -7.5330    4.9427    0.1570 C.ar    1  LIG1        0.1686
     32 C          -6.4794    4.1008    0.2823 C.ar    1  LIG1        0.1352
     33 O          -5.3166    4.8261    0.2754 O.2     1  LIG1       -0.4548
     34 H          -6.3781    3.0330    0.3794 H       1  LIG1        0.1068
     35 S          -7.9524    7.7418   -0.0611 S.3     1  LIG1       -0.1354
     36 H          -8.1791    7.7472   -1.3898 H       1  LIG1        0.1073
     37 O          -8.8604    4.6958    0.1077 O.3     1  LIG1       -0.5029
     38 H          -9.0189    3.7516    0.2212 H       1  LIG1        0.2923
@<TRIPOS>BOND
     1    36    35    1
     2     8     7    1
     3    26    25    1
     4     7     2    1
     5     9     3    1
     6     9    10    1
     7     2     3   ar
     8     2     1   ar
     9     6     1    1
    10     3     4   ar
    11     1     5   ar
    12    35    30    1
    13     4     5   ar
    14     4    11    1
    15    15    11   ar
    16    15    14   ar
    17    11    12   ar
    18    30    29   ar
    19    30    31   ar
    20    27    28    1
    21    27    22    1
    22    21    22   ar
    23    21    25    1
    24    21    20   ar
    25    22    23   ar
    26    20    14    1
    27    20    24   ar
    28    14    13   ar
    29    37    31    1
    30    37    38    1
    31    23    24   ar
    32    23    29    1
    33    29    33   ar
    34    12    16    1
    35    12    13   ar
    36    16    17    1
    37    31    32   ar
    38    13    18    1
    39    19    18    1
    40    33    32   ar
    41    32    34    1
