@<TRIPOS>MOLECULE
mol_data/opt/cam/geoms/mol2/12gf12gf-12gf.out
 29 31 0 0 0
SMALL
GASTEIGER

@<TRIPOS>ATOM
      1 C           0.3097    1.8639   -0.3283 C.ar    1  LIG1        0.1096
      2 C           1.6596    1.8858   -0.1847 C.ar    1  LIG1        0.0849
      3 C           2.0118    3.2639   -0.0155 C.ar    1  LIG1        0.1792
      4 C           0.8367    3.9769   -0.0710 C.ar    1  LIG1        0.2131
      5 O          -0.2047    3.1028   -0.2751 O.2     1  LIG1       -0.4549
      6 H          -0.3886    1.0561   -0.4806 H       1  LIG1        0.1042
      7 S           2.7579    0.5147   -0.3034 S.3     1  LIG1       -0.1361
      8 H           3.3938    0.7144    0.8643 H       1  LIG1        0.1073
      9 O           3.2772    3.6463    0.1811 O.3     1  LIG1       -0.5024
     10 H           3.3309    4.6196    0.2556 H       1  LIG1        0.2923
     11 C           0.4725    5.3652    0.0311 C.ar    1  LIG1        0.1912
     12 C           1.1734    6.5435    0.1466 C.ar    1  LIG1        0.0962
     13 C           0.1981    7.5874    0.2073 C.ar    1  LIG1        0.1800
     14 C          -1.0314    6.9846    0.1166 C.ar    1  LIG1        0.2141
     15 O          -0.8465    5.6230    0.0149 O.2     1  LIG1       -0.4435
     16 S           2.9105    6.7875    0.2868 S.3     1  LIG1       -0.1353
     17 H           3.1779    7.1293   -0.9889 H       1  LIG1        0.1073
     18 O           0.5499    8.8705    0.3231 O.3     1  LIG1       -0.5024
     19 H          -0.2443    9.4408    0.3313 H       1  LIG1        0.2923
     20 C          -2.4004    7.4284    0.1086 C.ar    1  LIG1        0.1901
     21 C          -3.0186    8.6575    0.1037 C.ar    1  LIG1        0.0954
     22 C          -4.4264    8.3875    0.1073 C.ar    1  LIG1        0.1686
     23 C          -4.5694    7.0407    0.1054 C.ar    1  LIG1        0.1352
     24 O          -3.3309    6.4536    0.1117 O.2     1  LIG1       -0.4548
     25 H          -5.4159    6.3748    0.0983 H       1  LIG1        0.1068
     26 S          -2.2921   10.2589    0.1681 S.3     1  LIG1       -0.1354
     27 H          -2.3380   10.5684   -1.1430 H       1  LIG1        0.1073
     28 O          -5.3496    9.3738    0.0969 O.3     1  LIG1       -0.5029
     29 H          -6.2337    8.9906    0.1287 H       1  LIG1        0.2923
@<TRIPOS>BOND
     1    27    26    1
     2    17    16    1
     3     6     1    1
     4     1     5   ar
     5     1     2   ar
     6     7     2    1
     7     7     8    1
     8     5     4   ar
     9     2     3   ar
    10     4     3   ar
    11     4    11    1
    12     3     9    1
    13    15    11   ar
    14    15    14   ar
    15    11    12   ar
    16    28    22    1
    17    28    29    1
    18    25    23    1
    19    21    22   ar
    20    21    20   ar
    21    21    26    1
    22    23    22   ar
    23    23    24   ar
    24    20    24   ar
    25    20    14    1
    26    14    13   ar
    27    12    13   ar
    28    12    16    1
    29     9    10    1
    30    13    18    1
    31    18    19    1
