@<TRIPOS>MOLECULE
mol_data/opt/cam/geoms/mol2/12gf12gf12gf-.out
 29 31 0 0 0
SMALL
GASTEIGER

@<TRIPOS>ATOM
      1 C           0.3021    1.8484   -0.0554 C.ar    1  LIG1        0.1096
      2 C           1.6569    1.8825    0.0256 C.ar    1  LIG1        0.0849
      3 C           2.0122    3.2700    0.0403 C.ar    1  LIG1        0.1792
      4 C           0.8338    3.9758   -0.0343 C.ar    1  LIG1        0.2131
      5 O          -0.2130    3.0873   -0.1038 O.2     1  LIG1       -0.4549
      6 H          -0.4000    1.0306   -0.0954 H       1  LIG1        0.1042
      7 S           2.7535    0.5052   -0.0037 S.3     1  LIG1       -0.1361
      8 H           3.4506    0.8305    1.0990 H       1  LIG1        0.1073
      9 O           3.2842    3.6680    0.1409 O.3     1  LIG1       -0.5024
     10 H           3.3384    4.6438    0.1188 H       1  LIG1        0.2923
     11 C           0.4706    5.3679   -0.0569 C.ar    1  LIG1        0.1912
     12 C           1.1726    6.5511   -0.0794 C.ar    1  LIG1        0.0962
     13 C           0.1979    7.5969   -0.0932 C.ar    1  LIG1        0.1800
     14 C          -1.0325    6.9898   -0.0799 C.ar    1  LIG1        0.2141
     15 O          -0.8489    5.6246   -0.0519 O.2     1  LIG1       -0.4435
     16 S           2.9130    6.8060   -0.0259 S.3     1  LIG1       -0.1353
     17 H           3.1317    7.0347   -1.3356 H       1  LIG1        0.1073
     18 O           0.5494    8.8845   -0.1429 O.3     1  LIG1       -0.5024
     19 H          -0.2416    9.4550   -0.0731 H       1  LIG1        0.2923
     20 C          -2.4004    7.4355   -0.1030 C.ar    1  LIG1        0.1901
     21 C          -3.0175    8.6596    0.0124 C.ar    1  LIG1        0.0954
     22 C          -4.4226    8.4025   -0.1099 C.ar    1  LIG1        0.1686
     23 C          -4.5651    7.0659   -0.2771 C.ar    1  LIG1        0.1352
     24 O          -3.3286    6.4745   -0.2783 O.2     1  LIG1       -0.4548
     25 H          -5.4107    6.4100   -0.3994 H       1  LIG1        0.1068
     26 S          -2.2872   10.2493    0.2013 S.3     1  LIG1       -0.1354
     27 H          -2.3551   10.3602    1.5429 H       1  LIG1        0.1073
     28 O          -5.3454    9.3865   -0.0385 O.3     1  LIG1       -0.5029
     29 H          -6.2261    9.0145   -0.1627 H       1  LIG1        0.2923
@<TRIPOS>BOND
     1    17    16    1
     2    25    23    1
     3    24    23   ar
     4    24    20   ar
     5    23    22   ar
     6    29    28    1
     7    18    13    1
     8    18    19    1
     9    22    28    1
    10    22    21   ar
    11     5     1   ar
    12     5     4   ar
    13    20    14    1
    14    20    21   ar
    15     6     1    1
    16    13    14   ar
    17    13    12   ar
    18    14    15   ar
    19    12    11   ar
    20    12    16    1
    21    11    15   ar
    22    11     4    1
    23     1     2   ar
    24     4     3   ar
    25     7     2    1
    26     7     8    1
    27    21    26    1
    28     2     3   ar
    29     3     9    1
    30    10     9    1
    31    26    27    1
