@<TRIPOS>MOLECULE
mol_data/opt/cam/geoms/mol2/12gf12gf-12gf-12gf-.out
 38 41 0 0 0
SMALL
GASTEIGER

@<TRIPOS>ATOM
      1 C           0.3822    1.8571   -0.1942 C.ar    1  LIG1        0.1096
      2 C           1.7334    1.8898   -0.0642 C.ar    1  LIG1        0.0849
      3 C           2.0806    3.2743    0.0523 C.ar    1  LIG1        0.1792
      4 C           0.9013    3.9800   -0.0182 C.ar    1  LIG1        0.2131
      5 O          -0.1375    3.0946   -0.1811 O.2     1  LIG1       -0.4549
      6 H          -0.3139    1.0415   -0.3109 H       1  LIG1        0.1042
      7 S           2.8381    0.5210   -0.1427 S.3     1  LIG1       -0.1361
      8 H           3.5050    0.7879    0.9938 H       1  LIG1        0.1073
      9 O           3.3459    3.6680    0.2239 O.3     1  LIG1       -0.5024
     10 H           3.3963    4.6433    0.2688 H       1  LIG1        0.2923
     11 C           0.5322    5.3689    0.0369 C.ar    1  LIG1        0.1912
     12 C           1.2307    6.5530    0.1098 C.ar    1  LIG1        0.0962
     13 C           0.2539    7.5951    0.1374 C.ar    1  LIG1        0.1800
     14 C          -0.9761    6.9856    0.0729 C.ar    1  LIG1        0.2142
     15 O          -0.7871    5.6216    0.0179 O.2     1  LIG1       -0.4435
     16 S           2.9675    6.8071    0.2347 S.3     1  LIG1       -0.1353
     17 H           3.2290    7.1050   -1.0531 H       1  LIG1        0.1073
     18 O           0.6026    8.8812    0.2010 O.3     1  LIG1       -0.5024
     19 H          -0.1936    9.4487    0.2381 H       1  LIG1        0.2923
     20 C          -2.3422    7.4270    0.0433 C.ar    1  LIG1        0.1912
     21 C          -2.9623    8.6562    0.0669 C.ar    1  LIG1        0.0962
     22 C          -4.3669    8.3987    0.0149 C.ar    1  LIG1        0.1800
     23 C          -4.5175    7.0357   -0.0361 C.ar    1  LIG1        0.2141
     24 O          -3.2685    6.4541   -0.0124 O.2     1  LIG1       -0.4435
     25 S          -2.2430   10.2543    0.2234 S.3     1  LIG1       -0.1353
     26 H          -2.3477   10.6576   -1.0581 H       1  LIG1        0.1073
     27 O          -5.2619    9.3901   -0.0065 O.3     1  LIG1       -0.5024
     28 H          -6.1694    9.0290    0.0423 H       1  LIG1        0.2923
     29 C          -5.6296    6.1272   -0.1207 C.ar    1  LIG1        0.1901
     30 C          -6.9944    6.2625   -0.0109 C.ar    1  LIG1        0.0954
     31 C          -7.5350    4.9500   -0.2114 C.ar    1  LIG1        0.1686
     32 C          -6.4849    4.1187   -0.4143 C.ar    1  LIG1        0.1352
     33 O          -5.3198    4.8388   -0.3644 O.2     1  LIG1       -0.4548
     34 H          -6.3878    3.0611   -0.5939 H       1  LIG1        0.1068
     35 S          -7.9402    7.7224    0.2542 S.3     1  LIG1       -0.1354
     36 H          -8.0670    7.6577    1.5947 H       1  LIG1        0.1073
     37 O          -8.8621    4.7012   -0.1666 O.3     1  LIG1       -0.5029
     38 H          -9.0227    3.7670   -0.3423 H       1  LIG1        0.2923
@<TRIPOS>BOND
     1    26    25    1
     2    17    16    1
     3    34    32    1
     4    32    33   ar
     5    32    31   ar
     6    33    29   ar
     7    38    37    1
     8     6     1    1
     9    31    37    1
    10    31    30   ar
    11     1     5   ar
    12     1     2   ar
    13     5     4   ar
    14     7     2    1
    15     7     8    1
    16    29    23    1
    17    29    30   ar
    18     2     3   ar
    19    23    24   ar
    20    23    22   ar
    21     4    11    1
    22     4     3   ar
    23    24    20   ar
    24    30    35    1
    25    27    22    1
    26    27    28    1
    27    22    21   ar
    28    15    11   ar
    29    15    14   ar
    30    11    12   ar
    31    20    21   ar
    32    20    14    1
    33     3     9    1
    34    21    25    1
    35    14    13   ar
    36    12    13   ar
    37    12    16    1
    38    13    18    1
    39    18    19    1
    40     9    10    1
    41    35    36    1
