@<TRIPOS>MOLECULE
mol_data/opt/cam/geoms/mol2/12gf12gf12gf-12gf-.out
 38 41 0 0 0
SMALL
GASTEIGER

@<TRIPOS>ATOM
      1 C           0.3805    1.8545    0.0713 C.ar    1  LIG1        0.1096
      2 C           1.7353    1.8963    0.1508 C.ar    1  LIG1        0.0849
      3 C           2.0850    3.2848    0.1201 C.ar    1  LIG1        0.1792
      4 C           0.9033    3.9831    0.0225 C.ar    1  LIG1        0.2131
      5 O          -0.1397    3.0885   -0.0175 O.2     1  LIG1       -0.4549
      6 H          -0.3183    1.0329    0.0583 H       1  LIG1        0.1042
      7 S           2.8371    0.5229    0.1663 S.3     1  LIG1       -0.1361
      8 H           3.5291    0.8832    1.2613 H       1  LIG1        0.1073
      9 O           3.3549    3.6907    0.2084 O.3     1  LIG1       -0.5024
     10 H           3.4063    4.6652    0.1487 H       1  LIG1        0.2923
     11 C           0.5348    5.3717   -0.0439 C.ar    1  LIG1        0.1912
     12 C           1.2342    6.5555   -0.1120 C.ar    1  LIG1        0.0962
     13 C           0.2580    7.5978   -0.1508 C.ar    1  LIG1        0.1800
     14 C          -0.9729    6.9880   -0.1074 C.ar    1  LIG1        0.2142
     15 O          -0.7847    5.6246   -0.0372 O.2     1  LIG1       -0.4435
     16 S           2.9744    6.8163   -0.0839 S.3     1  LIG1       -0.1353
     17 H           3.1817    6.9896   -1.4039 H       1  LIG1        0.1073
     18 O           0.6069    8.8821   -0.2408 O.3     1  LIG1       -0.5024
     19 H          -0.1874    9.4532   -0.2222 H       1  LIG1        0.2923
     20 C          -2.3389    7.4294   -0.1235 C.ar    1  LIG1        0.1912
     21 C          -2.9566    8.6597   -0.0922 C.ar    1  LIG1        0.0962
     22 C          -4.3622    8.4049   -0.1396 C.ar    1  LIG1        0.1800
     23 C          -4.5155    7.0417   -0.1871 C.ar    1  LIG1        0.2141
     24 O          -3.2666    6.4587   -0.1821 O.2     1  LIG1       -0.4435
     25 S          -2.2284   10.2612   -0.0830 S.3     1  LIG1       -0.1353
     26 H          -2.3196   10.5286    1.2348 H       1  LIG1        0.1073
     27 O          -5.2560    9.3971   -0.1259 O.3     1  LIG1       -0.5024
     28 H          -6.1645    9.0361   -0.1477 H       1  LIG1        0.2923
     29 C          -5.6275    6.1302   -0.2422 C.ar    1  LIG1        0.1901
     30 C          -6.9954    6.2687   -0.1862 C.ar    1  LIG1        0.0954
     31 C          -7.5283    4.9439   -0.3112 C.ar    1  LIG1        0.1686
     32 C          -6.4722    4.1034   -0.4239 C.ar    1  LIG1        0.1352
     33 O          -5.3100    4.8287   -0.3875 O.2     1  LIG1       -0.4548
     34 H          -6.3687    3.0365   -0.5290 H       1  LIG1        0.1068
     35 S          -7.9528    7.7408   -0.0750 S.3     1  LIG1       -0.1354
     36 H          -8.2062    7.7332    1.2488 H       1  LIG1        0.1073
     37 O          -8.8564    4.6964   -0.2902 O.3     1  LIG1       -0.5029
     38 H          -9.0123    3.7533   -0.4157 H       1  LIG1        0.2923
@<TRIPOS>BOND
     1    17    16    1
     2    34    32    1
     3    32    33   ar
     4    32    31   ar
     5    38    37    1
     6    33    29   ar
     7    31    37    1
     8    31    30   ar
     9    29    23    1
    10    29    30   ar
    11    18    19    1
    12    18    13    1
    13    23    24   ar
    14    23    22   ar
    15    30    35    1
    16    24    20   ar
    17    13    12   ar
    18    13    14   ar
    19    28    27    1
    20    22    27    1
    21    22    21   ar
    22    20    14    1
    23    20    21   ar
    24    12    16    1
    25    12    11   ar
    26    14    15   ar
    27    21    25    1
    28    25    26    1
    29    35    36    1
    30    11    15   ar
    31    11     4    1
    32     5     4   ar
    33     5     1   ar
    34     4     3   ar
    35     6     1    1
    36     1     2   ar
    37     3     2   ar
    38     3     9    1
    39    10     9    1
    40     2     7    1
    41     7     8    1
