@<TRIPOS>MOLECULE
mol_data/opt/cam/geoms/mol2/12gf12gf-.out
 20 21 0 0 0
SMALL
GASTEIGER

@<TRIPOS>ATOM
      1 C           0.2503    1.8875   -0.2572 C.ar    1  LIG1        0.1096
      2 C           1.5989    1.9147   -0.1067 C.ar    1  LIG1        0.0849
      3 C           1.9491    3.2978    0.0281 C.ar    1  LIG1        0.1792
      4 C           0.7758    4.0074   -0.0543 C.ar    1  LIG1        0.2131
      5 O          -0.2645    3.1286   -0.2416 O.2     1  LIG1       -0.4549
      6 H          -0.4472    1.0759   -0.3917 H       1  LIG1        0.1042
      7 S           2.6995    0.5422   -0.1812 S.3     1  LIG1       -0.1361
      8 H           3.3394    0.7846    0.9762 H       1  LIG1        0.1073
      9 O           3.2134    3.6874    0.2281 O.3     1  LIG1       -0.5024
     10 H           3.2717    4.6627    0.2274 H       1  LIG1        0.2923
     11 C           0.4117    5.4005    0.0181 C.ar    1  LIG1        0.1901
     12 C           1.1144    6.5819    0.0395 C.ar    1  LIG1        0.0954
     13 C           0.1311    7.6215    0.1302 C.ar    1  LIG1        0.1686
     14 C          -1.0804    7.0163    0.1466 C.ar    1  LIG1        0.1352
     15 O          -0.9097    5.6580    0.0832 O.2     1  LIG1       -0.4548
     16 H          -2.0965    7.3707    0.1943 H       1  LIG1        0.1068
     17 S           2.8569    6.8309    0.0315 S.3     1  LIG1       -0.1354
     18 H           3.0412    7.0168   -1.2905 H       1  LIG1        0.1073
     19 O           0.4650    8.9300    0.1681 O.3     1  LIG1       -0.5029
     20 H          -0.3323    9.4656    0.2505 H       1  LIG1        0.2923
@<TRIPOS>BOND
     1    18    17    1
     2     6     1    1
     3     1     5   ar
     4     1     2   ar
     5     5     4   ar
     6     7     2    1
     7     7     8    1
     8     2     3   ar
     9     4    11    1
    10     4     3   ar
    11    11    12   ar
    12    11    15   ar
    13     3     9    1
    14    17    12    1
    15    12    13   ar
    16    15    14   ar
    17    13    14   ar
    18    13    19    1
    19    14    16    1
    20    19    20    1
    21    10     9    1
