@<TRIPOS>MOLECULE
mol_data/opt/cam/geoms/mol2/12gf12gf12gf-12gf.out
 38 41 0 0 0
SMALL
GASTEIGER

@<TRIPOS>ATOM
      1 C           0.3796    1.8533    0.0552 C.ar    1  LIG1        0.1096
      2 C           1.7344    1.8945    0.1363 C.ar    1  LIG1        0.0849
      3 C           2.0843    3.2831    0.1132 C.ar    1  LIG1        0.1792
      4 C           0.9028    3.9821    0.0181 C.ar    1  LIG1        0.2131
      5 O          -0.1403    3.0879   -0.0276 O.2     1  LIG1       -0.4549
      6 H          -0.3192    1.0319    0.0370 H       1  LIG1        0.1042
      7 S           2.8362    0.5211    0.1459 S.3     1  LIG1       -0.1361
      8 H           3.5273    0.8761    1.2432 H       1  LIG1        0.1073
      9 O           3.3542    3.6884    0.2050 O.3     1  LIG1       -0.5024
     10 H           3.4057    4.6632    0.1507 H       1  LIG1        0.2923
     11 C           0.5346    5.3711   -0.0413 C.ar    1  LIG1        0.1912
     12 C           1.2343    6.5551   -0.1023 C.ar    1  LIG1        0.0962
     13 C           0.2583    7.5977   -0.1367 C.ar    1  LIG1        0.1800
     14 C          -0.9727    6.9880   -0.0981 C.ar    1  LIG1        0.2142
     15 O          -0.7848    5.6242   -0.0348 O.2     1  LIG1       -0.4435
     16 S           2.9745    6.8154   -0.0708 S.3     1  LIG1       -0.1353
     17 H           3.1833    6.9962   -1.3896 H       1  LIG1        0.1073
     18 O           0.6077    8.8825   -0.2193 O.3     1  LIG1       -0.5024
     19 H          -0.1865    9.4538   -0.1979 H       1  LIG1        0.2923
     20 C          -2.3386    7.4297   -0.1134 C.ar    1  LIG1        0.1912
     21 C          -2.9562    8.6599   -0.0759 C.ar    1  LIG1        0.0962
     22 C          -4.3617    8.4057   -0.1268 C.ar    1  LIG1        0.1800
     23 C          -4.5152    7.0428   -0.1821 C.ar    1  LIG1        0.2141
     24 O          -3.2664    6.4595   -0.1787 O.2     1  LIG1       -0.4435
     25 S          -2.2278   10.2613   -0.0566 S.3     1  LIG1       -0.1353
     26 H          -2.3195   10.5206    1.2628 H       1  LIG1        0.1073
     27 O          -5.2554    9.3979   -0.1089 O.3     1  LIG1       -0.5024
     28 H          -6.1639    9.0372   -0.1327 H       1  LIG1        0.2923
     29 C          -5.6273    6.1319   -0.2440 C.ar    1  LIG1        0.1901
     30 C          -6.9952    6.2704   -0.1875 C.ar    1  LIG1        0.0954
     31 C          -7.5284    4.9466   -0.3221 C.ar    1  LIG1        0.1686
     32 C          -6.4725    4.1067   -0.4402 C.ar    1  LIG1        0.1352
     33 O          -5.3101    4.8314   -0.3981 O.2     1  LIG1       -0.4548
     34 H          -6.3692    3.0405   -0.5527 H       1  LIG1        0.1068
     35 S          -7.9523    7.7419   -0.0659 S.3     1  LIG1       -0.1354
     36 H          -8.2047    7.7256    1.2580 H       1  LIG1        0.1073
     37 O          -8.8565    4.6993   -0.3034 O.3     1  LIG1       -0.5029
     38 H          -9.0126    3.7571   -0.4353 H       1  LIG1        0.2923
@<TRIPOS>BOND
     1    17    16    1
     2    34    32    1
     3    32    33   ar
     4    32    31   ar
     5    38    37    1
     6    33    29   ar
     7    31    37    1
     8    31    30   ar
     9    29    30   ar
    10    29    23    1
    11    18    19    1
    12    18    13    1
    13    30    35    1
    14    23    24   ar
    15    23    22   ar
    16    24    20   ar
    17    13    12   ar
    18    13    14   ar
    19    28    27    1
    20    22    27    1
    21    22    21   ar
    22    20    14    1
    23    20    21   ar
    24    12    16    1
    25    12    11   ar
    26    14    15   ar
    27    21    25    1
    28    35    36    1
    29    25    26    1
    30    11    15   ar
    31    11     4    1
    32     5     4   ar
    33     5     1   ar
    34     4     3   ar
    35     6     1    1
    36     1     2   ar
    37     3     2   ar
    38     3     9    1
    39     2     7    1
    40     7     8    1
    41    10     9    1
