@<TRIPOS>MOLECULE
mol_data/opt/cam/geoms/mol2/12gf.out
 11 11 0 0 0
SMALL
GASTEIGER

@<TRIPOS>ATOM
      1 C           0.1106    1.9257   -0.0000 C.ar    1  LIG1        0.1085
      2 C           1.4673    1.9076    0.0000 C.ar    1  LIG1        0.0842
      3 C           1.8663    3.2836   -0.0000 C.ar    1  LIG1        0.1679
      4 C           0.7301    4.0246   -0.0001 C.ar    1  LIG1        0.1341
      5 O          -0.3528    3.1987   -0.0001 O.2     1  LIG1       -0.4662
      6 H          -0.6323    1.1447   -0.0000 H       1  LIG1        0.1042
      7 H           0.5342    5.0845   -0.0001 H       1  LIG1        0.1068
      8 S           2.5463    0.5133    0.0001 S.3     1  LIG1       -0.1361
      9 H           3.6718    1.2457    0.0001 H       1  LIG1        0.1073
     10 O           3.1737    3.6481    0.0000 O.3     1  LIG1       -0.5029
     11 H           3.2471    4.6089    0.0000 H       1  LIG1        0.2923
@<TRIPOS>BOND
     1     7     4    1
     2     5     4   ar
     3     5     1   ar
     4     4     3   ar
     5     1     6    1
     6     1     2   ar
     7     3    10    1
     8     3     2   ar
     9    11    10    1
    10     2     8    1
    11     8     9    1
