@<TRIPOS>MOLECULE
mol_data/opt/cam/geoms/mol2/12gf12gf.out
 20 21 0 0 0
SMALL
GASTEIGER

@<TRIPOS>ATOM
      1 C           0.2536    1.8876   -0.2647 C.ar    1  LIG1        0.1096
      2 C           1.6008    1.9151   -0.1018 C.ar    1  LIG1        0.0849
      3 C           1.9493    3.2981    0.0378 C.ar    1  LIG1        0.1792
      4 C           0.7765    4.0074   -0.0545 C.ar    1  LIG1        0.2131
      5 O          -0.2617    3.1286   -0.2524 O.2     1  LIG1       -0.4549
      6 H          -0.4423    1.0759   -0.4065 H       1  LIG1        0.1042
      7 S           2.7023    0.5429   -0.1680 S.3     1  LIG1       -0.1361
      8 H           3.3317    0.7842    0.9953 H       1  LIG1        0.1073
      9 O           3.2116    3.6878    0.2499 O.3     1  LIG1       -0.5024
     10 H           3.2696    4.6631    0.2505 H       1  LIG1        0.2923
     11 C           0.4113    5.4004    0.0160 C.ar    1  LIG1        0.1901
     12 C           1.1135    6.5819    0.0450 C.ar    1  LIG1        0.0954
     13 C           0.1291    7.6211    0.1282 C.ar    1  LIG1        0.1686
     14 C          -1.0824    7.0155    0.1331 C.ar    1  LIG1        0.1352
     15 O          -0.9106    5.6573    0.0699 O.2     1  LIG1       -0.4548
     16 H          -2.0989    7.3696    0.1718 H       1  LIG1        0.1068
     17 S           2.8559    6.8314    0.0526 S.3     1  LIG1       -0.1354
     18 H           3.0517    7.0187   -1.2676 H       1  LIG1        0.1073
     19 O           0.4622    8.9296    0.1705 O.3     1  LIG1       -0.5029
     20 H          -0.3360    9.4649    0.2467 H       1  LIG1        0.2923
@<TRIPOS>BOND
     1    18    17    1
     2     6     1    1
     3     1     5   ar
     4     1     2   ar
     5     5     4   ar
     6     7     2    1
     7     7     8    1
     8     2     3   ar
     9     4    11    1
    10     4     3   ar
    11    11    12   ar
    12    11    15   ar
    13     3     9    1
    14    12    17    1
    15    12    13   ar
    16    15    14   ar
    17    13    14   ar
    18    13    19    1
    19    14    16    1
    20    19    20    1
    21     9    10    1
