@<TRIPOS>MOLECULE
mol_data/opt/cam/geoms/mol2/12gf12gf12gf12gf.out
 38 41 0 0 0
SMALL
GASTEIGER

@<TRIPOS>ATOM
      1 C           0.3857    1.8533   -0.0995 C.ar    1  LIG1        0.1096
      2 C           1.7423    1.8949   -0.0588 C.ar    1  LIG1        0.0849
      3 C           2.0894    3.2843   -0.0395 C.ar    1  LIG1        0.1792
      4 C           0.9045    3.9833   -0.0712 C.ar    1  LIG1        0.2131
      5 O          -0.1383    3.0888   -0.1189 O.2     1  LIG1       -0.4549
      6 H          -0.3122    1.0314   -0.1275 H       1  LIG1        0.1042
      7 S           2.8456    0.5248   -0.1361 S.3     1  LIG1       -0.1361
      8 H           3.5684    0.8376    0.9536 H       1  LIG1        0.1073
      9 O           3.3608    3.6891    0.0284 O.3     1  LIG1       -0.5024
     10 H           3.4092    4.6654    0.0099 H       1  LIG1        0.2923
     11 C           0.5326    5.3726   -0.0662 C.ar    1  LIG1        0.1912
     12 C           1.2284    6.5598   -0.1058 C.ar    1  LIG1        0.0962
     13 C           0.2505    7.6005   -0.0701 C.ar    1  LIG1        0.1800
     14 C          -0.9779    6.9866   -0.0144 C.ar    1  LIG1        0.2142
     15 O          -0.7862    5.6219   -0.0080 O.2     1  LIG1       -0.4435
     16 S           2.9684    6.8230   -0.1204 S.3     1  LIG1       -0.1353
     17 H           3.1352    7.0489   -1.4382 H       1  LIG1        0.1073
     18 O           0.5953    8.8883   -0.1155 O.3     1  LIG1       -0.5024
     19 H          -0.1989    9.4564   -0.0526 H       1  LIG1        0.2923
     20 C          -2.3443    7.4248    0.0322 C.ar    1  LIG1        0.1912
     21 C          -2.9627    8.6520    0.1197 C.ar    1  LIG1        0.0962
     22 C          -4.3685    8.3944    0.1192 C.ar    1  LIG1        0.1800
     23 C          -4.5208    7.0332    0.0342 C.ar    1  LIG1        0.2141
     24 O          -3.2719    6.4535   -0.0241 O.2     1  LIG1       -0.4435
     25 S          -2.2381   10.2549    0.1532 S.3     1  LIG1       -0.1353
     26 H          -2.3022   10.4893    1.4788 H       1  LIG1        0.1073
     27 O          -5.2636    9.3805    0.2209 O.3     1  LIG1       -0.5024
     28 H          -6.1703    9.0268    0.1256 H       1  LIG1        0.2923
     29 C          -5.6345    6.1230    0.0107 C.ar    1  LIG1        0.1901
     30 C          -6.9975    6.2707   -0.1048 C.ar    1  LIG1        0.0954
     31 C          -7.5410    4.9455   -0.0454 C.ar    1  LIG1        0.1686
     32 C          -6.4942    4.0963    0.0882 C.ar    1  LIG1        0.1352
     33 O          -5.3285    4.8161    0.1280 O.2     1  LIG1       -0.4548
     34 H          -6.3997    3.0260    0.1621 H       1  LIG1        0.1068
     35 S          -7.9397    7.7512   -0.2331 S.3     1  LIG1       -0.1354
     36 H          -8.0534    7.8201   -1.5744 H       1  LIG1        0.1073
     37 O          -8.8674    4.7046   -0.1343 O.3     1  LIG1       -0.5029
     38 H          -9.0308    3.7579   -0.0547 H       1  LIG1        0.2923
@<TRIPOS>BOND
     1    36    35    1
     2    17    16    1
     3    35    30    1
     4     7     2    1
     5     7     8    1
     6    37    38    1
     7    37    31    1
     8     6     1    1
     9    16    12    1
    10     5     1   ar
    11     5     4   ar
    12    18    13    1
    13    18    19    1
    14    12    13   ar
    15    12    11   ar
    16    30    31   ar
    17    30    29   ar
    18     1     2   ar
    19     4    11    1
    20     4     3   ar
    21    13    14   ar
    22    11    15   ar
    23     2     3   ar
    24    31    32   ar
    25     3     9    1
    26    24    20   ar
    27    24    23   ar
    28    14    15   ar
    29    14    20    1
    30    10     9    1
    31    29    23    1
    32    29    33   ar
    33    20    21   ar
    34    23    22   ar
    35    32    33   ar
    36    32    34    1
    37    22    21   ar
    38    22    27    1
    39    21    25    1
    40    28    27    1
    41    25    26    1
