@<TRIPOS>MOLECULE
mol_data/opt/cam/geoms/mol2/12gf12gf-12gf12gf-.out
 38 41 0 0 0
SMALL
GASTEIGER

@<TRIPOS>ATOM
      1 C           0.3765    1.8653   -0.3184 C.ar    1  LIG1        0.1096
      2 C           1.7310    1.8947   -0.2283 C.ar    1  LIG1        0.0849
      3 C           2.0821    3.2753   -0.0806 C.ar    1  LIG1        0.1792
      4 C           0.9015    3.9822   -0.0940 C.ar    1  LIG1        0.2131
      5 O          -0.1421    3.1016   -0.2521 O.2     1  LIG1       -0.4549
      6 H          -0.3231    1.0532   -0.4385 H       1  LIG1        0.1042
      7 S           2.8320    0.5294   -0.3820 S.3     1  LIG1       -0.1361
      8 H           3.5312    0.7593    0.7432 H       1  LIG1        0.1073
      9 O           3.3521    3.6644    0.0645 O.3     1  LIG1       -0.5024
     10 H           3.4042    4.6380    0.1368 H       1  LIG1        0.2923
     11 C           0.5346    5.3686    0.0142 C.ar    1  LIG1        0.1912
     12 C           1.2354    6.5505    0.0984 C.ar    1  LIG1        0.0962
     13 C           0.2603    7.5907    0.1879 C.ar    1  LIG1        0.1800
     14 C          -0.9714    6.9824    0.1456 C.ar    1  LIG1        0.2142
     15 O          -0.7845    5.6208    0.0450 O.2     1  LIG1       -0.4435
     16 S           2.9755    6.8021    0.1749 S.3     1  LIG1       -0.1353
     17 H           3.1963    7.1336   -1.1123 H       1  LIG1        0.1073
     18 O           0.6111    8.8747    0.2785 O.3     1  LIG1       -0.5024
     19 H          -0.1837    9.4407    0.3513 H       1  LIG1        0.2923
     20 C          -2.3375    7.4234    0.1747 C.ar    1  LIG1        0.1912
     21 C          -2.9563    8.6519    0.2372 C.ar    1  LIG1        0.0962
     22 C          -4.3619    8.3943    0.2390 C.ar    1  LIG1        0.1800
     23 C          -4.5146    7.0320    0.1712 C.ar    1  LIG1        0.2141
     24 O          -3.2652    6.4513    0.1380 O.2     1  LIG1       -0.4435
     25 S          -2.2311   10.2476    0.3919 S.3     1  LIG1       -0.1353
     26 H          -2.3633   10.6627   -0.8834 H       1  LIG1        0.1073
     27 O          -5.2560    9.3852    0.2928 O.3     1  LIG1       -0.5024
     28 H          -6.1645    9.0242    0.2744 H       1  LIG1        0.2923
     29 C          -5.6264    6.1194    0.1333 C.ar    1  LIG1        0.1901
     30 C          -6.9935    6.2626    0.0704 C.ar    1  LIG1        0.0954
     31 C          -7.5269    4.9321    0.0748 C.ar    1  LIG1        0.1686
     32 C          -6.4718    4.0848    0.1304 C.ar    1  LIG1        0.1352
     33 O          -5.3098    4.8102    0.1717 O.2     1  LIG1       -0.4548
     34 H          -6.3688    3.0128    0.1464 H       1  LIG1        0.1068
     35 S          -7.9506    7.7391    0.0728 S.3     1  LIG1       -0.1354
     36 H          -8.1885    7.8433   -1.2498 H       1  LIG1        0.1073
     37 O          -8.8544    4.6877    0.0144 O.3     1  LIG1       -0.5029
     38 H          -9.0114    3.7376    0.0596 H       1  LIG1        0.2923
@<TRIPOS>BOND
     1    36    35    1
     2    17    16    1
     3    26    25    1
     4     6     1    1
     5     7     2    1
     6     7     8    1
     7     1     5   ar
     8     1     2   ar
     9     5     4   ar
    10     2     3   ar
    11     4     3   ar
    12     4    11    1
    13     3     9    1
    14    11    15   ar
    15    11    12   ar
    16    37    38    1
    17    37    31    1
    18    15    14   ar
    19     9    10    1
    20    30    35    1
    21    30    31   ar
    22    30    29   ar
    23    31    32   ar
    24    12    16    1
    25    12    13   ar
    26    32    34    1
    27    32    33   ar
    28    29    23    1
    29    29    33   ar
    30    24    23   ar
    31    24    20   ar
    32    14    20    1
    33    14    13   ar
    34    23    22   ar
    35    20    21   ar
    36    13    18    1
    37    21    22   ar
    38    21    25    1
    39    22    27    1
    40    28    27    1
    41    18    19    1
