@<TRIPOS>MOLECULE
mol_data/opt/cam/geoms/mol2/12gf12gf-12gf-.out
 29 31 0 0 0
SMALL
GASTEIGER

@<TRIPOS>ATOM
      1 C           0.2987    1.8481    0.0730 C.ar    1  LIG1        0.1096
      2 C           1.6546    1.8810    0.0113 C.ar    1  LIG1        0.0849
      3 C           2.0110    3.2683   -0.0045 C.ar    1  LIG1        0.1792
      4 C           0.8320    3.9751    0.0501 C.ar    1  LIG1        0.2131
      5 O          -0.2163    3.0875    0.1085 O.2     1  LIG1       -0.4549
      6 H          -0.4044    1.0309    0.1065 H       1  LIG1        0.1042
      7 S           2.7497    0.5033    0.0624 S.3     1  LIG1       -0.1361
      8 H           3.4627    0.8232   -1.0316 H       1  LIG1        0.1073
      9 O           3.2845    3.6650   -0.0887 O.3     1  LIG1       -0.5024
     10 H           3.3390    4.6409   -0.0702 H       1  LIG1        0.2923
     11 C           0.4695    5.3675    0.0613 C.ar    1  LIG1        0.1912
     12 C           1.1718    6.5503    0.0885 C.ar    1  LIG1        0.0962
     13 C           0.1976    7.5968    0.0837 C.ar    1  LIG1        0.1800
     14 C          -1.0329    6.9903    0.0556 C.ar    1  LIG1        0.2141
     15 O          -0.8497    5.6249    0.0363 O.2     1  LIG1       -0.4435
     16 S           2.9129    6.8040    0.0585 S.3     1  LIG1       -0.1353
     17 H           3.1132    7.0387    1.3701 H       1  LIG1        0.1073
     18 O           0.5492    8.8843    0.1326 O.3     1  LIG1       -0.5024
     19 H          -0.2403    9.4550    0.0491 H       1  LIG1        0.2923
     20 C          -2.4006    7.4369    0.0574 C.ar    1  LIG1        0.1901
     21 C          -3.0153    8.6608   -0.0723 C.ar    1  LIG1        0.0954
     22 C          -4.4221    8.4050    0.0312 C.ar    1  LIG1        0.1686
     23 C          -4.5678    7.0693    0.2023 C.ar    1  LIG1        0.1352
     24 O          -3.3318    6.4772    0.2237 O.2     1  LIG1       -0.4548
     25 H          -5.4155    6.4145    0.3155 H       1  LIG1        0.1068
     26 S          -2.2814   10.2492   -0.2578 S.3     1  LIG1       -0.1354
     27 H          -2.3301   10.3543   -1.6007 H       1  LIG1        0.1073
     28 O          -5.3432    9.3893   -0.0577 O.3     1  LIG1       -0.5029
     29 H          -6.2258    9.0183    0.0556 H       1  LIG1        0.2923
@<TRIPOS>BOND
     1    27    26    1
     2     8     7    1
     3    26    21    1
     4     9    10    1
     5     9     3    1
     6    21    22   ar
     7    21    20   ar
     8    28    22    1
     9    28    29    1
    10     3     2   ar
    11     3     4   ar
    12     2     7    1
    13     2     1   ar
    14    22    23   ar
    15    15    14   ar
    16    15    11   ar
    17    19    18    1
    18     4    11    1
    19     4     5   ar
    20    14    20    1
    21    14    13   ar
    22    20    24   ar
    23    16    12    1
    24    16    17    1
    25    11    12   ar
    26     1     6    1
    27     1     5   ar
    28    13    12   ar
    29    13    18    1
    30    23    24   ar
    31    23    25    1
