@<TRIPOS>MOLECULE
mol_data/opt/cam/geoms/mol2/12gf12gf12gf.out
 29 31 0 0 0
SMALL
GASTEIGER

@<TRIPOS>ATOM
      1 C           0.2984    1.8475   -0.0403 C.ar    1  LIG1        0.1096
      2 C           1.6535    1.8807    0.0363 C.ar    1  LIG1        0.0849
      3 C           2.0100    3.2680    0.0433 C.ar    1  LIG1        0.1792
      4 C           0.8320    3.9745   -0.0310 C.ar    1  LIG1        0.2131
      5 O          -0.2158    3.0866   -0.0930 O.2     1  LIG1       -0.4549
      6 H          -0.4046    1.0302   -0.0743 H       1  LIG1        0.1042
      7 S           2.7487    0.5023    0.0101 S.3     1  LIG1       -0.1361
      8 H           3.4495    0.8322    1.1090 H       1  LIG1        0.1073
      9 O           3.2826    3.6652    0.1382 O.3     1  LIG1       -0.5024
     10 H           3.3377    4.6409    0.1113 H       1  LIG1        0.2923
     11 C           0.4700    5.3668   -0.0591 C.ar    1  LIG1        0.1912
     12 C           1.1729    6.5492   -0.0892 C.ar    1  LIG1        0.0962
     13 C           0.1991    7.5959   -0.1050 C.ar    1  LIG1        0.1800
     14 C          -1.0318    6.9899   -0.0851 C.ar    1  LIG1        0.2141
     15 O          -0.8493    5.6247   -0.0512 O.2     1  LIG1       -0.4435
     16 S           2.9137    6.8028   -0.0420 S.3     1  LIG1       -0.1353
     17 H           3.1287    7.0253   -1.3534 H       1  LIG1        0.1073
     18 O           0.5517    8.8828   -0.1618 O.3     1  LIG1       -0.5024
     19 H          -0.2386    9.4544   -0.0923 H       1  LIG1        0.2923
     20 C          -2.3993    7.4367   -0.1063 C.ar    1  LIG1        0.1901
     21 C          -3.0150    8.6619    0.0052 C.ar    1  LIG1        0.0954
     22 C          -4.4206    8.4055   -0.1117 C.ar    1  LIG1        0.1686
     23 C          -4.5649    7.0683   -0.2721 C.ar    1  LIG1        0.1352
     24 O          -3.3289    6.4757   -0.2742 O.2     1  LIG1       -0.4548
     25 H          -5.4114    6.4126   -0.3888 H       1  LIG1        0.1068
     26 S          -2.2827   10.2518    0.1843 S.3     1  LIG1       -0.1354
     27 H          -2.3465   10.3692    1.5255 H       1  LIG1        0.1073
     28 O          -5.3424    9.3907   -0.0422 O.3     1  LIG1       -0.5029
     29 H          -6.2237    9.0188   -0.1620 H       1  LIG1        0.2923
@<TRIPOS>BOND
     1    17    16    1
     2    25    23    1
     3    24    23   ar
     4    24    20   ar
     5    23    22   ar
     6    29    28    1
     7    18    13    1
     8    18    19    1
     9    22    28    1
    10    22    21   ar
    11    20    14    1
    12    20    21   ar
    13    13    12   ar
    14    13    14   ar
    15     5     1   ar
    16     5     4   ar
    17    12    11   ar
    18    12    16    1
    19    14    15   ar
    20     6     1    1
    21    11    15   ar
    22    11     4    1
    23     1     2   ar
    24     4     3   ar
    25    21    26    1
    26     7     2    1
    27     7     8    1
    28     2     3   ar
    29     3     9    1
    30    10     9    1
    31    26    27    1
