@<TRIPOS>MOLECULE
mol_data/opt/cam/geoms/mol2/12gf12gf12gf12gf-.out
 38 41 0 0 0
SMALL
GASTEIGER

@<TRIPOS>ATOM
      1 C           0.3864    1.8536   -0.0812 C.ar    1  LIG1        0.1096
      2 C           1.7430    1.8957   -0.0415 C.ar    1  LIG1        0.0849
      3 C           2.0898    3.2852   -0.0301 C.ar    1  LIG1        0.1792
      4 C           0.9048    3.9838   -0.0651 C.ar    1  LIG1        0.2131
      5 O          -0.1379    3.0888   -0.1072 O.2     1  LIG1       -0.4549
      6 H          -0.3113    1.0314   -0.1042 H       1  LIG1        0.1042
      7 S           2.8465    0.5254   -0.1119 S.3     1  LIG1       -0.1361
      8 H           3.5701    0.8446    0.9755 H       1  LIG1        0.1073
      9 O           3.3613    3.6906    0.0350 O.3     1  LIG1       -0.5024
     10 H           3.4095    4.6668    0.0111 H       1  LIG1        0.2923
     11 C           0.5327    5.3730   -0.0677 C.ar    1  LIG1        0.1912
     12 C           1.2282    6.5601   -0.1148 C.ar    1  LIG1        0.0962
     13 C           0.2500    7.6009   -0.0840 C.ar    1  LIG1        0.1800
     14 C          -0.9781    6.9870   -0.0235 C.ar    1  LIG1        0.2142
     15 O          -0.7861    5.6224   -0.0095 O.2     1  LIG1       -0.4435
     16 S           2.9681    6.8237   -0.1328 S.3     1  LIG1       -0.1353
     17 H           3.1333    7.0424   -1.4521 H       1  LIG1        0.1073
     18 O           0.5946    8.8885   -0.1372 O.3     1  LIG1       -0.5024
     19 H          -0.1997    9.4568   -0.0764 H       1  LIG1        0.2923
     20 C          -2.3445    7.4251    0.0219 C.ar    1  LIG1        0.1912
     21 C          -2.9633    8.6527    0.1034 C.ar    1  LIG1        0.0962
     22 C          -4.3689    8.3948    0.1056 C.ar    1  LIG1        0.1800
     23 C          -4.5210    7.0331    0.0280 C.ar    1  LIG1        0.2141
     24 O          -3.2720    6.4534   -0.0283 O.2     1  LIG1       -0.4435
     25 S          -2.2390   10.2559    0.1278 S.3     1  LIG1       -0.1353
     26 H          -2.3017   10.4971    1.4522 H       1  LIG1        0.1073
     27 O          -5.2642    9.3811    0.2031 O.3     1  LIG1       -0.5024
     28 H          -6.1709    9.0267    0.1103 H       1  LIG1        0.2923
     29 C          -5.6345    6.1225    0.0103 C.ar    1  LIG1        0.1901
     30 C          -6.9976    6.2692   -0.1054 C.ar    1  LIG1        0.0954
     31 C          -7.5408    4.9442   -0.0380 C.ar    1  LIG1        0.1686
     32 C          -6.4937    4.0961    0.1000 C.ar    1  LIG1        0.1352
     33 O          -5.3281    4.8163    0.1349 O.2     1  LIG1       -0.4548
     34 H          -6.3990    3.0262    0.1800 H       1  LIG1        0.1068
     35 S          -7.9402    7.7487   -0.2421 S.3     1  LIG1       -0.1354
     36 H          -8.0547    7.8095   -1.5838 H       1  LIG1        0.1073
     37 O          -8.8671    4.7026   -0.1248 O.3     1  LIG1       -0.5029
     38 H          -9.0303    3.7563   -0.0394 H       1  LIG1        0.2923
@<TRIPOS>BOND
     1    36    35    1
     2    17    16    1
     3    35    30    1
     4    18    13    1
     5    18    19    1
     6    16    12    1
     7    37    38    1
     8    37    31    1
     9    12    13   ar
    10    12    11   ar
    11     7     2    1
    12     7     8    1
    13     5     1   ar
    14     5     4   ar
    15    30    31   ar
    16    30    29   ar
    17     6     1    1
    18    13    14   ar
    19     1     2   ar
    20    11     4    1
    21    11    15   ar
    22     4     3   ar
    23     2     3   ar
    24    31    32   ar
    25     3     9    1
    26    24    20   ar
    27    24    23   ar
    28    14    15   ar
    29    14    20    1
    30    29    23    1
    31    29    33   ar
    32    10     9    1
    33    20    21   ar
    34    23    22   ar
    35    32    33   ar
    36    32    34    1
    37    21    22   ar
    38    21    25    1
    39    22    27    1
    40    28    27    1
    41    25    26    1
