@<TRIPOS>MOLECULE
mol_data/opt/cam/geoms/mol2/12gg12gg12gg12gg.out
 38 41 0 0 0
SMALL
GASTEIGER

@<TRIPOS>ATOM
      1 C           1.0731    1.6770    0.0957 C.ar    1  LIG1        0.1069
      2 C           2.3038    1.9711   -0.3950 C.ar    1  LIG1        0.0565
      3 C           2.4033    3.4074   -0.3848 C.ar    1  LIG1        0.0669
      4 C           1.2135    3.8596    0.1139 C.ar    1  LIG1        0.1850
      5 O           0.4054    2.7970    0.4219 O.2     1  LIG1       -0.4575
      6 H           0.5679    0.7401    0.2693 H       1  LIG1        0.1041
      7 S           3.5321    0.7880   -0.8481 S.3     1  LIG1       -0.1385
      8 H           3.5027    0.9983   -2.1772 H       1  LIG1        0.1072
      9 S           3.7857    4.2871   -1.0245 S.3     1  LIG1       -0.1378
     10 H           3.6311    5.3926   -0.2702 H       1  LIG1        0.1072
     11 C           0.6435    5.1709    0.3330 C.ar    1  LIG1        0.1860
     12 C           1.0974    6.3236    0.9088 C.ar    1  LIG1        0.0677
     13 C           0.0296    7.2785    0.8064 C.ar    1  LIG1        0.0677
     14 C          -0.9956    6.6272    0.1800 C.ar    1  LIG1        0.1860
     15 O          -0.6313    5.3541   -0.1131 O.2     1  LIG1       -0.4463
     16 S           2.6351    6.5464    1.7381 S.3     1  LIG1       -0.1378
     17 H           2.6515    7.8845    1.5981 H       1  LIG1        0.1072
     18 S           0.0622    8.8993    1.4995 S.3     1  LIG1       -0.1378
     19 H          -0.3813    9.5533    0.4055 H       1  LIG1        0.1072
     20 C          -2.3286    7.0345   -0.2057 C.ar    1  LIG1        0.1860
     21 C          -2.8180    8.1167   -0.8794 C.ar    1  LIG1        0.0677
     22 C          -4.2416    7.9399   -0.9487 C.ar    1  LIG1        0.0677
     23 C          -4.5030    6.7567   -0.3156 C.ar    1  LIG1        0.1860
     24 O          -3.3510    6.2041    0.1389 O.2     1  LIG1       -0.4463
     25 S          -1.8667    9.3784   -1.6563 S.3     1  LIG1       -0.1378
     26 H          -2.8449   10.3015   -1.6362 H       1  LIG1        0.1072
     27 S          -5.3454    8.9972   -1.8301 S.3     1  LIG1       -0.1378
     28 H          -6.2343    9.1968   -0.8364 H       1  LIG1        0.1072
     29 C          -5.7324    6.0464   -0.0465 C.ar    1  LIG1        0.1850
     30 C          -6.9264    6.4260    0.4921 C.ar    1  LIG1        0.0669
     31 C          -7.7655    5.2560    0.4636 C.ar    1  LIG1        0.0565
     32 C          -6.9971    4.2636   -0.0556 C.ar    1  LIG1        0.1069
     33 O          -5.7741    4.7167   -0.3717 O.2     1  LIG1       -0.4575
     34 H          -7.1955    3.2208   -0.2470 H       1  LIG1        0.1041
     35 S          -7.3123    7.9946    1.1838 S.3     1  LIG1       -0.1378
     36 H          -8.5997    7.6930    1.4329 H       1  LIG1        0.1072
     37 S          -9.4163    5.1004    1.0669 S.3     1  LIG1       -0.1385
     38 H         -10.0573    5.4777   -0.0559 H       1  LIG1        0.1072
@<TRIPOS>BOND
     1     8     7    1
     2    27    22    1
     3    27    28    1
     4    25    26    1
     5    25    21    1
     6     9     3    1
     7     9    10    1
     8    22    21   ar
     9    22    23   ar
    10    21    20   ar
    11     7     2    1
    12     2     3   ar
    13     2     1   ar
    14     3     4   ar
    15    33    32   ar
    16    33    29   ar
    17    23    29    1
    18    23    24   ar
    19    34    32    1
    20    20    24   ar
    21    20    14    1
    22    15    14   ar
    23    15    11   ar
    24    38    37    1
    25    32    31   ar
    26    29    30   ar
    27     1     6    1
    28     1     5   ar
    29     4    11    1
    30     4     5   ar
    31    14    13   ar
    32    11    12   ar
    33    19    18    1
    34    31    30   ar
    35    31    37    1
    36    30    35    1
    37    13    12   ar
    38    13    18    1
    39    12    16    1
    40    35    36    1
    41    17    16    1
