@<TRIPOS>MOLECULE
mol_data/opt/cam/geoms/mol2/12gg12gg12gg12gg-.out
 38 41 0 0 0
SMALL
GASTEIGER

@<TRIPOS>ATOM
      1 C           1.0772    1.6810    0.1158 C.ar    1  LIG1        0.1069
      2 C           2.3087    1.9747   -0.3731 C.ar    1  LIG1        0.0565
      3 C           2.4066    3.4111   -0.3676 C.ar    1  LIG1        0.0669
      4 C           1.2152    3.8638    0.1268 C.ar    1  LIG1        0.1850
      5 O           0.4075    2.8013    0.4366 O.2     1  LIG1       -0.4575
      6 H           0.5727    0.7441    0.2914 H       1  LIG1        0.1041
      7 S           3.5394    0.7914   -0.8193 S.3     1  LIG1       -0.1385
      8 H           3.5128    0.9971   -2.1492 H       1  LIG1        0.1072
      9 S           3.7895    4.2902   -1.0072 S.3     1  LIG1       -0.1378
     10 H           3.6320    5.3980   -0.2569 H       1  LIG1        0.1072
     11 C           0.6433    5.1751    0.3401 C.ar    1  LIG1        0.1860
     12 C           1.0946    6.3303    0.9130 C.ar    1  LIG1        0.0677
     13 C           0.0261    7.2837    0.8049 C.ar    1  LIG1        0.0677
     14 C          -0.9970    6.6291    0.1784 C.ar    1  LIG1        0.1860
     15 O          -0.6307    5.3555   -0.1096 O.2     1  LIG1       -0.4463
     16 S           2.6302    6.5577    1.7451 S.3     1  LIG1       -0.1378
     17 H           2.6455    7.8953    1.6005 H       1  LIG1        0.1072
     18 S           0.0554    8.9070    1.4925 S.3     1  LIG1       -0.1378
     19 H          -0.3863    9.5566    0.3952 H       1  LIG1        0.1072
     20 C          -2.3296    7.0337   -0.2118 C.ar    1  LIG1        0.1860
     21 C          -2.8185    8.1131   -0.8903 C.ar    1  LIG1        0.0677
     22 C          -4.2418    7.9345   -0.9623 C.ar    1  LIG1        0.0677
     23 C          -4.5034    6.7532   -0.3258 C.ar    1  LIG1        0.1860
     24 O          -3.3518    6.2034    0.1333 O.2     1  LIG1       -0.4463
     25 S          -1.8669    9.3731   -1.6694 S.3     1  LIG1       -0.1378
     26 H          -2.8461   10.2952   -1.6546 H       1  LIG1        0.1072
     27 S          -5.3447    8.9875   -1.8499 S.3     1  LIG1       -0.1378
     28 H          -6.2361    9.1896   -0.8589 H       1  LIG1        0.1072
     29 C          -5.7326    6.0425   -0.0570 C.ar    1  LIG1        0.1850
     30 C          -6.9283    6.4227    0.4775 C.ar    1  LIG1        0.0669
     31 C          -7.7661    5.2517    0.4511 C.ar    1  LIG1        0.0565
     32 C          -6.9954    4.2583   -0.0629 C.ar    1  LIG1        0.1069
     33 O          -5.7722    4.7116   -0.3778 O.2     1  LIG1       -0.4575
     34 H          -7.1923    3.2146   -0.2512 H       1  LIG1        0.1041
     35 S          -7.3174    7.9932    1.1629 S.3     1  LIG1       -0.1378
     36 H          -8.6051    7.6911    1.4101 H       1  LIG1        0.1072
     37 S          -9.4181    5.0964    1.0511 S.3     1  LIG1       -0.1385
     38 H         -10.0569    5.4691   -0.0744 H       1  LIG1        0.1072
@<TRIPOS>BOND
     1     8     7    1
     2    27    22    1
     3    27    28    1
     4    25    26    1
     5    25    21    1
     6     9     3    1
     7     9    10    1
     8    22    21   ar
     9    22    23   ar
    10    21    20   ar
    11     7     2    1
    12    33    32   ar
    13    33    29   ar
    14     2     3   ar
    15     2     1   ar
    16     3     4   ar
    17    23    29    1
    18    23    24   ar
    19    34    32    1
    20    20    24   ar
    21    20    14    1
    22    15    14   ar
    23    15    11   ar
    24    38    37    1
    25    32    31   ar
    26    29    30   ar
    27     1     6    1
    28     1     5   ar
    29     4    11    1
    30     4     5   ar
    31    14    13   ar
    32    11    12   ar
    33    19    18    1
    34    31    30   ar
    35    31    37    1
    36    30    35    1
    37    13    12   ar
    38    13    18    1
    39    12    16    1
    40    35    36    1
    41    17    16    1
