@<TRIPOS>MOLECULE
mol_data/opt/cam/geoms/mol2/12gg12gg-12gg-12gg.out
 38 41 0 0 0
SMALL
GASTEIGER

@<TRIPOS>ATOM
      1 C           1.0505    1.6440   -0.0025 C.ar    1  LIG1        0.1069
      2 C           2.2604    1.9482    0.5301 C.ar    1  LIG1        0.0565
      3 C           2.3406    3.3851    0.5427 C.ar    1  LIG1        0.0669
      4 C           1.1668    3.8281    0.0010 C.ar    1  LIG1        0.1850
      5 O           0.3757    2.7632   -0.3303 O.2     1  LIG1       -0.4575
      6 H           0.5580    0.7049   -0.1983 H       1  LIG1        0.1041
      7 S           3.4090    0.7859    1.1938 S.3     1  LIG1       -0.1385
      8 H           4.4659    1.1549    0.4478 H       1  LIG1        0.1072
      9 S           3.6913    4.2821    1.2296 S.3     1  LIG1       -0.1378
     10 H           3.6582    5.3067    0.3536 H       1  LIG1        0.1072
     11 C           0.6094    5.1396   -0.2478 C.ar    1  LIG1        0.1860
     12 C           1.0884    6.2795   -0.8282 C.ar    1  LIG1        0.0677
     13 C           0.0281    7.2458   -0.7655 C.ar    1  LIG1        0.0677
     14 C          -1.0182    6.6127   -0.1552 C.ar    1  LIG1        0.1860
     15 O          -0.6735    5.3397    0.1634 O.2     1  LIG1       -0.4463
     16 S           2.6441    6.4704   -1.6315 S.3     1  LIG1       -0.1378
     17 H           2.7010    7.8051   -1.4721 H       1  LIG1        0.1072
     18 S           0.0961    8.8568   -1.4785 S.3     1  LIG1       -0.1378
     19 H          -0.3835    9.5273   -0.4100 H       1  LIG1        0.1072
     20 C          -2.3563    7.0365    0.1930 C.ar    1  LIG1        0.1860
     21 C          -2.8533    8.1329    0.8377 C.ar    1  LIG1        0.0677
     22 C          -4.2794    7.9670    0.8768 C.ar    1  LIG1        0.0677
     23 C          -4.5347    6.7755    0.2570 C.ar    1  LIG1        0.1860
     24 O          -3.3765    6.2078   -0.1619 O.2     1  LIG1       -0.4463
     25 S          -1.9115    9.4006    1.6162 S.3     1  LIG1       -0.1378
     26 H          -2.8821   10.3301    1.5571 H       1  LIG1        0.1072
     27 S          -5.3954    9.0461    1.7153 S.3     1  LIG1       -0.1378
     28 H          -6.2607    9.2340    0.6987 H       1  LIG1        0.1072
     29 C          -5.7625    6.0689   -0.0285 C.ar    1  LIG1        0.1850
     30 C          -6.9417    6.4473   -0.5998 C.ar    1  LIG1        0.0669
     31 C          -7.7890    5.2833   -0.5713 C.ar    1  LIG1        0.0565
     32 C          -7.0390    4.2945   -0.0191 C.ar    1  LIG1        0.1069
     33 O          -5.8204    4.7449    0.3170 O.2     1  LIG1       -0.4575
     34 H          -7.2486    3.2563    0.1848 H       1  LIG1        0.1041
     35 S          -7.3014    8.0068   -1.3252 S.3     1  LIG1       -0.1378
     36 H          -8.5853    7.7099   -1.5969 H       1  LIG1        0.1072
     37 S          -9.4270    5.1285   -1.2086 S.3     1  LIG1       -0.1385
     38 H         -10.0903    5.5267   -0.1062 H       1  LIG1        0.1072
@<TRIPOS>BOND
     1    16    17    1
     2    16    12    1
     3    36    35    1
     4    18    13    1
     5    18    19    1
     6    35    30    1
     7    37    31    1
     8    37    38    1
     9    12    13   ar
    10    12    11   ar
    11    13    14   ar
    12    30    31   ar
    13    30    29   ar
    14    31    32   ar
    15     5     1   ar
    16     5     4   ar
    17    11     4    1
    18    11    15   ar
    19     6     1    1
    20    24    20   ar
    21    24    23   ar
    22    14    15   ar
    23    14    20    1
    24    29    23    1
    25    29    33   ar
    26    32    34    1
    27    32    33   ar
    28     1     2   ar
    29     4     3   ar
    30    20    21   ar
    31    23    22   ar
    32    10     9    1
    33     8     7    1
    34     2     3   ar
    35     2     7    1
    36     3     9    1
    37    28    27    1
    38    21    22   ar
    39    21    25    1
    40    22    27    1
    41    26    25    1
