@<TRIPOS>MOLECULE
mol_data/opt/cam/geoms/mol2/12gg12gg12gg.out
 29 31 0 0 0
SMALL
GASTEIGER

@<TRIPOS>ATOM
      1 C           0.6839    1.7377    0.5705 C.ar    1  LIG1        0.1069
      2 C           1.8318    1.9020   -0.1344 C.ar    1  LIG1        0.0565
      3 C           1.9685    3.3183   -0.3416 C.ar    1  LIG1        0.0669
      4 C           0.8909    3.8944    0.2674 C.ar    1  LIG1        0.1850
      5 O           0.1021    2.9219    0.8267 O.2     1  LIG1       -0.4575
      6 H           0.1847    0.8578    0.9446 H       1  LIG1        0.1041
      7 S           2.9523    0.6233   -0.6064 S.3     1  LIG1       -0.1385
      8 H           2.7218    0.6700   -1.9319 H       1  LIG1        0.1072
      9 S           3.2735    4.0335   -1.2765 S.3     1  LIG1       -0.1378
     10 H           2.7359    5.2623   -1.3491 H       1  LIG1        0.1072
     11 C           0.4423    5.2587    0.4150 C.ar    1  LIG1        0.1860
     12 C           1.0566    6.4152    0.8023 C.ar    1  LIG1        0.0677
     13 C           0.0491    7.4414    0.7477 C.ar    1  LIG1        0.0677
     14 C          -1.1020    6.8227    0.3436 C.ar    1  LIG1        0.1860
     15 O          -0.8733    5.5087    0.1316 O.2     1  LIG1       -0.4463
     16 S           2.7273    6.6012    1.3177 S.3     1  LIG1       -0.1378
     17 H           2.5283    7.8270    1.8378 H       1  LIG1        0.1072
     18 S           0.2113    9.0991    1.3251 S.3     1  LIG1       -0.1378
     19 H           0.6863    9.6507    0.1928 H       1  LIG1        0.1072
     20 C          -2.4521    7.2844    0.1081 C.ar    1  LIG1        0.1850
     21 C          -2.9852    8.3787   -0.5099 C.ar    1  LIG1        0.0669
     22 C          -4.4142    8.2240   -0.4208 C.ar    1  LIG1        0.0565
     23 C          -4.6228    7.0462    0.2203 C.ar    1  LIG1        0.1069
     24 O          -3.4539    6.4675    0.5511 O.2     1  LIG1       -0.4575
     25 H          -5.5221    6.5180    0.4944 H       1  LIG1        0.1041
     26 S          -2.1168    9.7101   -1.2621 S.3     1  LIG1       -0.1378
     27 H          -2.9922    9.8653   -2.2726 H       1  LIG1        0.1072
     28 S          -5.6631    9.2463   -1.1301 S.3     1  LIG1       -0.1385
     29 H          -5.4846   10.3169   -0.3338 H       1  LIG1        0.1072
@<TRIPOS>BOND
     1    27    26    1
     2     8     7    1
     3    10     9    1
     4     9     3    1
     5    26    21    1
     6    28    22    1
     7    28    29    1
     8     7     2    1
     9    21    22   ar
    10    21    20   ar
    11    22    23   ar
    12     3     2   ar
    13     3     4   ar
    14     2     1   ar
    15    20    14    1
    16    20    24   ar
    17    15    14   ar
    18    15    11   ar
    19    19    18    1
    20    23    25    1
    21    23    24   ar
    22     4    11    1
    23     4     5   ar
    24    14    13   ar
    25    11    12   ar
    26     1     5   ar
    27     1     6    1
    28    13    12   ar
    29    13    18    1
    30    12    16    1
    31    16    17    1
