@<TRIPOS>MOLECULE
mol_data/opt/cam/geoms/mol2/12gg12gg-12gg12gg-.out
 38 41 0 0 0
SMALL
GASTEIGER

@<TRIPOS>ATOM
      1 C           1.3099    2.4295   -2.2598 C.ar    1  LIG1        0.1069
      2 C           2.0837    2.0477   -1.2123 C.ar    1  LIG1        0.0565
      3 C           1.9950    3.1105   -0.2479 C.ar    1  LIG1        0.0669
      4 C           1.1775    4.0542   -0.8006 C.ar    1  LIG1        0.1850
      5 O           0.7576    3.6341   -2.0370 O.2     1  LIG1       -0.4575
      6 H           1.0768    1.9519   -3.1984 H       1  LIG1        0.1041
      7 S           3.0579    0.5794   -1.1218 S.3     1  LIG1       -0.1385
      8 H           2.3415   -0.0460   -0.1688 H       1  LIG1        0.1072
      9 S           2.7741    3.0478    1.3258 S.3     1  LIG1       -0.1378
     10 H           2.1552    4.1267    1.8326 H       1  LIG1        0.1072
     11 C           0.6850    5.3348   -0.3501 C.ar    1  LIG1        0.1860
     12 C           1.2852    6.4340    0.1982 C.ar    1  LIG1        0.0677
     13 C           0.2363    7.3882    0.4332 C.ar    1  LIG1        0.0677
     14 C          -0.9134    6.8054   -0.0215 C.ar    1  LIG1        0.1860
     15 O          -0.6536    5.5634   -0.4933 O.2     1  LIG1       -0.4463
     16 S           3.0028    6.6454    0.5179 S.3     1  LIG1       -0.1378
     17 H           2.8903    7.9600    0.7833 H       1  LIG1        0.1072
     18 S           0.4389    8.9436    1.2388 S.3     1  LIG1       -0.1378
     19 H          -0.0599    9.7057    0.2444 H       1  LIG1        0.1072
     20 C          -2.2907    7.2481   -0.0827 C.ar    1  LIG1        0.1860
     21 C          -2.8953    8.3893   -0.5288 C.ar    1  LIG1        0.0677
     22 C          -4.3015    8.2128   -0.3078 C.ar    1  LIG1        0.0677
     23 C          -4.4477    6.9641    0.2256 C.ar    1  LIG1        0.1860
     24 O          -3.2271    6.3756    0.3664 O.2     1  LIG1       -0.4463
     25 S          -2.1218    9.7378   -1.3606 S.3     1  LIG1       -0.1378
     26 H          -2.7414   10.7134   -0.6703 H       1  LIG1        0.1072
     27 S          -5.5059    9.4492   -0.6519 S.3     1  LIG1       -0.1378
     28 H          -6.4215    9.0025    0.2239 H       1  LIG1        0.1072
     29 C          -5.5916    6.2012    0.6663 C.ar    1  LIG1        0.1850
     30 C          -6.8234    5.9490    0.1312 C.ar    1  LIG1        0.0669
     31 C          -7.4989    5.1008    1.0811 C.ar    1  LIG1        0.0565
     32 C          -6.6145    4.8906    2.0894 C.ar    1  LIG1        0.1069
     33 O          -5.4662    5.5489    1.8660 O.2     1  LIG1       -0.4575
     34 H          -6.6749    4.3075    2.9948 H       1  LIG1        0.1041
     35 S          -7.4535    6.5092   -1.4111 S.3     1  LIG1       -0.1378
     36 H          -8.4362    5.5896   -1.4487 H       1  LIG1        0.1072
     37 S          -9.0844    4.3457    0.9213 S.3     1  LIG1       -0.1385
     38 H          -9.8321    5.4232    1.2271 H       1  LIG1        0.1072
@<TRIPOS>BOND
     1     6     1    1
     2     1     5   ar
     3     1     2   ar
     4     5     4   ar
     5    36    35    1
     6    35    30    1
     7    25    26    1
     8    25    21    1
     9     2     7    1
    10     2     3   ar
    11     7     8    1
    12     4    11    1
    13     4     3   ar
    14    27    22    1
    15    27    28    1
    16    21    22   ar
    17    21    20   ar
    18    15    11   ar
    19    15    14   ar
    20    11    12   ar
    21    22    23   ar
    22     3     9    1
    23    20    14    1
    24    20    24   ar
    25    14    13   ar
    26    30    29   ar
    27    30    31   ar
    28    12    13   ar
    29    12    16    1
    30    23    24   ar
    31    23    29    1
    32    19    18    1
    33    13    18    1
    34    16    17    1
    35    29    33   ar
    36    37    31    1
    37    37    38    1
    38    31    32   ar
    39     9    10    1
    40    33    32   ar
    41    32    34    1
