@<TRIPOS>MOLECULE
mol_data/opt/cam/geoms/mol2/12gg12gg-12gg-.out
 29 31 0 0 0
SMALL
GASTEIGER

@<TRIPOS>ATOM
      1 C           0.6581    1.9686    1.2407 C.ar    1  LIG1        0.1069
      2 C           1.6471    1.8361    0.3216 C.ar    1  LIG1        0.0565
      3 C           1.7727    3.1200   -0.3163 C.ar    1  LIG1        0.0669
      4 C           0.8490    3.9273    0.2856 C.ar    1  LIG1        0.1850
      5 O           0.1649    3.2220    1.2376 O.2     1  LIG1       -0.4575
      6 H           0.2183    1.2750    1.9395 H       1  LIG1        0.1041
      7 S           2.4821    0.3346   -0.0768 S.3     1  LIG1       -0.1385
      8 H           3.7326    0.7769    0.1477 H       1  LIG1        0.1072
      9 S           2.8705    3.4392   -1.6552 S.3     1  LIG1       -0.1378
     10 H           3.1265    4.7253   -1.3424 H       1  LIG1        0.1072
     11 C           0.4517    5.3057    0.1024 C.ar    1  LIG1        0.1860
     12 C           1.1297    6.4846   -0.0027 C.ar    1  LIG1        0.0677
     13 C           0.1384    7.5073   -0.1986 C.ar    1  LIG1        0.0677
     14 C          -1.0711    6.8705   -0.1689 C.ar    1  LIG1        0.1860
     15 O          -0.8912    5.5427    0.0141 O.2     1  LIG1       -0.4463
     16 S           2.8641    6.7212    0.1752 S.3     1  LIG1       -0.1378
     17 H           2.8923    7.8781   -0.5122 H       1  LIG1        0.1072
     18 S           0.4411    9.1956   -0.6043 S.3     1  LIG1       -0.1378
     19 H           0.6144    9.6640    0.6457 H       1  LIG1        0.1072
     20 C          -2.4399    7.3200   -0.2896 C.ar    1  LIG1        0.1850
     21 C          -3.1388    8.3790    0.2139 C.ar    1  LIG1        0.0669
     22 C          -4.4856    8.2294   -0.2735 C.ar    1  LIG1        0.0565
     23 C          -4.4919    7.0883   -1.0083 C.ar    1  LIG1        0.1069
     24 O          -3.2693    6.5288   -1.0347 O.2     1  LIG1       -0.4575
     25 H          -5.2734    6.5761   -1.5468 H       1  LIG1        0.1041
     26 S          -2.5329    9.6672    1.2459 S.3     1  LIG1       -0.1378
     27 H          -3.6701    9.7891    1.9553 H       1  LIG1        0.1072
     28 S          -5.8965    9.2121    0.1161 S.3     1  LIG1       -0.1385
     29 H          -5.5322   10.3172   -0.5607 H       1  LIG1        0.1072
@<TRIPOS>BOND
     1     9    10    1
     2     9     3    1
     3    25    23    1
     4    24    23   ar
     5    24    20   ar
     6    23    22   ar
     7    18    13    1
     8    18    19    1
     9    29    28    1
    10    17    16    1
    11     3     4   ar
    12     3     2   ar
    13    20    14    1
    14    20    21   ar
    15    22    28    1
    16    22    21   ar
    17    13    14   ar
    18    13    12   ar
    19    14    15   ar
    20     7     8    1
    21     7     2    1
    22    12    11   ar
    23    12    16    1
    24    15    11   ar
    25    11     4    1
    26    21    26    1
    27     4     5   ar
    28     2     1   ar
    29     5     1   ar
    30     1     6    1
    31    26    27    1
