@<TRIPOS>MOLECULE
mol_data/opt/cam/geoms/mol2/12gg12gg-12gg-12gg-.out
 38 41 0 0 0
SMALL
GASTEIGER

@<TRIPOS>ATOM
      1 C           1.0676    1.6732   -0.1497 C.ar    1  LIG1        0.1069
      2 C           2.2971    1.9629    0.3465 C.ar    1  LIG1        0.0565
      3 C           2.3986    3.3992    0.3443 C.ar    1  LIG1        0.0669
      4 C           1.2111    3.8557   -0.1559 C.ar    1  LIG1        0.1850
      5 O           0.4025    2.7958   -0.4722 O.2     1  LIG1       -0.4575
      6 H           0.5617    0.7379   -0.3298 H       1  LIG1        0.1041
      7 S           3.5223    0.7758    0.7974 S.3     1  LIG1       -0.1385
      8 H           3.4889    0.9791    2.1275 H       1  LIG1        0.1072
      9 S           3.7802    4.2736    0.9931 S.3     1  LIG1       -0.1378
     10 H           3.6296    5.3832    0.2440 H       1  LIG1        0.1072
     11 C           0.6437    5.1689   -0.3699 C.ar    1  LIG1        0.1860
     12 C           1.1010    6.3239   -0.9381 C.ar    1  LIG1        0.0677
     13 C           0.0342    7.2798   -0.8342 C.ar    1  LIG1        0.0677
     14 C          -0.9939    6.6267   -0.2146 C.ar    1  LIG1        0.1860
     15 O          -0.6324    5.3515    0.0730 O.2     1  LIG1       -0.4463
     16 S           2.6417    6.5490   -1.7613 S.3     1  LIG1       -0.1378
     17 H           2.6595    7.8863   -1.6142 H       1  LIG1        0.1072
     18 S           0.0714    8.9043   -1.5186 S.3     1  LIG1       -0.1378
     19 H          -0.3748    9.5530   -0.4226 H       1  LIG1        0.1072
     20 C          -2.3276    7.0339    0.1690 C.ar    1  LIG1        0.1860
     21 C          -2.8176    8.1132    0.8468 C.ar    1  LIG1        0.0677
     22 C          -4.2417    7.9381    0.9106 C.ar    1  LIG1        0.0677
     23 C          -4.5027    6.7585    0.2704 C.ar    1  LIG1        0.1860
     24 O          -3.3500    6.2067   -0.1833 O.2     1  LIG1       -0.4463
     25 S          -1.8671    9.3694    1.6334 S.3     1  LIG1       -0.1378
     26 H          -2.8440   10.2940    1.6150 H       1  LIG1        0.1072
     27 S          -5.3469    8.9922    1.7939 S.3     1  LIG1       -0.1378
     28 H          -6.2323    9.1983    0.7984 H       1  LIG1        0.1072
     29 C          -5.7322    6.0514   -0.0065 C.ar    1  LIG1        0.1850
     30 C          -6.9240    6.4356   -0.5469 C.ar    1  LIG1        0.0669
     31 C          -7.7648    5.2666   -0.5272 C.ar    1  LIG1        0.0565
     32 C          -6.9994    4.2704   -0.0109 C.ar    1  LIG1        0.1069
     33 O          -5.7768    4.7200    0.3116 O.2     1  LIG1       -0.4575
     34 H          -7.1999    3.2268    0.1744 H       1  LIG1        0.1041
     35 S          -7.3054    8.0083   -1.2315 S.3     1  LIG1       -0.1378
     36 H          -8.5924    7.7099   -1.4864 H       1  LIG1        0.1072
     37 S          -9.4139    5.1165   -1.1367 S.3     1  LIG1       -0.1385
     38 H         -10.0580    5.4888   -0.0140 H       1  LIG1        0.1072
@<TRIPOS>BOND
     1    16    17    1
     2    16    12    1
     3    18    13    1
     4    18    19    1
     5    36    35    1
     6    35    30    1
     7    37    31    1
     8    37    38    1
     9    12    13   ar
    10    12    11   ar
    11    13    14   ar
    12    30    31   ar
    13    30    29   ar
    14    31    32   ar
    15     5     4   ar
    16     5     1   ar
    17    11     4    1
    18    11    15   ar
    19     6     1    1
    20    14    15   ar
    21    14    20    1
    22    24    20   ar
    23    24    23   ar
    24     4     3   ar
    25     1     2   ar
    26    32    34    1
    27    32    33   ar
    28    29    23    1
    29    29    33   ar
    30    20    21   ar
    31    10     9    1
    32    23    22   ar
    33     3     2   ar
    34     3     9    1
    35     2     7    1
    36     7     8    1
    37    28    27    1
    38    21    22   ar
    39    21    25    1
    40    22    27    1
    41    26    25    1
