@<TRIPOS>MOLECULE
mol_data/opt/cam/geoms/mol2/12gg.out
 11 11 0 0 0
SMALL
GASTEIGER

@<TRIPOS>ATOM
      1 C           0.0854    1.9038   -0.0000 C.ar    1  LIG1        0.1059
      2 C           1.4425    1.8943   -0.0001 C.ar    1  LIG1        0.0557
      3 C           1.8419    3.2767   -0.0001 C.ar    1  LIG1        0.0557
      4 C           0.6920    3.9968   -0.0001 C.ar    1  LIG1        0.1059
      5 O          -0.3838    3.1747   -0.0000 O.2     1  LIG1       -0.4688
      6 H          -0.6521    1.1178    0.0000 H       1  LIG1        0.1041
      7 H           0.4893    5.0556   -0.0001 H       1  LIG1        0.1041
      8 S           2.4570    0.4474   -0.0001 S.3     1  LIG1       -0.1386
      9 H           3.6354    1.0897    0.0005 H       1  LIG1        0.1072
     10 S           3.5174    3.8327   -0.0002 S.3     1  LIG1       -0.1386
     11 H           3.2403    5.1457    0.0001 H       1  LIG1        0.1072
@<TRIPOS>BOND
     1    10     3    1
     2    10    11    1
     3     7     4    1
     4     3     4   ar
     5     3     2   ar
     6     4     5   ar
     7     8     2    1
     8     8     9    1
     9     2     1   ar
    10     5     1   ar
    11     1     6    1
