@<TRIPOS>MOLECULE
mol_data/opt/cam/geoms/mol2/12gg12gg-12gg.out
 29 31 0 0 0
SMALL
GASTEIGER

@<TRIPOS>ATOM
      1 C           0.6428    1.9625    1.2316 C.ar    1  LIG1        0.1069
      2 C           1.7227    1.8633    0.4154 C.ar    1  LIG1        0.0565
      3 C           1.9348    3.1807   -0.1252 C.ar    1  LIG1        0.0669
      4 C           0.9544    3.9666    0.4136 C.ar    1  LIG1        0.1850
      5 O           0.1737    3.2219    1.2566 O.2     1  LIG1       -0.4575
      6 H           0.1282    1.2386    1.8434 H       1  LIG1        0.1041
      7 S           2.6945    0.4085    0.1855 S.3     1  LIG1       -0.1385
      8 H           2.3521    0.1631   -1.0926 H       1  LIG1        0.1072
      9 S           3.1666    3.5607   -1.3223 S.3     1  LIG1       -0.1378
     10 H           3.3905    4.8234   -0.9065 H       1  LIG1        0.1072
     11 C           0.5526    5.3478    0.2501 C.ar    1  LIG1        0.1860
     12 C           1.2137    6.5442    0.2258 C.ar    1  LIG1        0.0677
     13 C           0.2167    7.5544    0.0179 C.ar    1  LIG1        0.0677
     14 C          -0.9807    6.9009   -0.0356 C.ar    1  LIG1        0.1860
     15 O          -0.7803    5.5604    0.0993 O.2     1  LIG1       -0.4463
     16 S           2.9292    6.8124    0.5329 S.3     1  LIG1       -0.1378
     17 H           3.1162    7.7068   -0.4558 H       1  LIG1        0.1072
     18 S           0.5833    9.2666   -0.1638 S.3     1  LIG1       -0.1378
     19 H          -0.5085    9.5704   -0.8855 H       1  LIG1        0.1072
     20 C          -2.3434    7.3391   -0.2234 C.ar    1  LIG1        0.1850
     21 C          -3.0941    8.3504    0.3067 C.ar    1  LIG1        0.0669
     22 C          -4.3952    8.2365   -0.3034 C.ar    1  LIG1        0.0565
     23 C          -4.3303    7.1566   -1.1234 C.ar    1  LIG1        0.1069
     24 O          -3.1055    6.6079   -1.0985 O.2     1  LIG1       -0.4575
     25 H          -5.0641    6.6850   -1.7580 H       1  LIG1        0.1041
     26 S          -2.5973    9.5319    1.5097 S.3     1  LIG1       -0.1378
     27 H          -3.8597    9.8718    1.8321 H       1  LIG1        0.1072
     28 S          -5.8394    9.1879    0.0418 S.3     1  LIG1       -0.1385
     29 H          -5.5131   10.2824   -0.6716 H       1  LIG1        0.1072
@<TRIPOS>BOND
     1    25    23    1
     2     9    10    1
     3     9     3    1
     4    23    24   ar
     5    23    22   ar
     6    24    20   ar
     7     8     7    1
     8    19    18    1
     9    29    28    1
    10    17    16    1
    11    22    28    1
    12    22    21   ar
    13    20    14    1
    14    20    21   ar
    15    18    13    1
    16     3     4   ar
    17     3     2   ar
    18    14    13   ar
    19    14    15   ar
    20    13    12   ar
    21    15    11   ar
    22     7     2    1
    23    12    11   ar
    24    12    16    1
    25    11     4    1
    26    21    26    1
    27     4     5   ar
    28     2     1   ar
    29     1     5   ar
    30     1     6    1
    31    26    27    1
