@<TRIPOS>MOLECULE
mol_data/opt/cam/geoms/mol2/12gg12gg-.out
 20 21 0 0 0
SMALL
GASTEIGER

@<TRIPOS>ATOM
      1 C           0.4077    1.8414    0.6734 C.ar    1  LIG1        0.1069
      2 C           1.6744    1.8885    0.1888 C.ar    1  LIG1        0.0565
      3 C           1.9105    3.2622   -0.1642 C.ar    1  LIG1        0.0669
      4 C           0.7644    3.9350    0.1467 C.ar    1  LIG1        0.1849
      5 O          -0.1584    3.0606    0.6614 O.2     1  LIG1       -0.4575
      6 H          -0.1921    1.0285    1.0513 H       1  LIG1        0.1041
      7 S           2.8059    0.5370    0.1072 S.3     1  LIG1       -0.1385
      8 H           2.8360    0.4156   -1.2332 H       1  LIG1        0.1072
      9 S           3.4001    3.8259   -0.9078 S.3     1  LIG1       -0.1378
     10 H           2.9384    5.0444   -1.2345 H       1  LIG1        0.1072
     11 C           0.3610    5.3171    0.0330 C.ar    1  LIG1        0.1849
     12 C           0.9404    6.4990    0.3963 C.ar    1  LIG1        0.0669
     13 C           0.0207    7.5328   -0.0078 C.ar    1  LIG1        0.0565
     14 C          -1.0451    6.8914   -0.5512 C.ar    1  LIG1        0.1069
     15 O          -0.8584    5.5616   -0.5471 O.2     1  LIG1       -0.4575
     16 H          -1.9749    7.2534   -0.9609 H       1  LIG1        0.1041
     17 S           2.4819    6.7168    1.2146 S.3     1  LIG1       -0.1378
     18 H           2.2204    7.9864    1.5775 H       1  LIG1        0.1072
     19 S           0.1510    9.2688    0.2751 S.3     1  LIG1       -0.1385
     20 H           1.0124    9.5541   -0.7200 H       1  LIG1        0.1072
@<TRIPOS>BOND
     1    10     9    1
     2     8     7    1
     3    16    14    1
     4     9     3    1
     5    20    19    1
     6    14    15   ar
     7    14    13   ar
     8    15    11   ar
     9     3     4   ar
    10     3     2   ar
    11    13    19    1
    12    13    12   ar
    13    11     4    1
    14    11    12   ar
    15     7     2    1
    16     4     5   ar
    17     2     1   ar
    18    12    17    1
    19     5     1   ar
    20     1     6    1
    21    17    18    1
