@<TRIPOS>MOLECULE
mol_data/opt/cam/geoms/mol2/12gg12gg.out
 20 21 0 0 0
SMALL
GASTEIGER

@<TRIPOS>ATOM
      1 C           0.4056    1.8414    0.6746 C.ar    1  LIG1        0.1069
      2 C           1.6746    1.8888    0.1958 C.ar    1  LIG1        0.0565
      3 C           1.9118    3.2624   -0.1567 C.ar    1  LIG1        0.0669
      4 C           0.7641    3.9350    0.1487 C.ar    1  LIG1        0.1849
      5 O          -0.1608    3.0605    0.6596 O.2     1  LIG1       -0.4575
      6 H          -0.1955    1.0285    1.0501 H       1  LIG1        0.1041
      7 S           2.8068    0.5376    0.1198 S.3     1  LIG1       -0.1385
      8 H           2.8431    0.4157   -1.2204 H       1  LIG1        0.1072
      9 S           3.4046    3.8264   -0.8938 S.3     1  LIG1       -0.1378
     10 H           2.9438    5.0446   -1.2231 H       1  LIG1        0.1072
     11 C           0.3607    5.3169    0.0327 C.ar    1  LIG1        0.1849
     12 C           0.9380    6.4991    0.3982 C.ar    1  LIG1        0.0669
     13 C           0.0198    7.5325   -0.0105 C.ar    1  LIG1        0.0565
     14 C          -1.0432    6.8905   -0.5585 C.ar    1  LIG1        0.1069
     15 O          -0.8561    5.5608   -0.5531 O.2     1  LIG1       -0.4575
     16 H          -1.9713    7.2520   -0.9725 H       1  LIG1        0.1041
     17 S           2.4757    6.7178    1.2234 S.3     1  LIG1       -0.1378
     18 H           2.2122    7.9874    1.5846 H       1  LIG1        0.1072
     19 S           0.1482    9.2686    0.2723 S.3     1  LIG1       -0.1385
     20 H           1.0141    9.5539   -0.7189 H       1  LIG1        0.1072
@<TRIPOS>BOND
     1    10     9    1
     2     8     7    1
     3    16    14    1
     4     9     3    1
     5    20    19    1
     6    14    15   ar
     7    14    13   ar
     8    15    11   ar
     9     3     4   ar
    10     3     2   ar
    11    13    19    1
    12    13    12   ar
    13    11     4    1
    14    11    12   ar
    15     7     2    1
    16     4     5   ar
    17     2     1   ar
    18    12    17    1
    19     5     1   ar
    20     1     6    1
    21    17    18    1
