@<TRIPOS>MOLECULE
mol_data/opt/cam/geoms/mol2/12gh12gh-12gh12gh.out
 42 45 0 0 0
SMALL
GASTEIGER

@<TRIPOS>ATOM
      1 C           0.2876    1.9912   -1.0577 C.ar    1  LIG1        0.1077
      2 C           1.5686    1.8816   -0.6199 C.ar    1  LIG1        0.0640
      3 C           1.9838    3.2059   -0.2397 C.ar    1  LIG1        0.0874
      4 C           0.8981    4.0176   -0.4799 C.ar    1  LIG1        0.1924
      5 O          -0.1366    3.2540   -0.9853 O.2     1  LIG1       -0.4568
      6 H          -0.4081    1.2626   -1.4441 H       1  LIG1        0.1041
      7 S           2.5727    0.4325   -0.6144 S.3     1  LIG1       -0.1378
      8 H           2.4878    0.1457    0.6990 H       1  LIG1        0.1073
      9 N           3.2085    3.4880    0.3137 N.pl3   1  LIG1       -0.3541
     10 H           3.9088    2.7872    0.1097 H       1  LIG1        0.1425
     11 H           3.5327    4.4384    0.1919 H       1  LIG1        0.1425
     12 C           0.5808    5.4098   -0.2927 C.ar    1  LIG1        0.1875
     13 C           1.3005    6.5647   -0.0821 C.ar    1  LIG1        0.0752
     14 C           0.3510    7.6379    0.0042 C.ar    1  LIG1        0.0882
     15 C          -0.8864    7.0644   -0.1655 C.ar    1  LIG1        0.1935
     16 O          -0.7272    5.7045   -0.3432 O.2     1  LIG1       -0.4455
     17 S           3.0448    6.8111   -0.0570 S.3     1  LIG1       -0.1371
     18 H           3.2082    6.9959    1.2693 H       1  LIG1        0.1073
     19 N           0.7006    8.9398    0.2730 N.pl3   1  LIG1       -0.3541
     20 H           1.6566    9.1557    0.0224 H       1  LIG1        0.1425
     21 H           0.0354    9.6355   -0.0396 H       1  LIG1        0.1425
     22 C          -2.2525    7.5136   -0.1555 C.ar    1  LIG1        0.1875
     23 C          -2.8939    8.7295   -0.2550 C.ar    1  LIG1        0.0752
     24 C          -4.3030    8.4647   -0.1831 C.ar    1  LIG1        0.0882
     25 C          -4.4273    7.1052   -0.0533 C.ar    1  LIG1        0.1934
     26 O          -3.1691    6.5386   -0.0364 O.2     1  LIG1       -0.4455
     27 S          -2.2251   10.3311   -0.5562 S.3     1  LIG1       -0.1371
     28 H          -2.3669   10.8534    0.6797 H       1  LIG1        0.1073
     29 N          -5.2692    9.4473   -0.1805 N.pl3   1  LIG1       -0.3541
     30 H          -4.9551   10.3061   -0.6143 H       1  LIG1        0.1425
     31 H          -6.1728    9.1451   -0.5235 H       1  LIG1        0.1425
     32 C          -5.5175    6.1799    0.1195 C.ar    1  LIG1        0.1865
     33 C          -6.8643    6.1887   -0.1604 C.ar    1  LIG1        0.0745
     34 C          -7.3828    4.9171    0.2687 C.ar    1  LIG1        0.0769
     35 C          -6.3239    4.2348    0.7695 C.ar    1  LIG1        0.1144
     36 O          -5.1899    4.9993    0.6843 O.2     1  LIG1       -0.4567
     37 H          -6.2052    3.2561    1.2032 H       1  LIG1        0.1049
     38 S          -7.8120    7.3937   -1.0297 S.3     1  LIG1       -0.1371
     39 H          -8.5768    7.8241   -0.0054 H       1  LIG1        0.1073
     40 N          -8.7265    4.5593    0.2045 N.pl3   1  LIG1       -0.3547
     41 H          -9.1907    4.9562   -0.6035 H       1  LIG1        0.1424
     42 H          -8.8848    3.5625    0.2547 H       1  LIG1        0.1424
@<TRIPOS>BOND
     1     6     1    1
     2     1     5   ar
     3     1     2   ar
     4    38    33    1
     5    38    39    1
     6     5     4   ar
     7     2     7    1
     8     2     3   ar
     9     7     8    1
    10    30    29    1
    11    41    40    1
    12    27    23    1
    13    27    28    1
    14    31    29    1
    15     4    12    1
    16     4     3   ar
    17    16    12   ar
    18    16    15   ar
    19    12    13   ar
    20    23    24   ar
    21    23    22   ar
    22     3     9    1
    23    24    29    1
    24    24    25   ar
    25    15    22    1
    26    15    14   ar
    27    33    32   ar
    28    33    34   ar
    29    22    26   ar
    30    13    17    1
    31    13    14   ar
    32    17    18    1
    33    25    26   ar
    34    25    32    1
    35    21    19    1
    36    14    19    1
    37    20    19    1
    38    10     9    1
    39    32    36   ar
    40    11     9    1
    41    40    42    1
    42    40    34    1
    43    34    35   ar
    44    36    35   ar
    45    35    37    1
