@<TRIPOS>MOLECULE
mol_data/opt/cam/geoms/mol2/12gh12gh-12gh.out
 32 34 0 0 0
SMALL
GASTEIGER

@<TRIPOS>ATOM
      1 C           0.2966    1.9032   -0.7220 C.ar    1  LIG1        0.1077
      2 C           1.6018    1.8558   -0.3496 C.ar    1  LIG1        0.0640
      3 C           2.0041    3.2149   -0.1007 C.ar    1  LIG1        0.0874
      4 C           0.8884    3.9819   -0.3446 C.ar    1  LIG1        0.1924
      5 O          -0.1538    3.1598   -0.7280 O.2     1  LIG1       -0.4568
      6 H          -0.4009    1.1316   -1.0087 H       1  LIG1        0.1041
      7 S           2.6396    0.4321   -0.2834 S.3     1  LIG1       -0.1378
      8 H           2.6284    0.2486    1.0510 H       1  LIG1        0.1073
      9 N           3.2494    3.5688    0.3613 N.pl3   1  LIG1       -0.3541
     10 H           3.9544    2.8673    0.1759 H       1  LIG1        0.1425
     11 H           3.5434    4.5090    0.1301 H       1  LIG1        0.1425
     12 C           0.5511    5.3794   -0.2488 C.ar    1  LIG1        0.1875
     13 C           1.2565    6.5601   -0.2089 C.ar    1  LIG1        0.0752
     14 C           0.2911    7.6198   -0.1188 C.ar    1  LIG1        0.0882
     15 C          -0.9384    7.0122   -0.1193 C.ar    1  LIG1        0.1934
     16 O          -0.7647    5.6455   -0.1977 O.2     1  LIG1       -0.4455
     17 S           2.9888    6.8336   -0.3786 S.3     1  LIG1       -0.1371
     18 H           3.2677    7.1715    0.8973 H       1  LIG1        0.1073
     19 N           0.6247    8.9504    0.0099 N.pl3   1  LIG1       -0.3541
     20 H           1.5444    9.1610   -0.3564 H       1  LIG1        0.1425
     21 H          -0.0839    9.5933   -0.3218 H       1  LIG1        0.1425
     22 C          -2.3073    7.4476   -0.0065 C.ar    1  LIG1        0.1865
     23 C          -2.9848    8.6232   -0.2319 C.ar    1  LIG1        0.0745
     24 C          -4.3668    8.3680    0.0767 C.ar    1  LIG1        0.0769
     25 C          -4.4277    7.0689    0.4593 C.ar    1  LIG1        0.1144
     26 O          -3.1786    6.5072    0.4138 O.2     1  LIG1       -0.4567
     27 H          -5.2276    6.4229    0.7798 H       1  LIG1        0.1049
     28 S          -2.3954   10.1328   -0.9246 S.3     1  LIG1       -0.1371
     29 H          -2.5040   10.9112    0.1715 H       1  LIG1        0.1073
     30 N          -5.3689    9.3324    0.0270 N.pl3   1  LIG1       -0.3547
     31 H          -5.2192   10.0048   -0.7155 H       1  LIG1        0.1424
     32 H          -6.3024    8.9482   -0.0196 H       1  LIG1        0.1424
@<TRIPOS>BOND
     1     6     1    1
     2    28    23    1
     3    28    29    1
     4     5     1   ar
     5     5     4   ar
     6     1     2   ar
     7    31    30    1
     8    17    13    1
     9    17    18    1
    10    20    19    1
    11     2     7    1
    12     2     3   ar
    13     4    12    1
    14     4     3   ar
    15    21    19    1
    16     7     8    1
    17    12    13   ar
    18    12    16   ar
    19    23    22   ar
    20    23    24   ar
    21    13    14   ar
    22    16    15   ar
    23    15    14   ar
    24    15    22    1
    25    14    19    1
    26     3     9    1
    27    32    30    1
    28    22    26   ar
    29    30    24    1
    30    24    25   ar
    31    11     9    1
    32    10     9    1
    33    26    25   ar
    34    25    27    1
