@<TRIPOS>MOLECULE
mol_data/opt/cam/geoms/mol2/12gh12gh-12gh12gh-.out
 42 45 0 0 0
SMALL
GASTEIGER

@<TRIPOS>ATOM
      1 C           0.2833    1.9776   -1.0146 C.ar    1  LIG1        0.1077
      2 C           1.5638    1.8712   -0.5747 C.ar    1  LIG1        0.0640
      3 C           1.9804    3.1991   -0.2089 C.ar    1  LIG1        0.0874
      4 C           0.8960    4.0095   -0.4587 C.ar    1  LIG1        0.1924
      5 O          -0.1393    3.2417   -0.9565 O.2     1  LIG1       -0.4568
      6 H          -0.4131    1.2458   -1.3936 H       1  LIG1        0.1041
      7 S           2.5659    0.4210   -0.5526 S.3     1  LIG1       -0.1378
      8 H           2.4797    0.1487    0.7638 H       1  LIG1        0.1073
      9 N           3.2052    3.4856    0.3424 N.pl3   1  LIG1       -0.3541
     10 H           3.9047    2.7817    0.1466 H       1  LIG1        0.1425
     11 H           3.5308    4.4342    0.2103 H       1  LIG1        0.1425
     12 C           0.5804    5.4040   -0.2871 C.ar    1  LIG1        0.1875
     13 C           1.3015    6.5603   -0.0888 C.ar    1  LIG1        0.0752
     14 C           0.3534    7.6356   -0.0149 C.ar    1  LIG1        0.0882
     15 C          -0.8846    7.0619   -0.1791 C.ar    1  LIG1        0.1935
     16 O          -0.7272    5.6999   -0.3417 O.2     1  LIG1       -0.4455
     17 S           3.0461    6.8047   -0.0653 S.3     1  LIG1       -0.1371
     18 H           3.2089    7.0039    1.2590 H       1  LIG1        0.1073
     19 N           0.7045    8.9400    0.2397 N.pl3   1  LIG1       -0.3541
     20 H           1.6610    9.1519   -0.0127 H       1  LIG1        0.1425
     21 H           0.0404    9.6331   -0.0810 H       1  LIG1        0.1425
     22 C          -2.2501    7.5130   -0.1750 C.ar    1  LIG1        0.1875
     23 C          -2.8899    8.7285   -0.2882 C.ar    1  LIG1        0.0752
     24 C          -4.2994    8.4664   -0.2144 C.ar    1  LIG1        0.0882
     25 C          -4.4256    7.1085   -0.0699 C.ar    1  LIG1        0.1934
     26 O          -3.1681    6.5405   -0.0459 O.2     1  LIG1       -0.4455
     27 S          -2.2189   10.3259   -0.6064 S.3     1  LIG1       -0.1371
     28 H          -2.3608   10.8619    0.6236 H       1  LIG1        0.1073
     29 N          -5.2644    9.4502   -0.2233 N.pl3   1  LIG1       -0.3541
     30 H          -4.9488   10.3038   -0.6661 H       1  LIG1        0.1425
     31 H          -6.1681    9.1454   -0.5636 H       1  LIG1        0.1425
     32 C          -5.5171    6.1867    0.1123 C.ar    1  LIG1        0.1865
     33 C          -6.8637    6.1941   -0.1687 C.ar    1  LIG1        0.0745
     34 C          -7.3841    4.9279    0.2739 C.ar    1  LIG1        0.0769
     35 C          -6.3265    4.2498    0.7829 C.ar    1  LIG1        0.1144
     36 O          -5.1915    5.0119    0.6902 O.2     1  LIG1       -0.4567
     37 H          -6.2094    3.2758    1.2274 H       1  LIG1        0.1049
     38 S          -7.8092    7.3907   -1.0518 S.3     1  LIG1       -0.1371
     39 H          -8.5742    7.8333   -0.0329 H       1  LIG1        0.1073
     40 N          -8.7283    4.5712    0.2127 N.pl3   1  LIG1       -0.3547
     41 H          -9.1914    4.9599   -0.6000 H       1  LIG1        0.1424
     42 H          -8.8879    3.5753    0.2737 H       1  LIG1        0.1424
@<TRIPOS>BOND
     1     6     1    1
     2    38    33    1
     3    38    39    1
     4     1     5   ar
     5     1     2   ar
     6     5     4   ar
     7    30    29    1
     8    27    23    1
     9    27    28    1
    10    41    40    1
    11     2     7    1
    12     2     3   ar
    13    31    29    1
    14     7     8    1
    15     4    12    1
    16     4     3   ar
    17    16    12   ar
    18    16    15   ar
    19    23    24   ar
    20    23    22   ar
    21    12    13   ar
    22    29    24    1
    23    24    25   ar
    24     3     9    1
    25    15    22    1
    26    15    14   ar
    27    22    26   ar
    28    33    32   ar
    29    33    34   ar
    30    13    17    1
    31    13    14   ar
    32    21    19    1
    33    25    26   ar
    34    25    32    1
    35    17    18    1
    36    14    19    1
    37    20    19    1
    38    32    36   ar
    39    10     9    1
    40    11     9    1
    41    40    42    1
    42    40    34    1
    43    34    35   ar
    44    36    35   ar
    45    35    37    1
