@<TRIPOS>MOLECULE
mol_data/opt/cam/geoms/mol2/12gh12gh12gh-.out
 32 34 0 0 0
SMALL
GASTEIGER

@<TRIPOS>ATOM
      1 C           0.2879    1.8860   -0.6231 C.ar    1  LIG1        0.1077
      2 C           1.5966    1.8481   -0.2621 C.ar    1  LIG1        0.0640
      3 C           2.0023    3.2135   -0.0564 C.ar    1  LIG1        0.0874
      4 C           0.8847    3.9742   -0.3116 C.ar    1  LIG1        0.1924
      5 O          -0.1617    3.1424   -0.6611 O.2     1  LIG1       -0.4568
      6 H          -0.4128    1.1071   -0.8807 H       1  LIG1        0.1041
      7 S           2.6341    0.4260   -0.1648 S.3     1  LIG1       -0.1378
      8 H           2.6356    0.2811    1.1744 H       1  LIG1        0.1073
      9 N           3.2522    3.5795    0.3833 N.pl3   1  LIG1       -0.3541
     10 H           3.9548    2.8723    0.2114 H       1  LIG1        0.1425
     11 H           3.5446    4.5123    0.1221 H       1  LIG1        0.1425
     12 C           0.5493    5.3742   -0.2529 C.ar    1  LIG1        0.1875
     13 C           1.2558    6.5549   -0.2540 C.ar    1  LIG1        0.0752
     14 C           0.2920    7.6176   -0.1853 C.ar    1  LIG1        0.0882
     15 C          -0.9378    7.0114   -0.1564 C.ar    1  LIG1        0.1934
     16 O          -0.7658    5.6429   -0.1969 O.2     1  LIG1       -0.4455
     17 S           2.9866    6.8218   -0.4482 S.3     1  LIG1       -0.1371
     18 H           3.2780    7.1961    0.8146 H       1  LIG1        0.1073
     19 N           0.6277    8.9511   -0.0983 N.pl3   1  LIG1       -0.3541
     20 H           1.5440    9.1502   -0.4793 H       1  LIG1        0.1425
     21 H          -0.0836    9.5848   -0.4416 H       1  LIG1        0.1425
     22 C          -2.3053    7.4512   -0.0431 C.ar    1  LIG1        0.1865
     23 C          -2.9841    8.6204   -0.2958 C.ar    1  LIG1        0.0745
     24 C          -4.3633    8.3756    0.0333 C.ar    1  LIG1        0.0769
     25 C          -4.4213    7.0881    0.4538 C.ar    1  LIG1        0.1144
     26 O          -3.1731    6.5242    0.4126 O.2     1  LIG1       -0.4567
     27 H          -5.2186    6.4524    0.8005 H       1  LIG1        0.1049
     28 S          -2.4004   10.1088   -1.0375 S.3     1  LIG1       -0.1371
     29 H          -2.4979   10.9187    0.0367 H       1  LIG1        0.1073
     30 N          -5.3652    9.3391   -0.0346 N.pl3   1  LIG1       -0.3547
     31 H          -5.2221    9.9897   -0.7976 H       1  LIG1        0.1424
     32 H          -6.2993    8.9546   -0.0611 H       1  LIG1        0.1424
@<TRIPOS>BOND
     1    28    23    1
     2    28    29    1
     3     6     1    1
     4    31    30    1
     5     5     1   ar
     6     5     4   ar
     7     1     2   ar
     8    20    19    1
     9    17    13    1
    10    17    18    1
    11    21    19    1
    12     4    12    1
    13     4     3   ar
    14    23    22   ar
    15    23    24   ar
    16     2     7    1
    17     2     3   ar
    18    13    12   ar
    19    13    14   ar
    20    12    16   ar
    21    16    15   ar
    22    14    15   ar
    23    14    19    1
    24     7     8    1
    25    15    22    1
    26    32    30    1
    27     3     9    1
    28    22    26   ar
    29    30    24    1
    30    24    25   ar
    31    11     9    1
    32    10     9    1
    33    26    25   ar
    34    25    27    1
