@<TRIPOS>MOLECULE
mol_data/opt/cam/geoms/mol2/12gh12gh.out
 22 23 0 0 0
SMALL
GASTEIGER

@<TRIPOS>ATOM
      1 C           0.2509    1.8679   -0.3737 C.ar    1  LIG1        0.1077
      2 C           1.5988    1.8788   -0.2084 C.ar    1  LIG1        0.0640
      3 C           1.9824    3.2600   -0.0787 C.ar    1  LIG1        0.0874
      4 C           0.8163    3.9786   -0.1766 C.ar    1  LIG1        0.1924
      5 O          -0.2419    3.1102   -0.3608 O.2     1  LIG1       -0.4568
      6 H          -0.4531    1.0628   -0.5157 H       1  LIG1        0.1041
      7 S           2.6868    0.4918   -0.2477 S.3     1  LIG1       -0.1378
      8 H           2.8957    0.3738    1.0778 H       1  LIG1        0.1073
      9 N           3.2695    3.6814    0.1726 N.pl3   1  LIG1       -0.3541
     10 H           3.9636    2.9938   -0.0910 H       1  LIG1        0.1425
     11 H           3.4842    4.6098   -0.1689 H       1  LIG1        0.1425
     12 C           0.4565    5.3725   -0.0809 C.ar    1  LIG1        0.1865
     13 C           1.1096    6.5645   -0.2796 C.ar    1  LIG1        0.0745
     14 C           0.1533    7.6074   -0.0170 C.ar    1  LIG1        0.0769
     15 C          -1.0000    6.9768    0.3151 C.ar    1  LIG1        0.1144
     16 O          -0.8196    5.6187    0.2813 O.2     1  LIG1       -0.4567
     17 H          -1.9836    7.3186    0.5902 H       1  LIG1        0.1049
     18 S           2.7343    6.8486   -0.9017 S.3     1  LIG1       -0.1371
     19 H           3.2795    7.3797    0.2114 H       1  LIG1        0.1073
     20 N           0.4497    8.9662   -0.0573 N.pl3   1  LIG1       -0.3547
     21 H           1.1306    9.1909   -0.7726 H       1  LIG1        0.1424
     22 H          -0.3643    9.5596   -0.1369 H       1  LIG1        0.1424
@<TRIPOS>BOND
     1    18    13    1
     2    18    19    1
     3    21    20    1
     4     6     1    1
     5     1     5   ar
     6     1     2   ar
     7     5     4   ar
     8    13    12   ar
     9    13    14   ar
    10     7     2    1
    11     7     8    1
    12     2     3   ar
    13     4    12    1
    14     4     3   ar
    15    11     9    1
    16    22    20    1
    17    10     9    1
    18    12    16   ar
    19     3     9    1
    20    20    14    1
    21    14    15   ar
    22    16    15   ar
    23    15    17    1
