@<TRIPOS>MOLECULE
mol_data/opt/cam/geoms/mol2/12gh12gh12gh-12gh.out
 42 45 0 0 0
SMALL
GASTEIGER

@<TRIPOS>ATOM
      1 C           0.3067    2.0012   -1.0962 C.ar    1  LIG1        0.1077
      2 C           1.5851    1.8943   -0.6501 C.ar    1  LIG1        0.0640
      3 C           1.9936    3.2189   -0.2639 C.ar    1  LIG1        0.0874
      4 C           0.9072    4.0280   -0.5092 C.ar    1  LIG1        0.1924
      5 O          -0.1218    3.2625   -1.0235 O.2     1  LIG1       -0.4568
      6 H          -0.3842    1.2715   -1.4891 H       1  LIG1        0.1041
      7 S           2.5934    0.4483   -0.6416 S.3     1  LIG1       -0.1378
      8 H           2.5006    0.1578    0.6705 H       1  LIG1        0.1073
      9 N           3.2138    3.5033    0.2985 N.pl3   1  LIG1       -0.3541
     10 H           3.9175    2.8051    0.0974 H       1  LIG1        0.1425
     11 H           3.5360    4.4550    0.1812 H       1  LIG1        0.1425
     12 C           0.5844    5.4187   -0.3207 C.ar    1  LIG1        0.1875
     13 C           1.2992    6.5752   -0.1025 C.ar    1  LIG1        0.0752
     14 C           0.3459    7.6453   -0.0198 C.ar    1  LIG1        0.0882
     15 C          -0.8886    7.0686   -0.1992 C.ar    1  LIG1        0.1935
     16 O          -0.7242    5.7096   -0.3792 O.2     1  LIG1       -0.4455
     17 S           3.0425    6.8268   -0.0651 S.3     1  LIG1       -0.1371
     18 H           3.1965    7.0088    1.2627 H       1  LIG1        0.1073
     19 N           0.6897    8.9476    0.2546 N.pl3   1  LIG1       -0.3541
     20 H           1.6467    9.1671    0.0109 H       1  LIG1        0.1425
     21 H           0.0245    9.6421   -0.0607 H       1  LIG1        0.1425
     22 C          -2.2561    7.5136   -0.1972 C.ar    1  LIG1        0.1875
     23 C          -2.9005    8.7278   -0.2979 C.ar    1  LIG1        0.0752
     24 C          -4.3092    8.4586   -0.2361 C.ar    1  LIG1        0.0882
     25 C          -4.4303    7.0984   -0.1107 C.ar    1  LIG1        0.1934
     26 O          -3.1705    6.5355   -0.0868 O.2     1  LIG1       -0.4455
     27 S          -2.2346   10.3322   -0.5906 S.3     1  LIG1       -0.1371
     28 H          -2.3862   10.8509    0.6457 H       1  LIG1        0.1073
     29 N          -5.2784    9.4383   -0.2376 N.pl3   1  LIG1       -0.3541
     30 H          -4.9640   10.2991   -0.6670 H       1  LIG1        0.1425
     31 H          -6.1788    9.1342   -0.5874 H       1  LIG1        0.1425
     32 C          -5.5188    6.1694    0.0525 C.ar    1  LIG1        0.1865
     33 C          -6.8637    6.1748   -0.2364 C.ar    1  LIG1        0.0745
     34 C          -7.3812    4.9006    0.1860 C.ar    1  LIG1        0.0769
     35 C          -6.3236    4.2202    0.6922 C.ar    1  LIG1        0.1144
     36 O          -5.1914    4.9884    0.6165 O.2     1  LIG1       -0.4567
     37 H          -6.2049    3.2408    1.1242 H       1  LIG1        0.1049
     38 S          -7.8092    7.3792   -1.1090 S.3     1  LIG1       -0.1371
     39 H          -8.5822    7.8047   -0.0888 H       1  LIG1        0.1073
     40 N          -8.7234    4.5389    0.1119 N.pl3   1  LIG1       -0.3547
     41 H          -9.1834    4.9365   -0.6982 H       1  LIG1        0.1424
     42 H          -8.8790    3.5415    0.1585 H       1  LIG1        0.1424
@<TRIPOS>BOND
     1     6     1    1
     2    38    33    1
     3    38    39    1
     4     1     5   ar
     5     1     2   ar
     6     5     4   ar
     7    41    40    1
     8    30    29    1
     9     2     7    1
    10     2     3   ar
    11     7     8    1
    12    27    23    1
    13    27    28    1
    14    31    29    1
    15     4    12    1
    16     4     3   ar
    17    16    12   ar
    18    16    15   ar
    19    12    13   ar
    20    23    24   ar
    21    23    22   ar
    22     3     9    1
    23    29    24    1
    24    33    32   ar
    25    33    34   ar
    26    24    25   ar
    27    15    22    1
    28    15    14   ar
    29    22    26   ar
    30    25    26   ar
    31    25    32    1
    32    13    17    1
    33    13    14   ar
    34    17    18    1
    35    21    19    1
    36    14    19    1
    37    20    19    1
    38    32    36   ar
    39    10     9    1
    40    40    42    1
    41    40    34    1
    42    11     9    1
    43    34    35   ar
    44    36    35   ar
    45    35    37    1
