@<TRIPOS>MOLECULE
mol_data/opt/cam/geoms/mol2/12gh.out
 12 12 0 0 0
SMALL
GASTEIGER

@<TRIPOS>ATOM
      1 C           0.1958    1.9082    0.0209 C.ar    1  LIG1        0.1067
      2 C           1.5453    1.9551   -0.1298 C.ar    1  LIG1        0.0633
      3 C           1.9030    3.3512   -0.1239 C.ar    1  LIG1        0.0762
      4 C           0.7346    4.0257    0.0374 C.ar    1  LIG1        0.1134
      5 O          -0.3137    3.1447    0.1244 O.2     1  LIG1       -0.4680
      6 H          -0.4997    1.0846    0.0607 H       1  LIG1        0.1041
      7 H           0.4851    5.0709    0.1140 H       1  LIG1        0.1049
      8 S           2.6303    0.5925   -0.4061 S.3     1  LIG1       -0.1378
      9 H           3.2006    0.5521    0.8133 H       1  LIG1        0.1073
     10 N           3.2068    3.8279   -0.1996 N.pl3   1  LIG1       -0.3547
     11 H           3.8134    3.2077   -0.7215 H       1  LIG1        0.1424
     12 H           3.2826    4.7784   -0.5329 H       1  LIG1        0.1424
@<TRIPOS>BOND
     1    11    10    1
     2    12    10    1
     3     8     2    1
     4     8     9    1
     5    10     3    1
     6     2     3   ar
     7     2     1   ar
     8     3     4   ar
     9     1     6    1
    10     1     5   ar
    11     4     7    1
    12     4     5   ar
