@<TRIPOS>MOLECULE
mol_data/opt/cam/geoms/mol2/12gh12gh-12gh-12gh.out
 42 45 0 0 0
SMALL
GASTEIGER

@<TRIPOS>ATOM
      1 C           0.2911    1.9824   -1.0244 C.ar    1  LIG1        0.1077
      2 C           1.5710    1.8775   -0.5821 C.ar    1  LIG1        0.0640
      3 C           1.9848    3.2057   -0.2142 C.ar    1  LIG1        0.0874
      4 C           0.8997    4.0147   -0.4655 C.ar    1  LIG1        0.1924
      5 O          -0.1335    3.2458   -0.9660 O.2     1  LIG1       -0.4568
      6 H          -0.4034    1.2498   -1.4054 H       1  LIG1        0.1041
      7 S           2.5752    0.4287   -0.5592 S.3     1  LIG1       -0.1378
      8 H           2.4868    0.1552    0.7567 H       1  LIG1        0.1073
      9 N           3.2080    3.4936    0.3397 N.pl3   1  LIG1       -0.3541
     10 H           3.9089    2.7909    0.1447 H       1  LIG1        0.1425
     11 H           3.5324    4.4428    0.2091 H       1  LIG1        0.1425
     12 C           0.5816    5.4086   -0.2933 C.ar    1  LIG1        0.1875
     13 C           1.3006    6.5657   -0.0925 C.ar    1  LIG1        0.0752
     14 C           0.3506    7.6396   -0.0196 C.ar    1  LIG1        0.0882
     15 C          -0.8862    7.0641   -0.1867 C.ar    1  LIG1        0.1935
     16 O          -0.7264    5.7025   -0.3502 O.2     1  LIG1       -0.4455
     17 S           3.0447    6.8127   -0.0653 S.3     1  LIG1       -0.1371
     18 H           3.2046    7.0110    1.2594 H       1  LIG1        0.1073
     19 N           0.6992    8.9442    0.2369 N.pl3   1  LIG1       -0.3541
     20 H           1.6558    9.1578   -0.0134 H       1  LIG1        0.1425
     21 H           0.0347    9.6366   -0.0845 H       1  LIG1        0.1425
     22 C          -2.2524    7.5131   -0.1849 C.ar    1  LIG1        0.1875
     23 C          -2.8938    8.7278   -0.2983 C.ar    1  LIG1        0.0752
     24 C          -4.3031    8.4634   -0.2275 C.ar    1  LIG1        0.0882
     25 C          -4.4274    7.1052   -0.0845 C.ar    1  LIG1        0.1934
     26 O          -3.1692    6.5391   -0.0585 O.2     1  LIG1       -0.4455
     27 S          -2.2246   10.3264   -0.6137 S.3     1  LIG1       -0.1371
     28 H          -2.3697   10.8611    0.6165 H       1  LIG1        0.1073
     29 N          -5.2695    9.4458   -0.2374 N.pl3   1  LIG1       -0.3541
     30 H          -4.9543   10.3002   -0.6788 H       1  LIG1        0.1425
     31 H          -6.1721    9.1399   -0.5798 H       1  LIG1        0.1425
     32 C          -5.5179    6.1815    0.0947 C.ar    1  LIG1        0.1865
     33 C          -6.8639    6.1871   -0.1890 C.ar    1  LIG1        0.0745
     34 C          -7.3833    4.9198    0.2515 C.ar    1  LIG1        0.0769
     35 C          -6.3257    4.2428    0.7619 C.ar    1  LIG1        0.1144
     36 O          -5.1916    5.0067    0.6721 O.2     1  LIG1       -0.4567
     37 H          -6.2080    3.2686    1.2058 H       1  LIG1        0.1049
     38 S          -7.8095    7.3831   -1.0728 S.3     1  LIG1       -0.1371
     39 H          -8.5772    7.8237   -0.0551 H       1  LIG1        0.1073
     40 N          -8.7268    4.5611    0.1872 N.pl3   1  LIG1       -0.3547
     41 H          -9.1889    4.9498   -0.6260 H       1  LIG1        0.1424
     42 H          -8.8850    3.5648    0.2470 H       1  LIG1        0.1424
@<TRIPOS>BOND
     1     6     1    1
     2    38    33    1
     3    38    39    1
     4     1     5   ar
     5     1     2   ar
     6     5     4   ar
     7    30    29    1
     8    41    40    1
     9    27    23    1
    10    27    28    1
    11     2     7    1
    12     2     3   ar
    13    31    29    1
    14     7     8    1
    15     4    12    1
    16     4     3   ar
    17    16    12   ar
    18    16    15   ar
    19    23    24   ar
    20    23    22   ar
    21    12    13   ar
    22    29    24    1
    23    24    25   ar
    24     3     9    1
    25    33    32   ar
    26    33    34   ar
    27    15    22    1
    28    15    14   ar
    29    22    26   ar
    30    13    17    1
    31    13    14   ar
    32    25    26   ar
    33    25    32    1
    34    21    19    1
    35    17    18    1
    36    14    19    1
    37    20    19    1
    38    32    36   ar
    39    10     9    1
    40    40    42    1
    41    40    34    1
    42    11     9    1
    43    34    35   ar
    44    36    35   ar
    45    35    37    1
