@<TRIPOS>MOLECULE
mol_data/opt/cam/geoms/mol2/12gh12gh-12gh-12gh-.out
 42 45 0 0 0
SMALL
GASTEIGER

@<TRIPOS>ATOM
      1 C           0.2928    1.9933   -1.0671 C.ar    1  LIG1        0.1077
      2 C           1.5719    1.8833   -0.6238 C.ar    1  LIG1        0.0640
      3 C           1.9851    3.2070   -0.2397 C.ar    1  LIG1        0.0874
      4 C           0.9005    4.0190   -0.4835 C.ar    1  LIG1        0.1924
      5 O          -0.1319    3.2560   -0.9947 O.2     1  LIG1       -0.4568
      6 H          -0.4010    1.2652   -1.4578 H       1  LIG1        0.1041
      7 S           2.5761    0.4343   -0.6160 S.3     1  LIG1       -0.1378
      8 H           2.4854    0.1454    0.6966 H       1  LIG1        0.1073
      9 N           3.2074    3.4885    0.3197 N.pl3   1  LIG1       -0.3541
     10 H           3.9086    2.7881    0.1178 H       1  LIG1        0.1425
     11 H           3.5320    4.4391    0.2008 H       1  LIG1        0.1425
     12 C           0.5821    5.4108   -0.2956 C.ar    1  LIG1        0.1875
     13 C           1.3007    6.5655   -0.0801 C.ar    1  LIG1        0.0752
     14 C           0.3507    7.6384    0.0037 C.ar    1  LIG1        0.0882
     15 C          -0.8859    7.0650   -0.1724 C.ar    1  LIG1        0.1935
     16 O          -0.7258    5.7054   -0.3515 O.2     1  LIG1       -0.4455
     17 S           3.0448    6.8121   -0.0467 S.3     1  LIG1       -0.1371
     18 H           3.2023    6.9949    1.2805 H       1  LIG1        0.1073
     19 N           0.6988    8.9400    0.2760 N.pl3   1  LIG1       -0.3541
     20 H           1.6559    9.1564    0.0300 H       1  LIG1        0.1425
     21 H           0.0349    9.6361   -0.0385 H       1  LIG1        0.1425
     22 C          -2.2521    7.5140   -0.1679 C.ar    1  LIG1        0.1875
     23 C          -2.8932    8.7299   -0.2683 C.ar    1  LIG1        0.0752
     24 C          -4.3026    8.4648   -0.2031 C.ar    1  LIG1        0.0882
     25 C          -4.4273    7.1051   -0.0761 C.ar    1  LIG1        0.1934
     26 O          -3.1691    6.5386   -0.0544 O.2     1  LIG1       -0.4455
     27 S          -2.2234   10.3321   -0.5639 S.3     1  LIG1       -0.1371
     28 H          -2.3708   10.8525    0.6721 H       1  LIG1        0.1073
     29 N          -5.2690    9.4473   -0.2034 N.pl3   1  LIG1       -0.3541
     30 H          -4.9531   10.3068   -0.6343 H       1  LIG1        0.1425
     31 H          -6.1710    9.1455   -0.5509 H       1  LIG1        0.1425
     32 C          -5.5181    6.1794    0.0904 C.ar    1  LIG1        0.1865
     33 C          -6.8636    6.1884   -0.1957 C.ar    1  LIG1        0.0745
     34 C          -7.3838    4.9160    0.2292 C.ar    1  LIG1        0.0769
     35 C          -6.3271    4.2331    0.7338 C.ar    1  LIG1        0.1144
     36 O          -5.1929    4.9980    0.6549 O.2     1  LIG1       -0.4567
     37 H          -6.2103    3.2538    1.1665 H       1  LIG1        0.1049
     38 S          -7.8075    7.3946   -1.0673 S.3     1  LIG1       -0.1371
     39 H          -8.5771    7.8233   -0.0459 H       1  LIG1        0.1073
     40 N          -8.7272    4.5582    0.1583 N.pl3   1  LIG1       -0.3547
     41 H          -9.1879    4.9563   -0.6512 H       1  LIG1        0.1424
     42 H          -8.8856    3.5613    0.2063 H       1  LIG1        0.1424
@<TRIPOS>BOND
     1     6     1    1
     2    38    33    1
     3    38    39    1
     4     1     5   ar
     5     1     2   ar
     6     5     4   ar
     7    41    40    1
     8    30    29    1
     9     2     7    1
    10     2     3   ar
    11     7     8    1
    12    27    23    1
    13    27    28    1
    14    31    29    1
    15     4    12    1
    16     4     3   ar
    17    16    12   ar
    18    16    15   ar
    19    12    13   ar
    20    23    24   ar
    21    23    22   ar
    22     3     9    1
    23    29    24    1
    24    24    25   ar
    25    33    32   ar
    26    33    34   ar
    27    15    22    1
    28    15    14   ar
    29    22    26   ar
    30    13    17    1
    31    13    14   ar
    32    25    26   ar
    33    25    32    1
    34    17    18    1
    35    21    19    1
    36    14    19    1
    37    20    19    1
    38    32    36   ar
    39    10     9    1
    40    40    42    1
    41    40    34    1
    42    11     9    1
    43    34    35   ar
    44    36    35   ar
    45    35    37    1
