@<TRIPOS>MOLECULE
mol_data/opt/cam/geoms/mol2/12gh12gh12gh12gh.out
 42 45 0 0 0
SMALL
GASTEIGER

@<TRIPOS>ATOM
      1 C           0.2952    1.9853   -1.0472 C.ar    1  LIG1        0.1077
      2 C           1.5755    1.8816   -0.6057 C.ar    1  LIG1        0.0640
      3 C           1.9881    3.2101   -0.2375 C.ar    1  LIG1        0.0874
      4 C           0.9019    4.0180   -0.4878 C.ar    1  LIG1        0.1924
      5 O          -0.1308    3.2482   -0.9880 O.2     1  LIG1       -0.4568
      6 H          -0.3987    1.2521   -1.4281 H       1  LIG1        0.1041
      7 S           2.5814    0.4340   -0.5842 S.3     1  LIG1       -0.1378
      8 H           2.4941    0.1597    0.7318 H       1  LIG1        0.1073
      9 N           3.2113    3.4991    0.3158 N.pl3   1  LIG1       -0.3541
     10 H           3.9129    2.7973    0.1200 H       1  LIG1        0.1425
     11 H           3.5346    4.4487    0.1854 H       1  LIG1        0.1425
     12 C           0.5824    5.4115   -0.3147 C.ar    1  LIG1        0.1875
     13 C           1.3002    6.5693   -0.1139 C.ar    1  LIG1        0.0752
     14 C           0.3491    7.6421   -0.0399 C.ar    1  LIG1        0.0882
     15 C          -0.8872    7.0653   -0.2065 C.ar    1  LIG1        0.1935
     16 O          -0.7259    5.7040   -0.3707 O.2     1  LIG1       -0.4455
     17 S           3.0441    6.8182   -0.0876 S.3     1  LIG1       -0.1371
     18 H           3.2046    7.0161    1.2371 H       1  LIG1        0.1073
     19 N           0.6964    8.9470    0.2170 N.pl3   1  LIG1       -0.3541
     20 H           1.6527    9.1617   -0.0337 H       1  LIG1        0.1425
     21 H           0.0310    9.6388   -0.1036 H       1  LIG1        0.1425
     22 C          -2.2539    7.5128   -0.2037 C.ar    1  LIG1        0.1875
     23 C          -2.8967    8.7268   -0.3161 C.ar    1  LIG1        0.0752
     24 C          -4.3056    8.4609   -0.2446 C.ar    1  LIG1        0.0882
     25 C          -4.4284    7.1024   -0.1021 C.ar    1  LIG1        0.1934
     26 O          -3.1695    6.5377   -0.0771 O.2     1  LIG1       -0.4455
     27 S          -2.2294   10.3263   -0.6312 S.3     1  LIG1       -0.1371
     28 H          -2.3744   10.8603    0.5993 H       1  LIG1        0.1073
     29 N          -5.2731    9.4422   -0.2534 N.pl3   1  LIG1       -0.3541
     30 H          -4.9592   10.2971   -0.6947 H       1  LIG1        0.1425
     31 H          -6.1756    9.1355   -0.5954 H       1  LIG1        0.1425
     32 C          -5.5177    6.1775    0.0774 C.ar    1  LIG1        0.1865
     33 C          -6.8640    6.1818   -0.2055 C.ar    1  LIG1        0.0745
     34 C          -7.3817    4.9136    0.2348 C.ar    1  LIG1        0.0769
     35 C          -6.3229    4.2376    0.7443 C.ar    1  LIG1        0.1144
     36 O          -5.1898    5.0028    0.6541 O.2     1  LIG1       -0.4567
     37 H          -6.2039    3.2633    1.1876 H       1  LIG1        0.1049
     38 S          -7.8114    7.3771   -1.0882 S.3     1  LIG1       -0.1371
     39 H          -8.5789    7.8163   -0.0697 H       1  LIG1        0.1073
     40 N          -8.7248    4.5535    0.1712 N.pl3   1  LIG1       -0.3547
     41 H          -9.1879    4.9420   -0.6416 H       1  LIG1        0.1424
     42 H          -8.8819    3.5570    0.2307 H       1  LIG1        0.1424
@<TRIPOS>BOND
     1     6     1    1
     2    38    33    1
     3    38    39    1
     4     1     5   ar
     5     1     2   ar
     6     5     4   ar
     7    30    29    1
     8    41    40    1
     9    27    23    1
    10    27    28    1
    11     2     7    1
    12     2     3   ar
    13    31    29    1
    14     7     8    1
    15     4    12    1
    16     4     3   ar
    17    16    12   ar
    18    16    15   ar
    19    23    24   ar
    20    23    22   ar
    21    12    13   ar
    22    29    24    1
    23    24    25   ar
    24     3     9    1
    25    15    22    1
    26    15    14   ar
    27    33    32   ar
    28    33    34   ar
    29    22    26   ar
    30    13    17    1
    31    13    14   ar
    32    21    19    1
    33    25    26   ar
    34    25    32    1
    35    17    18    1
    36    14    19    1
    37    20    19    1
    38    32    36   ar
    39    10     9    1
    40    40    42    1
    41    40    34    1
    42    11     9    1
    43    34    35   ar
    44    36    35   ar
    45    35    37    1
