@<TRIPOS>MOLECULE
mol_data/opt/cam/geoms/mol2/12gh12gh12gh.out
 32 34 0 0 0
SMALL
GASTEIGER

@<TRIPOS>ATOM
      1 C           0.2863    1.8841   -0.6132 C.ar    1  LIG1        0.1077
      2 C           1.5953    1.8468   -0.2529 C.ar    1  LIG1        0.0640
      3 C           2.0015    3.2127   -0.0516 C.ar    1  LIG1        0.0874
      4 C           0.8841    3.9730   -0.3083 C.ar    1  LIG1        0.1924
      5 O          -0.1629    3.1405   -0.6546 O.2     1  LIG1       -0.4568
      6 H          -0.4148    1.1047   -0.8679 H       1  LIG1        0.1041
      7 S           2.6323    0.4246   -0.1521 S.3     1  LIG1       -0.1378
      8 H           2.6347    0.2838    1.1875 H       1  LIG1        0.1073
      9 N           3.2519    3.5796    0.3861 N.pl3   1  LIG1       -0.3541
     10 H           3.9541    2.8716    0.2158 H       1  LIG1        0.1425
     11 H           3.5444    4.5115    0.1219 H       1  LIG1        0.1425
     12 C           0.5491    5.3733   -0.2537 C.ar    1  LIG1        0.1875
     13 C           1.2560    6.5537   -0.2587 C.ar    1  LIG1        0.0752
     14 C           0.2927    7.6170   -0.1925 C.ar    1  LIG1        0.0882
     15 C          -0.9374    7.0113   -0.1610 C.ar    1  LIG1        0.1934
     16 O          -0.7658    5.6426   -0.1975 O.2     1  LIG1       -0.4455
     17 S           2.9868    6.8195   -0.4549 S.3     1  LIG1       -0.1371
     18 H           3.2792    7.1974    0.8066 H       1  LIG1        0.1073
     19 N           0.6289    8.9506   -0.1098 N.pl3   1  LIG1       -0.3541
     20 H           1.5449    9.1482   -0.4920 H       1  LIG1        0.1425
     21 H          -0.0825    9.5835   -0.4545 H       1  LIG1        0.1425
     22 C          -2.3046    7.4518   -0.0480 C.ar    1  LIG1        0.1865
     23 C          -2.9832    8.6205   -0.3038 C.ar    1  LIG1        0.0745
     24 C          -4.3623    8.3772    0.0270 C.ar    1  LIG1        0.0769
     25 C          -4.4204    7.0910    0.4514 C.ar    1  LIG1        0.1144
     26 O          -3.1725    6.5265    0.4110 O.2     1  LIG1       -0.4567
     27 H          -5.2176    6.4566    0.8006 H       1  LIG1        0.1049
     28 S          -2.3996   10.1065   -1.0504 S.3     1  LIG1       -0.1371
     29 H          -2.4960   10.9197    0.0214 H       1  LIG1        0.1073
     30 N          -5.3639    9.3408   -0.0431 N.pl3   1  LIG1       -0.3547
     31 H          -5.2211    9.9890   -0.8081 H       1  LIG1        0.1424
     32 H          -6.2981    8.9565   -0.0678 H       1  LIG1        0.1424
@<TRIPOS>BOND
     1    28    23    1
     2    28    29    1
     3     6     1    1
     4    31    30    1
     5     5     1   ar
     6     5     4   ar
     7     1     2   ar
     8    20    19    1
     9    17    13    1
    10    17    18    1
    11    21    19    1
    12     4    12    1
    13     4     3   ar
    14    23    22   ar
    15    23    24   ar
    16    13    12   ar
    17    13    14   ar
    18    12    16   ar
    19     2     7    1
    20     2     3   ar
    21    16    15   ar
    22    14    15   ar
    23    14    19    1
    24    15    22    1
    25     7     8    1
    26    32    30    1
    27     3     9    1
    28    22    26   ar
    29    30    24    1
    30    24    25   ar
    31    11     9    1
    32    10     9    1
    33    26    25   ar
    34    25    27    1
