@<TRIPOS>MOLECULE
mol_data/opt/cam/geoms/mol2/12gh12gh-12gh-.out
 32 34 0 0 0
SMALL
GASTEIGER

@<TRIPOS>ATOM
      1 C           0.3024    1.9117   -0.7657 C.ar    1  LIG1        0.1077
      2 C           1.6068    1.8613   -0.3908 C.ar    1  LIG1        0.0640
      3 C           2.0071    3.2180   -0.1255 C.ar    1  LIG1        0.0874
      4 C           0.8911    3.9866   -0.3632 C.ar    1  LIG1        0.1924
      5 O          -0.1493    3.1678   -0.7584 O.2     1  LIG1       -0.4568
      6 H          -0.3936    1.1426   -1.0629 H       1  LIG1        0.1041
      7 S           2.6460    0.4381   -0.3385 S.3     1  LIG1       -0.1378
      8 H           2.6319    0.2394    0.9937 H       1  LIG1        0.1073
      9 N           3.2510    3.5679    0.3435 N.pl3   1  LIG1       -0.3541
     10 H           3.9571    2.8693    0.1517 H       1  LIG1        0.1425
     11 H           3.5445    4.5109    0.1237 H       1  LIG1        0.1425
     12 C           0.5521    5.3825   -0.2522 C.ar    1  LIG1        0.1875
     13 C           1.2561    6.5634   -0.1972 C.ar    1  LIG1        0.0752
     14 C           0.2894    7.6209   -0.0973 C.ar    1  LIG1        0.0882
     15 C          -0.9395    7.0121   -0.1077 C.ar    1  LIG1        0.1934
     16 O          -0.7641    5.6466   -0.2012 O.2     1  LIG1       -0.4455
     17 S           2.9885    6.8407   -0.3597 S.3     1  LIG1       -0.1371
     18 H           3.2641    7.1642    0.9206 H       1  LIG1        0.1073
     19 N           0.6212    8.9504    0.0474 N.pl3   1  LIG1       -0.3541
     20 H           1.5415    9.1661   -0.3143 H       1  LIG1        0.1425
     21 H          -0.0873    9.5963   -0.2786 H       1  LIG1        0.1425
     22 C          -2.3091    7.4447    0.0069 C.ar    1  LIG1        0.1865
     23 C          -2.9873    8.6221   -0.2066 C.ar    1  LIG1        0.0745
     24 C          -4.3698    8.3620    0.0958 C.ar    1  LIG1        0.0769
     25 C          -4.4302    7.0586    0.4634 C.ar    1  LIG1        0.1144
     26 O          -3.1804    6.4987    0.4144 O.2     1  LIG1       -0.4567
     27 H          -5.2302    6.4081    0.7746 H       1  LIG1        0.1049
     28 S          -2.3979   10.1402   -0.8806 S.3     1  LIG1       -0.1371
     29 H          -2.5099   10.9059    0.2240 H       1  LIG1        0.1073
     30 N          -5.3728    9.3259    0.0548 N.pl3   1  LIG1       -0.3547
     31 H          -5.2221   10.0069   -0.6797 H       1  LIG1        0.1424
     32 H          -6.3058    8.9412    0.0016 H       1  LIG1        0.1424
@<TRIPOS>BOND
     1     6     1    1
     2    28    23    1
     3    28    29    1
     4     1     5   ar
     5     1     2   ar
     6     5     4   ar
     7    31    30    1
     8     2     7    1
     9     2     3   ar
    10     4    12    1
    11     4     3   ar
    12    17    13    1
    13    17    18    1
    14     7     8    1
    15    20    19    1
    16    21    19    1
    17    12    16   ar
    18    12    13   ar
    19    23    22   ar
    20    23    24   ar
    21    16    15   ar
    22    13    14   ar
    23     3     9    1
    24    15    14   ar
    25    15    22    1
    26    14    19    1
    27    32    30    1
    28    22    26   ar
    29    30    24    1
    30    24    25   ar
    31    11     9    1
    32    10     9    1
    33    26    25   ar
    34    25    27    1
