@<TRIPOS>MOLECULE
mol_data/opt/cam/geoms/mol2/12gh12gh12gh-12gh-.out
 42 45 0 0 0
SMALL
GASTEIGER

@<TRIPOS>ATOM
      1 C           0.3077    1.9911   -1.0534 C.ar    1  LIG1        0.1077
      2 C           1.5843    1.8873   -0.6013 C.ar    1  LIG1        0.0640
      3 C           1.9923    3.2150   -0.2252 C.ar    1  LIG1        0.0874
      4 C           0.9074    4.0226   -0.4822 C.ar    1  LIG1        0.1924
      5 O          -0.1201    3.2533   -0.9937 O.2     1  LIG1       -0.4568
      6 H          -0.3821    1.2584   -1.4426 H       1  LIG1        0.1041
      7 S           2.5915    0.4407   -0.5758 S.3     1  LIG1       -0.1378
      8 H           2.4932    0.1620    0.7385 H       1  LIG1        0.1073
      9 N           3.2104    3.5035    0.3395 N.pl3   1  LIG1       -0.3541
     10 H           3.9144    2.8031    0.1475 H       1  LIG1        0.1425
     11 H           3.5338    4.4539    0.2150 H       1  LIG1        0.1425
     12 C           0.5849    5.4152   -0.3073 C.ar    1  LIG1        0.1875
     13 C           1.2997    6.5731   -0.0966 C.ar    1  LIG1        0.0752
     14 C           0.3469    7.6446   -0.0272 C.ar    1  LIG1        0.0882
     15 C          -0.8873    7.0671   -0.2064 C.ar    1  LIG1        0.1935
     16 O          -0.7232    5.7065   -0.3736 O.2     1  LIG1       -0.4455
     17 S           3.0431    6.8238   -0.0545 S.3     1  LIG1       -0.1371
     18 H           3.1919    7.0175    1.2722 H       1  LIG1        0.1073
     19 N           0.6906    8.9490    0.2369 N.pl3   1  LIG1       -0.3541
     20 H           1.6487    9.1656   -0.0050 H       1  LIG1        0.1425
     21 H           0.0272    9.6412   -0.0873 H       1  LIG1        0.1425
     22 C          -2.2544    7.5132   -0.2138 C.ar    1  LIG1        0.1875
     23 C          -2.8975    8.7269   -0.3279 C.ar    1  LIG1        0.0752
     24 C          -4.3068    8.4592   -0.2693 C.ar    1  LIG1        0.0882
     25 C          -4.4293    7.1002   -0.1322 C.ar    1  LIG1        0.1934
     26 O          -3.1700    6.5367   -0.0983 O.2     1  LIG1       -0.4455
     27 S          -2.2293   10.3280   -0.6322 S.3     1  LIG1       -0.1371
     28 H          -2.3854   10.8579    0.5988 H       1  LIG1        0.1073
     29 N          -5.2752    9.4395   -0.2833 N.pl3   1  LIG1       -0.3541
     30 H          -4.9584   10.2962   -0.7192 H       1  LIG1        0.1425
     31 H          -6.1743    9.1330   -0.6340 H       1  LIG1        0.1425
     32 C          -5.5191    6.1735    0.0349 C.ar    1  LIG1        0.1865
     33 C          -6.8629    6.1773   -0.2594 C.ar    1  LIG1        0.0745
     34 C          -7.3830    4.9072    0.1723 C.ar    1  LIG1        0.0769
     35 C          -6.3279    4.2306    0.6887 C.ar    1  LIG1        0.1144
     36 O          -5.1949    4.9973    0.6107 O.2     1  LIG1       -0.4567
     37 H          -6.2117    3.2551    1.1299 H       1  LIG1        0.1049
     38 S          -7.8040    7.3745   -1.1464 S.3     1  LIG1       -0.1371
     39 H          -8.5807    7.8097   -0.1332 H       1  LIG1        0.1073
     40 N          -8.7252    4.5459    0.0960 N.pl3   1  LIG1       -0.3547
     41 H          -9.1817    4.9366   -0.7194 H       1  LIG1        0.1424
     42 H          -8.8817    3.5491    0.1509 H       1  LIG1        0.1424
@<TRIPOS>BOND
     1     6     1    1
     2    38    33    1
     3    38    39    1
     4     1     5   ar
     5     1     2   ar
     6     5     4   ar
     7    41    40    1
     8    30    29    1
     9    31    29    1
    10    27    23    1
    11    27    28    1
    12     2     7    1
    13     2     3   ar
    14     7     8    1
    15     4    12    1
    16     4     3   ar
    17    16    12   ar
    18    16    15   ar
    19    23    24   ar
    20    23    22   ar
    21    12    13   ar
    22    29    24    1
    23    24    25   ar
    24    33    32   ar
    25    33    34   ar
    26     3     9    1
    27    22    15    1
    28    22    26   ar
    29    15    14   ar
    30    25    26   ar
    31    25    32    1
    32    13    17    1
    33    13    14   ar
    34    21    19    1
    35    17    18    1
    36    14    19    1
    37    20    19    1
    38    32    36   ar
    39    40    42    1
    40    40    34    1
    41    10     9    1
    42    34    35   ar
    43    11     9    1
    44    36    35   ar
    45    35    37    1
