@<TRIPOS>MOLECULE
mol_data/opt/cam/geoms/mol2/12gh12gh12gh12gh-.out
 42 45 0 0 0
SMALL
GASTEIGER

@<TRIPOS>ATOM
      1 C           0.2937    1.9862   -1.0571 C.ar    1  LIG1        0.1077
      2 C           1.5723    1.8791   -0.6116 C.ar    1  LIG1        0.0640
      3 C           1.9852    3.2054   -0.2363 C.ar    1  LIG1        0.0874
      4 C           0.9010    4.0158   -0.4869 C.ar    1  LIG1        0.1924
      5 O          -0.1309    3.2494   -0.9939 O.2     1  LIG1       -0.4568
      6 H          -0.3998    1.2555   -1.4435 H       1  LIG1        0.1041
      7 S           2.5763    0.4301   -0.5927 S.3     1  LIG1       -0.1378
      8 H           2.4841    0.1503    0.7217 H       1  LIG1        0.1073
      9 N           3.2069    3.4906    0.3224 N.pl3   1  LIG1       -0.3541
     10 H           3.9083    2.7887    0.1261 H       1  LIG1        0.1425
     11 H           3.5318    4.4403    0.1973 H       1  LIG1        0.1425
     12 C           0.5826    5.4089   -0.3090 C.ar    1  LIG1        0.1875
     13 C           1.3011    6.5650   -0.1007 C.ar    1  LIG1        0.0752
     14 C           0.3512    7.6386   -0.0254 C.ar    1  LIG1        0.0882
     15 C          -0.8853    7.0642   -0.1988 C.ar    1  LIG1        0.1935
     16 O          -0.7252    5.7033   -0.3683 O.2     1  LIG1       -0.4455
     17 S           3.0452    6.8116   -0.0673 S.3     1  LIG1       -0.1371
     18 H           3.2014    7.0036    1.2588 H       1  LIG1        0.1073
     19 N           0.6992    8.9420    0.2383 N.pl3   1  LIG1       -0.3541
     20 H           1.6566    9.1566   -0.0083 H       1  LIG1        0.1425
     21 H           0.0357    9.6360   -0.0818 H       1  LIG1        0.1425
     22 C          -2.2514    7.5134   -0.1988 C.ar    1  LIG1        0.1875
     23 C          -2.8923    8.7286   -0.3083 C.ar    1  LIG1        0.0752
     24 C          -4.3018    8.4642   -0.2427 C.ar    1  LIG1        0.0882
     25 C          -4.4268    7.1053   -0.1065 C.ar    1  LIG1        0.1934
     26 O          -3.1687    6.5389   -0.0796 O.2     1  LIG1       -0.4455
     27 S          -2.2220   10.3286   -0.6142 S.3     1  LIG1       -0.1371
     28 H          -2.3705   10.8575    0.6181 H       1  LIG1        0.1073
     29 N          -5.2681    9.4467   -0.2508 N.pl3   1  LIG1       -0.3541
     30 H          -4.9515   10.3032   -0.6873 H       1  LIG1        0.1425
     31 H          -6.1697    9.1426   -0.5972 H       1  LIG1        0.1425
     32 C          -5.5179    6.1810    0.0653 C.ar    1  LIG1        0.1865
     33 C          -6.8631    6.1881   -0.2222 C.ar    1  LIG1        0.0745
     34 C          -7.3839    4.9188    0.2108 C.ar    1  LIG1        0.0769
     35 C          -6.3278    4.2393    0.7212 C.ar    1  LIG1        0.1144
     36 O          -5.1934    5.0034    0.6382 O.2     1  LIG1       -0.4567
     37 H          -6.2115    3.2630    1.1608 H       1  LIG1        0.1049
     38 S          -7.8060    7.3884   -1.1031 S.3     1  LIG1       -0.1371
     39 H          -8.5765    7.8243   -0.0855 H       1  LIG1        0.1073
     40 N          -8.7273    4.5606    0.1411 N.pl3   1  LIG1       -0.3547
     41 H          -9.1870    4.9532   -0.6716 H       1  LIG1        0.1424
     42 H          -8.8858    3.5641    0.1957 H       1  LIG1        0.1424
@<TRIPOS>BOND
     1     6     1    1
     2    38    33    1
     3    38    39    1
     4     1     5   ar
     5     1     2   ar
     6     5     4   ar
     7    30    29    1
     8    41    40    1
     9    27    23    1
    10    27    28    1
    11     2     7    1
    12     2     3   ar
    13    31    29    1
    14     7     8    1
    15     4    12    1
    16     4     3   ar
    17    16    12   ar
    18    16    15   ar
    19    12    13   ar
    20    23    24   ar
    21    23    22   ar
    22    29    24    1
    23    24    25   ar
    24     3     9    1
    25    33    32   ar
    26    33    34   ar
    27    22    15    1
    28    22    26   ar
    29    15    14   ar
    30    25    26   ar
    31    25    32    1
    32    13    17    1
    33    13    14   ar
    34    21    19    1
    35    17    18    1
    36    14    19    1
    37    20    19    1
    38    32    36   ar
    39    10     9    1
    40    40    42    1
    41    40    34    1
    42    11     9    1
    43    34    35   ar
    44    36    35   ar
    45    35    37    1
