@<TRIPOS>MOLECULE
mol_data/opt/cam/geoms/mol2/12gh12gh-.out
 22 23 0 0 0
SMALL
GASTEIGER

@<TRIPOS>ATOM
      1 C           0.2265    1.8679   -0.2904 C.ar    1  LIG1        0.1077
      2 C           1.5776    1.8737   -0.1541 C.ar    1  LIG1        0.0640
      3 C           1.9722    3.2549   -0.0628 C.ar    1  LIG1        0.0874
      4 C           0.8086    3.9787   -0.1514 C.ar    1  LIG1        0.1924
      5 O          -0.2585    3.1134   -0.2941 O.2     1  LIG1       -0.4568
      6 H          -0.4852    1.0645   -0.3998 H       1  LIG1        0.1041
      7 S           2.6562    0.4792   -0.1864 S.3     1  LIG1       -0.1378
      8 H           2.8928    0.3886    1.1366 H       1  LIG1        0.1073
      9 N           3.2669    3.6734    0.1518 N.pl3   1  LIG1       -0.3541
     10 H           3.9511    2.9758   -0.1115 H       1  LIG1        0.1425
     11 H           3.4798    4.5928   -0.2144 H       1  LIG1        0.1425
     12 C           0.4593    5.3767   -0.0785 C.ar    1  LIG1        0.1865
     13 C           1.1151    6.5599   -0.3169 C.ar    1  LIG1        0.0745
     14 C           0.1709    7.6143   -0.0569 C.ar    1  LIG1        0.0769
     15 C          -0.9789    6.9985    0.3133 C.ar    1  LIG1        0.1144
     16 O          -0.8074    5.6388    0.3053 O.2     1  LIG1       -0.4567
     17 H          -1.9543    7.3525    0.6018 H       1  LIG1        0.1049
     18 S           2.7277    6.8200   -0.9796 S.3     1  LIG1       -0.1371
     19 H           3.2998    7.3715    0.1099 H       1  LIG1        0.1073
     20 N           0.4744    8.9700   -0.1331 N.pl3   1  LIG1       -0.3547
     21 H           1.1411    9.1748   -0.8674 H       1  LIG1        0.1424
     22 H          -0.3376    9.5667   -0.2082 H       1  LIG1        0.1424
@<TRIPOS>BOND
     1    18    13    1
     2    18    19    1
     3    21    20    1
     4     6     1    1
     5    13    12   ar
     6    13    14   ar
     7     5     1   ar
     8     5     4   ar
     9     1     2   ar
    10    11     9    1
    11    22    20    1
    12     7     2    1
    13     7     8    1
    14     2     3   ar
    15     4    12    1
    16     4     3   ar
    17    20    14    1
    18    10     9    1
    19    12    16   ar
    20     3     9    1
    21    14    15   ar
    22    16    15   ar
    23    15    17    1
