@<TRIPOS>MOLECULE
mol_data/opt/cam/geoms/mol2/12gi12gi-12gi-12gi.out
 46 49 0 0 0
SMALL
GASTEIGER

@<TRIPOS>ATOM
      1 C           1.1069    2.3728   -2.2403 C.ar    1  LIG1        0.1061
      2 C           1.9595    2.0368   -1.2387 C.ar    1  LIG1        0.0462
      3 C           1.9481    3.1305   -0.3036 C.ar    1  LIG1        0.0116
      4 C           1.0975    4.0496   -0.8427 C.ar    1  LIG1        0.1748
      5 O           0.5714    3.5868   -2.0196 O.2     1  LIG1       -0.4584
      6 H           0.7938    1.8570   -3.1343 H       1  LIG1        0.1041
      7 S           2.7868    0.4835   -1.0805 S.3     1  LIG1       -0.1393
      8 H           4.0401    0.9170   -1.3113 H       1  LIG1        0.1072
      9 C           2.6790    3.1908    0.9952 C.3     1  LIG1       -0.0350
     10 H           2.2247    3.9211    1.6679 H       1  LIG1        0.0279
     11 H           3.7260    3.4752    0.8564 H       1  LIG1        0.0279
     12 H           2.6625    2.2124    1.4817 H       1  LIG1        0.0279
     13 C           0.6495    5.3567   -0.4132 C.ar    1  LIG1        0.1843
     14 C           1.2880    6.4468    0.1108 C.ar    1  LIG1        0.0573
     15 C           0.2821    7.4380    0.3699 C.ar    1  LIG1        0.0123
     16 C          -0.8872    6.8816   -0.0569 C.ar    1  LIG1        0.1758
     17 O          -0.6774    5.6131   -0.5152 O.2     1  LIG1       -0.4472
     18 S           3.0172    6.5915    0.4411 S.3     1  LIG1       -0.1386
     19 H           3.2479    7.6475   -0.3603 H       1  LIG1        0.1072
     20 C           0.4994    8.7693    1.0066 C.3     1  LIG1       -0.0349
     21 H          -0.4363    9.1733    1.3978 H       1  LIG1        0.0279
     22 H           0.9014    9.4979    0.2964 H       1  LIG1        0.0279
     23 H           1.2114    8.6809    1.8311 H       1  LIG1        0.0279
     24 C          -2.2534    7.3563   -0.0910 C.ar    1  LIG1        0.1843
     25 C          -2.8320    8.5400   -0.4582 C.ar    1  LIG1        0.0573
     26 C          -4.2430    8.4061   -0.2290 C.ar    1  LIG1        0.0123
     27 C          -4.4128    7.1316    0.2248 C.ar    1  LIG1        0.1758
     28 O          -3.2110    6.4937    0.3286 O.2     1  LIG1       -0.4472
     29 S          -1.9964    9.9732   -1.0653 S.3     1  LIG1       -0.1386
     30 H          -2.6112   10.0259   -2.2610 H       1  LIG1        0.1072
     31 C          -5.2738    9.4664   -0.4238 C.3     1  LIG1       -0.0349
     32 H          -6.1819    9.2357    0.1365 H       1  LIG1        0.0279
     33 H          -5.5543    9.5707   -1.4760 H       1  LIG1        0.0279
     34 H          -4.8910   10.4322   -0.0840 H       1  LIG1        0.0279
     35 C          -5.5775    6.3695    0.6220 C.ar    1  LIG1        0.1833
     36 C          -6.8244    6.2012    0.0874 C.ar    1  LIG1        0.0566
     37 C          -7.5450    5.3286    0.9764 C.ar    1  LIG1        0.0012
     38 C          -6.6659    5.0275    1.9618 C.ar    1  LIG1        0.0967
     39 O          -5.4776    5.6541    1.7727 O.2     1  LIG1       -0.4584
     40 H          -6.7358    4.4042    2.8396 H       1  LIG1        0.1032
     41 S          -7.4391    6.9310   -1.3999 S.3     1  LIG1       -0.1386
     42 H          -7.6495    5.7843   -2.0723 H       1  LIG1        0.1072
     43 C          -8.9502    4.8505    0.8198 C.3     1  LIG1       -0.0357
     44 H          -9.2621    4.2628    1.6855 H       1  LIG1        0.0279
     45 H          -9.0634    4.2215   -0.0687 H       1  LIG1        0.0279
     46 H          -9.6395    5.6920    0.7092 H       1  LIG1        0.0279
@<TRIPOS>BOND
     1     6     1    1
     2    30    29    1
     3     1     5   ar
     4     1     2   ar
     5    42    41    1
     6     5     4   ar
     7    33    31    1
     8    41    36    1
     9     8     7    1
    10     2     7    1
    11     2     3   ar
    12    29    25    1
    13     4    13    1
    14     4     3   ar
    15    17    13   ar
    16    17    16   ar
    17    25    26   ar
    18    25    24   ar
    19    31    26    1
    20    31    34    1
    21    31    32    1
    22    13    14   ar
    23    19    18    1
    24     3     9    1
    25    26    27   ar
    26    24    16    1
    27    24    28   ar
    28    45    43    1
    29    16    15   ar
    30    36    35   ar
    31    36    37   ar
    32    14    15   ar
    33    14    18    1
    34    27    28   ar
    35    27    35    1
    36    22    20    1
    37    15    20    1
    38    35    39   ar
    39    46    43    1
    40    43    37    1
    41    43    44    1
    42    11     9    1
    43    37    38   ar
    44     9    12    1
    45     9    10    1
    46    20    21    1
    47    20    23    1
    48    39    38   ar
    49    38    40    1
