@<TRIPOS>MOLECULE
mol_data/opt/cam/geoms/mol2/12gi12gi12gi12gi-.out
 46 49 0 0 0
SMALL
GASTEIGER

@<TRIPOS>ATOM
      1 C           1.1177    2.3605   -2.2262 C.ar    1  LIG1        0.1061
      2 C           1.9656    2.0302   -1.2187 C.ar    1  LIG1        0.0462
      3 C           1.9497    3.1292   -0.2899 C.ar    1  LIG1        0.0116
      4 C           1.1016    4.0451   -0.8382 C.ar    1  LIG1        0.1748
      5 O           0.5811    3.5757   -2.0149 O.2     1  LIG1       -0.4584
      6 H           0.8088    1.8397   -3.1188 H       1  LIG1        0.1041
      7 S           2.7921    0.4779   -1.0479 S.3     1  LIG1       -0.1393
      8 H           4.0465    0.9102   -1.2752 H       1  LIG1        0.1072
      9 C           2.6745    3.1969    1.0120 C.3     1  LIG1       -0.0350
     10 H           2.2170    3.9309    1.6784 H       1  LIG1        0.0279
     11 H           3.7221    3.4806    0.8765 H       1  LIG1        0.0279
     12 H           2.6558    2.2212    1.5039 H       1  LIG1        0.0279
     13 C           0.6515    5.3546   -0.4181 C.ar    1  LIG1        0.1843
     14 C           1.2875    6.4478    0.1027 C.ar    1  LIG1        0.0573
     15 C           0.2804    7.4403    0.3514 C.ar    1  LIG1        0.0123
     16 C          -0.8868    6.8814   -0.0777 C.ar    1  LIG1        0.1758
     17 O          -0.6749    5.6103   -0.5278 O.2     1  LIG1       -0.4472
     18 S           3.0152    6.5944    0.4402 S.3     1  LIG1       -0.1386
     19 H           3.2496    7.6458   -0.3660 H       1  LIG1        0.1072
     20 C           0.4946    8.7752    0.9816 C.3     1  LIG1       -0.0349
     21 H          -0.4429    9.1813    1.3661 H       1  LIG1        0.0279
     22 H           0.9000    9.4998    0.2692 H       1  LIG1        0.0279
     23 H           1.2028    8.6915    1.8099 H       1  LIG1        0.0279
     24 C          -2.2529    7.3559   -0.1210 C.ar    1  LIG1        0.1843
     25 C          -2.8299    8.5374   -0.4976 C.ar    1  LIG1        0.0573
     26 C          -4.2419    8.4047   -0.2742 C.ar    1  LIG1        0.0123
     27 C          -4.4138    7.1328    0.1860 C.ar    1  LIG1        0.1758
     28 O          -3.2124    6.4956    0.2990 O.2     1  LIG1       -0.4472
     29 S          -1.9914    9.9672   -1.1087 S.3     1  LIG1       -0.1386
     30 H          -2.6006   10.0131   -2.3077 H       1  LIG1        0.1072
     31 C          -5.2718    9.4638   -0.4798 C.3     1  LIG1       -0.0349
     32 H          -6.1825    9.2362    0.0775 H       1  LIG1        0.0279
     33 H          -5.5474    9.5621   -1.5340 H       1  LIG1        0.0279
     34 H          -4.8906   10.4315   -0.1437 H       1  LIG1        0.0279
     35 C          -5.5802    6.3729    0.5820 C.ar    1  LIG1        0.1833
     36 C          -6.8246    6.2015    0.0426 C.ar    1  LIG1        0.0566
     37 C          -7.5493    5.3338    0.9331 C.ar    1  LIG1        0.0012
     38 C          -6.6749    5.0384    1.9242 C.ar    1  LIG1        0.0967
     39 O          -5.4858    5.6640    1.7372 O.2     1  LIG1       -0.4584
     40 H          -6.7489    4.4201    2.8053 H       1  LIG1        0.1032
     41 S          -7.4324    6.9227   -1.4517 S.3     1  LIG1       -0.1386
     42 H          -7.6395    5.7723   -2.1186 H       1  LIG1        0.1072
     43 C          -8.9538    4.8548    0.7726 C.3     1  LIG1       -0.0357
     44 H          -9.2698    4.2719    1.6401 H       1  LIG1        0.0279
     45 H          -9.0628    4.2208   -0.1129 H       1  LIG1        0.0279
     46 H          -9.6427    5.6956    0.6540 H       1  LIG1        0.0279
@<TRIPOS>BOND
     1     6     1    1
     2    30    29    1
     3     1     5   ar
     4     1     2   ar
     5    42    41    1
     6     5     4   ar
     7    33    31    1
     8    41    36    1
     9     8     7    1
    10     2     7    1
    11     2     3   ar
    12    29    25    1
    13     4    13    1
    14     4     3   ar
    15    17    13   ar
    16    17    16   ar
    17    25    26   ar
    18    25    24   ar
    19    31    26    1
    20    31    34    1
    21    31    32    1
    22    13    14   ar
    23    19    18    1
    24     3     9    1
    25    26    27   ar
    26    24    16    1
    27    24    28   ar
    28    45    43    1
    29    16    15   ar
    30    36    35   ar
    31    36    37   ar
    32    14    15   ar
    33    14    18    1
    34    27    28   ar
    35    27    35    1
    36    22    20    1
    37    15    20    1
    38    35    39   ar
    39    46    43    1
    40    43    37    1
    41    43    44    1
    42    11     9    1
    43    37    38   ar
    44    20    21    1
    45    20    23    1
    46     9    12    1
    47     9    10    1
    48    39    38   ar
    49    38    40    1
