@<TRIPOS>MOLECULE
mol_data/opt/cam/geoms/mol2/12gi12gi12gi-12gi.out
 46 49 0 0 0
SMALL
GASTEIGER

@<TRIPOS>ATOM
      1 C           1.1288    2.3753   -2.2455 C.ar    1  LIG1        0.1061
      2 C           1.9718    2.0383   -1.2361 C.ar    1  LIG1        0.0462
      3 C           1.9513    3.1311   -0.3000 C.ar    1  LIG1        0.0116
      4 C           1.1058    4.0507   -0.8463 C.ar    1  LIG1        0.1748
      5 O           0.5911    3.5891   -2.0287 O.2     1  LIG1       -0.4584
      6 H           0.8243    1.8605   -3.1430 H       1  LIG1        0.1041
      7 S           2.7975    0.4850   -1.0716 S.3     1  LIG1       -0.1393
      8 H           4.0530    0.9188   -1.2899 H       1  LIG1        0.1072
      9 C           2.6696    3.1901    1.0058 C.3     1  LIG1       -0.0350
     10 H           2.2089    3.9196    1.6749 H       1  LIG1        0.0279
     11 H           3.7179    3.4747    0.8774 H       1  LIG1        0.0279
     12 H           2.6486    2.2111    1.4911 H       1  LIG1        0.0279
     13 C           0.6536    5.3573   -0.4197 C.ar    1  LIG1        0.1843
     14 C           1.2869    6.4469    0.1115 C.ar    1  LIG1        0.0573
     15 C           0.2786    7.4378    0.3620 C.ar    1  LIG1        0.0123
     16 C          -0.8865    6.8817   -0.0766 C.ar    1  LIG1        0.1758
     17 O          -0.6723    5.6137   -0.5342 O.2     1  LIG1       -0.4472
     18 S           3.0129    6.5913    0.4585 S.3     1  LIG1       -0.1386
     19 H           3.2512    7.6482   -0.3395 H       1  LIG1        0.1072
     20 C           0.4896    8.7684    1.0021 C.3     1  LIG1       -0.0349
     21 H          -0.4498    9.1719    1.3847 H       1  LIG1        0.0279
     22 H           0.8984    9.4978    0.2966 H       1  LIG1        0.0279
     23 H           1.1937    8.6791    1.8333 H       1  LIG1        0.0279
     24 C          -2.2524    7.3564   -0.1234 C.ar    1  LIG1        0.1843
     25 C          -2.8276    8.5405   -0.4949 C.ar    1  LIG1        0.0573
     26 C          -4.2407    8.4061   -0.2794 C.ar    1  LIG1        0.0123
     27 C          -4.4147    7.1312    0.1714 C.ar    1  LIG1        0.1758
     28 O          -3.2139    6.4933    0.2861 O.2     1  LIG1       -0.4472
     29 S          -1.9862    9.9743   -1.0924 S.3     1  LIG1       -0.1386
     30 H          -2.5895   10.0282   -2.2939 H       1  LIG1        0.1072
     31 C          -5.2696    9.4666   -0.4829 C.3     1  LIG1       -0.0349
     32 H          -6.1830    9.2353    0.0684 H       1  LIG1        0.0279
     33 H          -5.5400    9.5720   -1.5377 H       1  LIG1        0.0279
     34 H          -4.8901   10.4320   -0.1385 H       1  LIG1        0.0279
     35 C          -5.5831    6.3686    0.5567 C.ar    1  LIG1        0.1833
     36 C          -6.8248    6.2008    0.0100 C.ar    1  LIG1        0.0566
     37 C          -7.5538    5.3272    0.8911 C.ar    1  LIG1        0.0012
     38 C          -6.6842    5.0252    1.8845 C.ar    1  LIG1        0.0967
     39 O          -5.4942    5.6520    1.7075 O.2     1  LIG1       -0.4584
     40 H          -6.7625    4.4009    2.7610 H       1  LIG1        0.1032
     41 S          -7.4252    6.9321   -1.4825 S.3     1  LIG1       -0.1386
     42 H          -7.6291    5.7861   -2.1580 H       1  LIG1        0.1072
     43 C          -8.9574    4.8492    0.7205 C.3     1  LIG1       -0.0357
     44 H          -9.2776    4.2605    1.5825 H       1  LIG1        0.0279
     45 H          -9.0621    4.2211   -0.1697 H       1  LIG1        0.0279
     46 H          -9.6458    5.6908    0.6041 H       1  LIG1        0.0279
@<TRIPOS>BOND
     1     6     1    1
     2    30    29    1
     3     1     5   ar
     4     1     2   ar
     5    42    41    1
     6     5     4   ar
     7    33    31    1
     8    41    36    1
     9     8     7    1
    10     2     7    1
    11     2     3   ar
    12    29    25    1
    13     4    13    1
    14     4     3   ar
    15    17    13   ar
    16    17    16   ar
    17    25    26   ar
    18    25    24   ar
    19    31    26    1
    20    31    34    1
    21    31    32    1
    22    13    14   ar
    23    19    18    1
    24     3     9    1
    25    26    27   ar
    26    45    43    1
    27    24    16    1
    28    24    28   ar
    29    16    15   ar
    30    36    35   ar
    31    36    37   ar
    32    14    15   ar
    33    14    18    1
    34    27    28   ar
    35    27    35    1
    36    22    20    1
    37    15    20    1
    38    35    39   ar
    39    46    43    1
    40    43    37    1
    41    43    44    1
    42    11     9    1
    43    37    38   ar
    44    20    21    1
    45    20    23    1
    46     9    12    1
    47     9    10    1
    48    39    38   ar
    49    38    40    1
