@<TRIPOS>MOLECULE
mol_data/opt/cam/geoms/mol2/12gi12gi12gi.out
 35 37 0 0 0
SMALL
GASTEIGER

@<TRIPOS>ATOM
      1 C           0.5761    1.9536   -1.2871 C.ar    1  LIG1        0.1061
      2 C           1.6668    1.8485   -0.4857 C.ar    1  LIG1        0.0462
      3 C           1.8698    3.1445    0.1059 C.ar    1  LIG1        0.0116
      4 C           0.8860    3.9312   -0.4158 C.ar    1  LIG1        0.1748
      5 O           0.0854    3.2058   -1.2579 O.2     1  LIG1       -0.4584
      6 H           0.0556    1.2404   -1.9066 H       1  LIG1        0.1041
      7 S           2.5462    0.3534   -0.1494 S.3     1  LIG1       -0.1393
      8 H           3.6856    0.6596   -0.7974 H       1  LIG1        0.1072
      9 C           2.9100    3.5032    1.1129 C.3     1  LIG1       -0.0350
     10 H           2.6336    4.4079    1.6579 H       1  LIG1        0.0279
     11 H           3.8811    3.6837    0.6429 H       1  LIG1        0.0279
     12 H           3.0354    2.6888    1.8308 H       1  LIG1        0.0279
     13 C           0.5303    5.3225   -0.2383 C.ar    1  LIG1        0.1843
     14 C           1.2528    6.4829   -0.1943 C.ar    1  LIG1        0.0573
     15 C           0.3215    7.5483    0.0497 C.ar    1  LIG1        0.0123
     16 C          -0.9029    6.9507    0.0949 C.ar    1  LIG1        0.1758
     17 O          -0.7846    5.5996   -0.0601 O.2     1  LIG1       -0.4472
     18 S           3.0042    6.6356   -0.3676 S.3     1  LIG1       -0.1386
     19 H           2.9917    7.4301   -1.4536 H       1  LIG1        0.1072
     20 C           0.6586    8.9885    0.2420 C.3     1  LIG1       -0.0349
     21 H          -0.1533    9.5157    0.7467 H       1  LIG1        0.0279
     22 H           0.8368    9.4943   -0.7116 H       1  LIG1        0.0279
     23 H           1.5649    9.0866    0.8451 H       1  LIG1        0.0279
     24 C          -2.2447    7.4573    0.2886 C.ar    1  LIG1        0.1833
     25 C          -2.9325    8.5271   -0.2129 C.ar    1  LIG1        0.0566
     26 C          -4.2379    8.5048    0.3926 C.ar    1  LIG1        0.0012
     27 C          -4.2352    7.4119    1.1925 C.ar    1  LIG1        0.0967
     28 O          -3.0392    6.7732    1.1531 O.2     1  LIG1       -0.4584
     29 H          -4.9832    6.9734    1.8345 H       1  LIG1        0.1032
     30 S          -2.3272    9.7190   -1.3684 S.3     1  LIG1       -0.1386
     31 H          -3.2200    9.4704   -2.3443 H       1  LIG1        0.1072
     32 C          -5.3504    9.4725    0.1613 C.3     1  LIG1       -0.0357
     33 H          -6.2012    9.2523    0.8093 H       1  LIG1        0.0279
     34 H          -5.7028    9.4393   -0.8744 H       1  LIG1        0.0279
     35 H          -5.0248   10.4976    0.3585 H       1  LIG1        0.0279
@<TRIPOS>BOND
     1    31    30    1
     2     6     1    1
     3    19    18    1
     4    30    25    1
     5     1     5   ar
     6     1     2   ar
     7     5     4   ar
     8    34    32    1
     9     8     7    1
    10    22    20    1
    11     2     7    1
    12     2     3   ar
    13     4    13    1
    14     4     3   ar
    15    18    14    1
    16    13    14   ar
    17    13    17   ar
    18    25    24   ar
    19    25    26   ar
    20    14    15   ar
    21    17    16   ar
    22    15    16   ar
    23    15    20    1
    24    16    24    1
    25     3     9    1
    26    32    35    1
    27    32    26    1
    28    32    33    1
    29    20    21    1
    30    20    23    1
    31    24    28   ar
    32    26    27   ar
    33    11     9    1
    34     9    10    1
    35     9    12    1
    36    28    27   ar
    37    27    29    1
