@<TRIPOS>MOLECULE
mol_data/opt/cam/geoms/mol2/12gi12gi-.out
 24 25 0 0 0
SMALL
GASTEIGER

@<TRIPOS>ATOM
      1 C           0.2885    1.8721   -0.6159 C.ar    1  LIG1        0.1061
      2 C           1.5675    1.8489   -0.1618 C.ar    1  LIG1        0.0462
      3 C           1.8967    3.1993    0.2119 C.ar    1  LIG1        0.0116
      4 C           0.7819    3.9293   -0.0749 C.ar    1  LIG1        0.1747
      5 O          -0.2079    3.1220   -0.5699 O.2     1  LIG1       -0.4584
      6 H          -0.3692    1.0993   -0.9811 H       1  LIG1        0.1041
      7 S           2.5492    0.3951    0.0503 S.3     1  LIG1       -0.1393
      8 H           3.4402    0.6287   -0.9313 H       1  LIG1        0.1072
      9 C           3.1750    3.6608    0.8264 C.3     1  LIG1       -0.0350
     10 H           3.0417    4.6162    1.3378 H       1  LIG1        0.0279
     11 H           3.9586    3.7951    0.0749 H       1  LIG1        0.0279
     12 H           3.5326    2.9245    1.5505 H       1  LIG1        0.0279
     13 C           0.4557    5.3334    0.0580 C.ar    1  LIG1        0.1833
     14 C           1.1219    6.4892   -0.2400 C.ar    1  LIG1        0.0566
     15 C           0.2687    7.5777    0.1594 C.ar    1  LIG1        0.0012
     16 C          -0.8492    6.9876    0.6449 C.ar    1  LIG1        0.0967
     17 O          -0.7519    5.6346    0.6034 O.2     1  LIG1       -0.4584
     18 H          -1.7695    7.3823    1.0466 H       1  LIG1        0.1032
     19 S           2.7317    6.6191   -0.9569 S.3     1  LIG1       -0.1386
     20 H           2.3607    7.2551   -2.0835 H       1  LIG1        0.1072
     21 C           0.5598    9.0365    0.0378 C.3     1  LIG1       -0.0357
     22 H          -0.2313    9.6329    0.4969 H       1  LIG1        0.0279
     23 H           0.6438    9.3437   -1.0094 H       1  LIG1        0.0279
     24 H           1.5062    9.2882    0.5243 H       1  LIG1        0.0279
@<TRIPOS>BOND
     1    20    19    1
     2    23    21    1
     3     6     1    1
     4    19    14    1
     5     8     7    1
     6     1     5   ar
     7     1     2   ar
     8     5     4   ar
     9    14    13   ar
    10    14    15   ar
    11     2     7    1
    12     2     3   ar
    13     4    13    1
    14     4     3   ar
    15    21    15    1
    16    21    22    1
    17    21    24    1
    18    13    17   ar
    19    11     9    1
    20    15    16   ar
    21     3     9    1
    22    17    16   ar
    23    16    18    1
    24     9    10    1
    25     9    12    1
