@<TRIPOS>MOLECULE
mol_data/opt/cam/geoms/mol2/12gi12gi-12gi12gi-.out
 46 49 0 0 0
SMALL
GASTEIGER

@<TRIPOS>ATOM
      1 C           1.0960    2.3582   -2.2214 C.ar    1  LIG1        0.1061
      2 C           1.9536    2.0288   -1.2219 C.ar    1  LIG1        0.0462
      3 C           1.9467    3.1287   -0.2940 C.ar    1  LIG1        0.0116
      4 C           1.0934    4.0442   -0.8349 C.ar    1  LIG1        0.1748
      5 O           0.5615    3.5736   -2.0060 O.2     1  LIG1       -0.4584
      6 H           0.7785    1.8366   -3.1105 H       1  LIG1        0.1041
      7 S           2.7817    0.4766   -1.0576 S.3     1  LIG1       -0.1393
      8 H           4.0338    0.9086   -1.2973 H       1  LIG1        0.1072
      9 C           2.6840    3.1975    1.0008 C.3     1  LIG1       -0.0350
     10 H           2.2330    3.9322    1.6709 H       1  LIG1        0.0279
     11 H           3.7303    3.4810    0.8550 H       1  LIG1        0.0279
     12 H           2.6700    2.2223    1.4938 H       1  LIG1        0.0279
     13 C           0.6474    5.3541   -0.4117 C.ar    1  LIG1        0.1843
     14 C           1.2885    6.4476    0.1019 C.ar    1  LIG1        0.0573
     15 C           0.2839    7.4405    0.3594 C.ar    1  LIG1        0.0123
     16 C          -0.8875    6.8812   -0.0579 C.ar    1  LIG1        0.1758
     17 O          -0.6799    5.6097   -0.5089 O.2     1  LIG1       -0.4472
     18 S           3.0193    6.5945    0.4227 S.3     1  LIG1       -0.1386
     19 H           3.2460    7.6452   -0.3868 H       1  LIG1        0.1072
     20 C           0.5042    8.7759    0.9862 C.3     1  LIG1       -0.0349
     21 H          -0.4296    9.1825    1.3794 H       1  LIG1        0.0279
     22 H           0.9027    9.4999    0.2693 H       1  LIG1        0.0279
     23 H           1.2203    8.6929    1.8078 H       1  LIG1        0.0279
     24 C          -2.2539    7.3557   -0.0884 C.ar    1  LIG1        0.1843
     25 C          -2.8344    8.5370   -0.4606 C.ar    1  LIG1        0.0573
     26 C          -4.2442    8.4045   -0.2235 C.ar    1  LIG1        0.0123
     27 C          -4.4117    7.1331    0.2395 C.ar    1  LIG1        0.1758
     28 O          -3.2093    6.4959    0.3416 O.2     1  LIG1       -0.4472
     29 S          -2.0018    9.9661   -1.0811 S.3     1  LIG1       -0.1386
     30 H          -2.6225   10.0109   -2.2742 H       1  LIG1        0.1072
     31 C          -5.2760    9.4635   -0.4202 C.3     1  LIG1       -0.0349
     32 H          -6.1813    9.2365    0.1462 H       1  LIG1        0.0279
     33 H          -5.5617    9.5608   -1.4717 H       1  LIG1        0.0279
     34 H          -4.8916   10.4315   -0.0887 H       1  LIG1        0.0279
     35 C          -5.5743    6.3735    0.6475 C.ar    1  LIG1        0.1833
     36 C          -6.8239    6.2017    0.1202 C.ar    1  LIG1        0.0566
     37 C          -7.5400    5.3349    1.0185 C.ar    1  LIG1        0.0012
     38 C          -6.6560    5.0404    2.0015 C.ar    1  LIG1        0.0967
     39 O          -5.4688    5.6657    1.8024 O.2     1  LIG1       -0.4584
     40 H          -6.7216    4.4229    2.8837 H       1  LIG1        0.1032
     41 S          -7.4460    6.9216   -1.3688 S.3     1  LIG1       -0.1386
     42 H          -7.6596    5.7705   -2.0326 H       1  LIG1        0.1072
     43 C          -8.9460    4.8558    0.8720 C.3     1  LIG1       -0.0357
     44 H          -9.2536    4.2738    1.7431 H       1  LIG1        0.0279
     45 H          -9.0636    4.2210   -0.0118 H       1  LIG1        0.0279
     46 H          -9.6359    5.6966    0.7592 H       1  LIG1        0.0279
@<TRIPOS>BOND
     1     6     1    1
     2    30    29    1
     3     1     5   ar
     4     1     2   ar
     5    42    41    1
     6     5     4   ar
     7    33    31    1
     8    41    36    1
     9     8     7    1
    10     2     7    1
    11     2     3   ar
    12    29    25    1
    13     4    13    1
    14     4     3   ar
    15    17    13   ar
    16    17    16   ar
    17    25    26   ar
    18    25    24   ar
    19    31    26    1
    20    31    34    1
    21    31    32    1
    22    13    14   ar
    23    19    18    1
    24     3     9    1
    25    26    27   ar
    26    24    16    1
    27    24    28   ar
    28    16    15   ar
    29    45    43    1
    30    14    15   ar
    31    14    18    1
    32    36    35   ar
    33    36    37   ar
    34    27    28   ar
    35    27    35    1
    36    22    20    1
    37    15    20    1
    38    35    39   ar
    39    46    43    1
    40    11     9    1
    41    43    37    1
    42    43    44    1
    43    20    21    1
    44    20    23    1
    45     9    12    1
    46     9    10    1
    47    37    38   ar
    48    39    38   ar
    49    38    40    1
