@<TRIPOS>MOLECULE
mol_data/opt/cam/geoms/mol2/12gi12gi-12gi12gi.out
 46 49 0 0 0
SMALL
GASTEIGER

@<TRIPOS>ATOM
      1 C           1.0932    2.3594   -2.2256 C.ar    1  LIG1        0.1061
      2 C           1.9518    2.0292   -1.2272 C.ar    1  LIG1        0.0462
      3 C           1.9461    3.1284   -0.2986 C.ar    1  LIG1        0.0116
      4 C           1.0923    4.0444   -0.8379 C.ar    1  LIG1        0.1748
      5 O           0.5591    3.5747   -2.0088 O.2     1  LIG1       -0.4584
      6 H           0.7747    1.8383   -3.1147 H       1  LIG1        0.1041
      7 S           2.7799    0.4768   -1.0649 S.3     1  LIG1       -0.1393
      8 H           4.0318    0.9088   -1.3057 H       1  LIG1        0.1072
      9 C           2.6848    3.1963    0.9955 C.3     1  LIG1       -0.0350
     10 H           2.2346    3.9306    1.6666 H       1  LIG1        0.0279
     11 H           3.7310    3.4798    0.8487 H       1  LIG1        0.0279
     12 H           2.6712    2.2208    1.4878 H       1  LIG1        0.0279
     13 C           0.6469    5.3540   -0.4134 C.ar    1  LIG1        0.1843
     14 C           1.2886    6.4472    0.1003 C.ar    1  LIG1        0.0573
     15 C           0.2844    7.4400    0.3596 C.ar    1  LIG1        0.0123
     16 C          -0.8875    6.8811   -0.0569 C.ar    1  LIG1        0.1758
     17 O          -0.6805    5.6099   -0.5089 O.2     1  LIG1       -0.4472
     18 S           3.0198    6.5936    0.4192 S.3     1  LIG1       -0.1386
     19 H           3.2458    7.6448   -0.3897 H       1  LIG1        0.1072
     20 C           0.5056    8.7750    0.9870 C.3     1  LIG1       -0.0349
     21 H          -0.4277    9.1813    1.3815 H       1  LIG1        0.0279
     22 H           0.9034    9.4994    0.2702 H       1  LIG1        0.0279
     23 H           1.2226    8.6913    1.8078 H       1  LIG1        0.0279
     24 C          -2.2539    7.3558   -0.0856 C.ar    1  LIG1        0.1843
     25 C          -2.8346    8.5373   -0.4563 C.ar    1  LIG1        0.0573
     26 C          -4.2442    8.4048   -0.2178 C.ar    1  LIG1        0.0123
     27 C          -4.4113    7.1331    0.2445 C.ar    1  LIG1        0.1758
     28 O          -3.2089    6.4957    0.3449 O.2     1  LIG1       -0.4472
     29 S          -2.0026    9.9668   -1.0768 S.3     1  LIG1       -0.1386
     30 H          -2.6246   10.0125   -2.2691 H       1  LIG1        0.1072
     31 C          -5.2761    9.4641   -0.4126 C.3     1  LIG1       -0.0349
     32 H          -6.1808    9.2368    0.1546 H       1  LIG1        0.0279
     33 H          -5.5629    9.5622   -1.4637 H       1  LIG1        0.0279
     34 H          -4.8912   10.4318   -0.0808 H       1  LIG1        0.0279
     35 C          -5.5736    6.3735    0.6533 C.ar    1  LIG1        0.1833
     36 C          -6.8237    6.2021    0.1273 C.ar    1  LIG1        0.0566
     37 C          -7.5390    5.3348    1.0257 C.ar    1  LIG1        0.0012
     38 C          -6.6539    5.0395    2.0075 C.ar    1  LIG1        0.0967
     39 O          -5.4668    5.6648    1.8076 O.2     1  LIG1       -0.4584
     40 H          -6.7186    4.4214    2.8894 H       1  LIG1        0.1032
     41 S          -7.4473    6.9231   -1.3606 S.3     1  LIG1       -0.1386
     42 H          -7.6618    5.7725   -2.0249 H       1  LIG1        0.1072
     43 C          -8.9451    4.8560    0.8804 C.3     1  LIG1       -0.0357
     44 H          -9.2519    4.2734    1.7514 H       1  LIG1        0.0279
     45 H          -9.0638    4.2217   -0.0037 H       1  LIG1        0.0279
     46 H          -9.6351    5.6969    0.7690 H       1  LIG1        0.0279
@<TRIPOS>BOND
     1     6     1    1
     2    30    29    1
     3     1     5   ar
     4     1     2   ar
     5    42    41    1
     6     5     4   ar
     7    33    31    1
     8    41    36    1
     9     8     7    1
    10     2     7    1
    11     2     3   ar
    12    29    25    1
    13     4    13    1
    14     4     3   ar
    15    17    13   ar
    16    17    16   ar
    17    25    26   ar
    18    25    24   ar
    19    13    14   ar
    20    31    26    1
    21    31    34    1
    22    31    32    1
    23    19    18    1
    24     3     9    1
    25    26    27   ar
    26    24    16    1
    27    24    28   ar
    28    16    15   ar
    29    45    43    1
    30    14    15   ar
    31    14    18    1
    32    36    35   ar
    33    36    37   ar
    34    27    28   ar
    35    27    35    1
    36    22    20    1
    37    15    20    1
    38    35    39   ar
    39    46    43    1
    40    11     9    1
    41    43    37    1
    42    43    44    1
    43    20    21    1
    44    20    23    1
    45     9    12    1
    46     9    10    1
    47    37    38   ar
    48    39    38   ar
    49    38    40    1
