@<TRIPOS>MOLECULE
mol_data/opt/cam/geoms/mol2/12gi12gi-12gi-.out
 35 37 0 0 0
SMALL
GASTEIGER

@<TRIPOS>ATOM
      1 C           0.5613    1.9546   -1.2829 C.ar    1  LIG1        0.1061
      2 C           1.6604    1.8484   -0.4931 C.ar    1  LIG1        0.0462
      3 C           1.8700    3.1437    0.0976 C.ar    1  LIG1        0.0116
      4 C           0.8810    3.9312   -0.4128 C.ar    1  LIG1        0.1748
      5 O           0.0713    3.2070   -1.2471 O.2     1  LIG1       -0.4584
      6 H           0.0342    1.2422   -1.8976 H       1  LIG1        0.1041
      7 S           2.5430    0.3527   -0.1677 S.3     1  LIG1       -0.1393
      8 H           3.6755    0.6593   -0.8274 H       1  LIG1        0.1072
      9 C           2.9208    3.5011    1.0939 C.3     1  LIG1       -0.0350
     10 H           2.6504    4.4053    1.6428 H       1  LIG1        0.0279
     11 H           3.8870    3.6818    0.6140 H       1  LIG1        0.0279
     12 H           3.0536    2.6859    1.8097 H       1  LIG1        0.0279
     13 C           0.5275    5.3225   -0.2301 C.ar    1  LIG1        0.1843
     14 C           1.2508    6.4826   -0.1926 C.ar    1  LIG1        0.0573
     15 C           0.3224    7.5480    0.0624 C.ar    1  LIG1        0.0123
     16 C          -0.9016    6.9506    0.1198 C.ar    1  LIG1        0.1758
     17 O          -0.7854    5.5997   -0.0378 O.2     1  LIG1       -0.4472
     18 S           3.0003    6.6350   -0.3842 S.3     1  LIG1       -0.1386
     19 H           2.9766    7.4307   -1.4691 H       1  LIG1        0.1072
     20 C           0.6619    8.9879    0.2526 C.3     1  LIG1       -0.0349
     21 H          -0.1445    9.5147    0.7664 H       1  LIG1        0.0279
     22 H           0.8301    9.4947   -0.7022 H       1  LIG1        0.0279
     23 H           1.5745    9.0851    0.8462 H       1  LIG1        0.0279
     24 C          -2.2412    7.4574    0.3282 C.ar    1  LIG1        0.1833
     25 C          -2.9339    8.5279   -0.1648 C.ar    1  LIG1        0.0566
     26 C          -4.2328    8.5053    0.4543 C.ar    1  LIG1        0.0012
     27 C          -4.2221    7.4116    1.2530 C.ar    1  LIG1        0.0967
     28 O          -3.0267    6.7726    1.2003 O.2     1  LIG1       -0.4584
     29 H          -4.9634    6.9726    1.9024 H       1  LIG1        0.1032
     30 S          -2.3405    9.7209   -1.3255 S.3     1  LIG1       -0.1386
     31 H          -3.2436    9.4735   -2.2921 H       1  LIG1        0.1072
     32 C          -5.3475    9.4735    0.2358 C.3     1  LIG1       -0.0357
     33 H          -6.1915    9.2528    0.8924 H       1  LIG1        0.0279
     34 H          -5.7108    9.4415   -0.7962 H       1  LIG1        0.0279
     35 H          -5.0196   10.4984    0.4305 H       1  LIG1        0.0279
@<TRIPOS>BOND
     1    31    30    1
     2     6     1    1
     3    19    18    1
     4    30    25    1
     5     1     5   ar
     6     1     2   ar
     7     5     4   ar
     8     8     7    1
     9    34    32    1
    10    22    20    1
    11     2     7    1
    12     2     3   ar
    13     4    13    1
    14     4     3   ar
    15    18    14    1
    16    13    14   ar
    17    13    17   ar
    18    14    15   ar
    19    25    24   ar
    20    25    26   ar
    21    17    16   ar
    22    15    16   ar
    23    15    20    1
    24     3     9    1
    25    16    24    1
    26    32    35    1
    27    32    26    1
    28    32    33    1
    29    20    21    1
    30    20    23    1
    31    24    28   ar
    32    26    27   ar
    33    11     9    1
    34     9    10    1
    35     9    12    1
    36    28    27   ar
    37    27    29    1
