@<TRIPOS>MOLECULE
mol_data/opt/cam/geoms/mol2/12gi12gi12gi-12gi-.out
 46 49 0 0 0
SMALL
GASTEIGER

@<TRIPOS>ATOM
      1 C           1.1316    2.3739   -2.2407 C.ar    1  LIG1        0.1061
      2 C           1.9734    2.0377   -1.2301 C.ar    1  LIG1        0.0462
      3 C           1.9518    3.1312   -0.2949 C.ar    1  LIG1        0.0116
      4 C           1.1068    4.0503   -0.8429 C.ar    1  LIG1        0.1748
      5 O           0.5935    3.5878   -2.0254 O.2     1  LIG1       -0.4584
      6 H           0.8282    1.8583   -3.1382 H       1  LIG1        0.1041
      7 S           2.7991    0.4845   -1.0635 S.3     1  LIG1       -0.1393
      8 H           4.0548    0.9183   -1.2806 H       1  LIG1        0.1072
      9 C           2.6686    3.1913    1.0117 C.3     1  LIG1       -0.0350
     10 H           2.2071    3.9213    1.6797 H       1  LIG1        0.0279
     11 H           3.7171    3.4759    0.8843 H       1  LIG1        0.0279
     12 H           2.6471    2.2127    1.4977 H       1  LIG1        0.0279
     13 C           0.6541    5.3572   -0.4178 C.ar    1  LIG1        0.1843
     14 C           1.2867    6.4473    0.1133 C.ar    1  LIG1        0.0573
     15 C           0.2780    7.4383    0.3618 C.ar    1  LIG1        0.0123
     16 C          -0.8865    6.8818   -0.0777 C.ar    1  LIG1        0.1758
     17 O          -0.6717    5.6134   -0.5340 O.2     1  LIG1       -0.4472
     18 S           3.0123    6.5921    0.4621 S.3     1  LIG1       -0.1386
     19 H           3.2515    7.6484   -0.3364 H       1  LIG1        0.1072
     20 C           0.4882    8.7694    1.0011 C.3     1  LIG1       -0.0349
     21 H          -0.4517    9.1732    1.3823 H       1  LIG1        0.0279
     22 H           0.8978    9.4983    0.2955 H       1  LIG1        0.0279
     23 H           1.1914    8.6809    1.8332 H       1  LIG1        0.0279
     24 C          -2.2524    7.3564   -0.1264 C.ar    1  LIG1        0.1843
     25 C          -2.8272    8.5401   -0.4995 C.ar    1  LIG1        0.0573
     26 C          -4.2405    8.4059   -0.2855 C.ar    1  LIG1        0.0123
     27 C          -4.4151    7.1313    0.1661 C.ar    1  LIG1        0.1758
     28 O          -3.2143    6.4935    0.2827 O.2     1  LIG1       -0.4472
     29 S          -1.9853    9.9736   -1.0971 S.3     1  LIG1       -0.1386
     30 H          -2.5872   10.0264   -2.2994 H       1  LIG1        0.1072
     31 C          -5.2693    9.4661   -0.4910 C.3     1  LIG1       -0.0349
     32 H          -6.1834    9.2351    0.0595 H       1  LIG1        0.0279
     33 H          -5.5385    9.5706   -1.5462 H       1  LIG1        0.0279
     34 H          -4.8903   10.4318   -0.1469 H       1  LIG1        0.0279
     35 C          -5.5838    6.3689    0.5507 C.ar    1  LIG1        0.1833
     36 C          -6.8248    6.2006    0.0027 C.ar    1  LIG1        0.0566
     37 C          -7.5548    5.3276    0.8836 C.ar    1  LIG1        0.0012
     38 C          -6.6863    5.0264    1.8783 C.ar    1  LIG1        0.0967
     39 O          -5.4962    5.6532    1.7022 O.2     1  LIG1       -0.4584
     40 H          -6.7656    4.4029    2.7552 H       1  LIG1        0.1032
     41 S          -7.4236    6.9306   -1.4910 S.3     1  LIG1       -0.1386
     42 H          -7.6266    5.7841   -2.1659 H       1  LIG1        0.1072
     43 C          -8.9582    4.8494    0.7118 C.3     1  LIG1       -0.0357
     44 H          -9.2793    4.2614    1.5740 H       1  LIG1        0.0279
     45 H          -9.0618    4.2206   -0.1780 H       1  LIG1        0.0279
     46 H          -9.6465    5.6908    0.5940 H       1  LIG1        0.0279
@<TRIPOS>BOND
     1     6     1    1
     2    30    29    1
     3     1     5   ar
     4     1     2   ar
     5    42    41    1
     6     5     4   ar
     7    33    31    1
     8    41    36    1
     9     8     7    1
    10     2     7    1
    11     2     3   ar
    12    29    25    1
    13     4    13    1
    14     4     3   ar
    15    17    13   ar
    16    17    16   ar
    17    25    26   ar
    18    25    24   ar
    19    31    26    1
    20    31    34    1
    21    31    32    1
    22    13    14   ar
    23    19    18    1
    24     3     9    1
    25    26    27   ar
    26    45    43    1
    27    24    16    1
    28    24    28   ar
    29    16    15   ar
    30    36    35   ar
    31    36    37   ar
    32    14    15   ar
    33    14    18    1
    34    27    28   ar
    35    27    35    1
    36    22    20    1
    37    15    20    1
    38    35    39   ar
    39    46    43    1
    40    43    37    1
    41    43    44    1
    42    37    38   ar
    43    11     9    1
    44    20    21    1
    45    20    23    1
    46     9    12    1
    47     9    10    1
    48    39    38   ar
    49    38    40    1
