@<TRIPOS>MOLECULE
mol_data/opt/cam/geoms/mol2/12gi12gi12gi-.out
 35 37 0 0 0
SMALL
GASTEIGER

@<TRIPOS>ATOM
      1 C           0.5766    1.9568   -1.2949 C.ar    1  LIG1        0.1061
      2 C           1.6668    1.8496   -0.4931 C.ar    1  LIG1        0.0462
      3 C           1.8695    3.1440    0.1020 C.ar    1  LIG1        0.0116
      4 C           0.8861    3.9321   -0.4183 C.ar    1  LIG1        0.1748
      5 O           0.0860    3.2090   -1.2628 O.2     1  LIG1       -0.4584
      6 H           0.0565    1.2453   -1.9166 H       1  LIG1        0.1041
      7 S           2.5459    0.3535   -0.1600 S.3     1  LIG1       -0.1393
      8 H           3.6858    0.6613   -0.8065 H       1  LIG1        0.1072
      9 C           2.9090    3.5000    1.1106 C.3     1  LIG1       -0.0350
     10 H           2.6323    4.4033    1.6578 H       1  LIG1        0.0279
     11 H           3.8804    3.6817    0.6418 H       1  LIG1        0.0279
     12 H           3.0338    2.6838    1.8265 H       1  LIG1        0.0279
     13 C           0.5304    5.3230   -0.2375 C.ar    1  LIG1        0.1843
     14 C           1.2529    6.4832   -0.1901 C.ar    1  LIG1        0.0573
     15 C           0.3215    7.5480    0.0561 C.ar    1  LIG1        0.0123
     16 C          -0.9030    6.9504    0.0989 C.ar    1  LIG1        0.1758
     17 O          -0.7847    5.5997   -0.0595 O.2     1  LIG1       -0.4472
     18 S           3.0044    6.6362   -0.3617 S.3     1  LIG1       -0.1386
     19 H           2.9928    7.4335   -1.4457 H       1  LIG1        0.1072
     20 C           0.6586    8.9877    0.2523 C.3     1  LIG1       -0.0349
     21 H          -0.1536    9.5136    0.7579 H       1  LIG1        0.0279
     22 H           0.8374    9.4960   -0.6998 H       1  LIG1        0.0279
     23 H           1.5645    9.0842    0.8563 H       1  LIG1        0.0279
     24 C          -2.2448    7.4566    0.2930 C.ar    1  LIG1        0.1833
     25 C          -2.9322    8.5278   -0.2062 C.ar    1  LIG1        0.0566
     26 C          -4.2380    8.5040    0.3983 C.ar    1  LIG1        0.0012
     27 C          -4.2360    7.4091    1.1954 C.ar    1  LIG1        0.0967
     28 O          -3.0400    6.7703    1.1551 O.2     1  LIG1       -0.4584
     29 H          -4.9845    6.9689    1.8357 H       1  LIG1        0.1032
     30 S          -2.3260    9.7226   -1.3582 S.3     1  LIG1       -0.1386
     31 H          -3.2182    9.4767   -2.3353 H       1  LIG1        0.1072
     32 C          -5.3503    9.4724    0.1688 C.3     1  LIG1       -0.0357
     33 H          -6.2016    9.2505    0.8155 H       1  LIG1        0.0279
     34 H          -5.7020    9.4419   -0.8673 H       1  LIG1        0.0279
     35 H          -5.0248   10.4970    0.3688 H       1  LIG1        0.0279
@<TRIPOS>BOND
     1    31    30    1
     2     6     1    1
     3    19    18    1
     4    30    25    1
     5     1     5   ar
     6     1     2   ar
     7     5     4   ar
     8    34    32    1
     9     8     7    1
    10    22    20    1
    11     2     7    1
    12     2     3   ar
    13     4    13    1
    14     4     3   ar
    15    18    14    1
    16    13    14   ar
    17    13    17   ar
    18    25    24   ar
    19    25    26   ar
    20    14    15   ar
    21    17    16   ar
    22    15    16   ar
    23    15    20    1
    24    16    24    1
    25     3     9    1
    26    32    35    1
    27    32    26    1
    28    32    33    1
    29    20    21    1
    30    20    23    1
    31    24    28   ar
    32    26    27   ar
    33    11     9    1
    34     9    10    1
    35     9    12    1
    36    28    27   ar
    37    27    29    1
