@<TRIPOS>MOLECULE
mol_data/opt/cam/geoms/mol2/12gi12gi-12gi.out
 35 37 0 0 0
SMALL
GASTEIGER

@<TRIPOS>ATOM
      1 C           0.5606    1.9502   -1.2712 C.ar    1  LIG1        0.1061
      2 C           1.6602    1.8468   -0.4818 C.ar    1  LIG1        0.0462
      3 C           1.8701    3.1441    0.1043 C.ar    1  LIG1        0.0116
      4 C           0.8807    3.9298   -0.4082 C.ar    1  LIG1        0.1748
      5 O           0.0706    3.2027   -1.2395 O.2     1  LIG1       -0.4584
      6 H           0.0331    1.2357   -1.8831 H       1  LIG1        0.1041
      7 S           2.5430    0.3522   -0.1517 S.3     1  LIG1       -0.1393
      8 H           3.6751    0.6566   -0.8132 H       1  LIG1        0.1072
      9 C           2.9216    3.5049    1.0987 C.3     1  LIG1       -0.0350
     10 H           2.6516    4.4110    1.6446 H       1  LIG1        0.0279
     11 H           3.8874    3.6841    0.6175 H       1  LIG1        0.0279
     12 H           3.0549    2.6922    1.8172 H       1  LIG1        0.0279
     13 C           0.5274    5.3217   -0.2301 C.ar    1  LIG1        0.1843
     14 C           1.2507    6.4819   -0.1970 C.ar    1  LIG1        0.0573
     15 C           0.3224    7.5482    0.0549 C.ar    1  LIG1        0.0123
     16 C          -0.9016    6.9510    0.1152 C.ar    1  LIG1        0.1758
     17 O          -0.7854    5.5996   -0.0379 O.2     1  LIG1       -0.4472
     18 S           3.0000    6.6337   -0.3903 S.3     1  LIG1       -0.1386
     19 H           2.9756    7.4256   -1.4779 H       1  LIG1        0.1072
     20 C           0.6620    8.9887    0.2399 C.3     1  LIG1       -0.0349
     21 H          -0.1441    9.5174    0.7524 H       1  LIG1        0.0279
     22 H           0.8296    9.4923   -0.7168 H       1  LIG1        0.0279
     23 H           1.5750    9.0881    0.8326 H       1  LIG1        0.0279
     24 C          -2.2410    7.4585    0.3226 C.ar    1  LIG1        0.1833
     25 C          -2.9340    8.5273   -0.1737 C.ar    1  LIG1        0.0566
     26 C          -4.2326    8.5068    0.4464 C.ar    1  LIG1        0.0012
     27 C          -4.2213    7.4159    1.2488 C.ar    1  LIG1        0.0967
     28 O          -3.0259    6.7767    1.1976 O.2     1  LIG1       -0.4584
     29 H          -4.9622    6.9791    1.9002 H       1  LIG1        0.1032
     30 S          -2.3414    9.7162   -1.3388 S.3     1  LIG1       -0.1386
     31 H          -3.2452    9.4656   -2.3039 H       1  LIG1        0.1072
     32 C          -5.3474    9.4743    0.2252 C.3     1  LIG1       -0.0357
     33 H          -6.1910    9.2558    0.8832 H       1  LIG1        0.0279
     34 H          -5.7114    9.4387   -0.8064 H       1  LIG1        0.0279
     35 H          -5.0194   10.4998    0.4163 H       1  LIG1        0.0279
@<TRIPOS>BOND
     1    31    30    1
     2     6     1    1
     3    19    18    1
     4    30    25    1
     5     1     5   ar
     6     1     2   ar
     7     5     4   ar
     8     8     7    1
     9    34    32    1
    10    22    20    1
    11     2     7    1
    12     2     3   ar
    13     4    13    1
    14     4     3   ar
    15    18    14    1
    16    13    14   ar
    17    13    17   ar
    18    14    15   ar
    19    25    24   ar
    20    25    26   ar
    21    17    16   ar
    22    15    16   ar
    23    15    20    1
    24     3     9    1
    25    16    24    1
    26    32    35    1
    27    32    26    1
    28    32    33    1
    29    20    21    1
    30    20    23    1
    31    24    28   ar
    32    26    27   ar
    33    11     9    1
    34     9    10    1
    35     9    12    1
    36    28    27   ar
    37    27    29    1
