@<TRIPOS>MOLECULE
mol_data/opt/cam/geoms/mol2/12gi12gi.out
 24 25 0 0 0
SMALL
GASTEIGER

@<TRIPOS>ATOM
      1 C           0.2923    1.8738   -0.6267 C.ar    1  LIG1        0.1061
      2 C           1.5687    1.8494   -0.1655 C.ar    1  LIG1        0.0462
      3 C           1.8957    3.1987    0.2138 C.ar    1  LIG1        0.0116
      4 C           0.7824    3.9295   -0.0772 C.ar    1  LIG1        0.1747
      5 O          -0.2045    3.1235   -0.5801 O.2     1  LIG1       -0.4584
      6 H          -0.3633    1.1020   -0.9978 H       1  LIG1        0.1041
      7 S           2.5493    0.3951    0.0481 S.3     1  LIG1       -0.1393
      8 H           3.4458    0.6315   -0.9277 H       1  LIG1        0.1072
      9 C           3.1704    3.6587    0.8369 C.3     1  LIG1       -0.0350
     10 H           3.0341    4.6126    1.3502 H       1  LIG1        0.0279
     11 H           3.9582    3.7950    0.0902 H       1  LIG1        0.0279
     12 H           3.5240    2.9203    1.5609 H       1  LIG1        0.0279
     13 C           0.4554    5.3332    0.0577 C.ar    1  LIG1        0.1833
     14 C           1.1231    6.4899   -0.2332 C.ar    1  LIG1        0.0566
     15 C           0.2676    7.5772    0.1644 C.ar    1  LIG1        0.0012
     16 C          -0.8530    6.9857    0.6419 C.ar    1  LIG1        0.0967
     17 O          -0.7553    5.6328    0.5972 O.2     1  LIG1       -0.4584
     18 H          -1.7756    7.3792    1.0395 H       1  LIG1        0.1032
     19 S           2.7369    6.6218   -0.9406 S.3     1  LIG1       -0.1386
     20 H           2.3723    7.2610   -2.0676 H       1  LIG1        0.1072
     21 C           0.5592    9.0364    0.0486 C.3     1  LIG1       -0.0357
     22 H          -0.2345    9.6314    0.5048 H       1  LIG1        0.0279
     23 H           0.6491    9.3464   -0.9973 H       1  LIG1        0.0279
     24 H           1.5028    9.2867    0.5411 H       1  LIG1        0.0279
@<TRIPOS>BOND
     1    20    19    1
     2     6     1    1
     3    23    21    1
     4    19    14    1
     5     8     7    1
     6     1     5   ar
     7     1     2   ar
     8     5     4   ar
     9    14    13   ar
    10    14    15   ar
    11     2     7    1
    12     2     3   ar
    13     4    13    1
    14     4     3   ar
    15    21    15    1
    16    21    22    1
    17    21    24    1
    18    13    17   ar
    19    11     9    1
    20    15    16   ar
    21     3     9    1
    22    17    16   ar
    23    16    18    1
    24     9    10    1
    25     9    12    1
