@<TRIPOS>MOLECULE
mol_data/opt/cam/geoms/mol2/12gi12gi-12gi-12gi-.out
 46 49 0 0 0
SMALL
GASTEIGER

@<TRIPOS>ATOM
      1 C           1.1097    2.3715   -2.2358 C.ar    1  LIG1        0.1061
      2 C           1.9612    2.0362   -1.2329 C.ar    1  LIG1        0.0462
      3 C           1.9487    3.1307   -0.2987 C.ar    1  LIG1        0.0116
      4 C           1.0985    4.0493   -0.8394 C.ar    1  LIG1        0.1748
      5 O           0.5739    3.5856   -2.0165 O.2     1  LIG1       -0.4584
      6 H           0.7977    1.8550   -3.1297 H       1  LIG1        0.1041
      7 S           2.7884    0.4832   -1.0727 S.3     1  LIG1       -0.1393
      8 H           4.0419    0.9166   -1.3023 H       1  LIG1        0.1072
      9 C           2.6780    3.1920    1.0010 C.3     1  LIG1       -0.0350
     10 H           2.2230    3.9227    1.6726 H       1  LIG1        0.0279
     11 H           3.7252    3.4763    0.8631 H       1  LIG1        0.0279
     12 H           2.6611    2.2139    1.4881 H       1  LIG1        0.0279
     13 C           0.6500    5.3567   -0.4113 C.ar    1  LIG1        0.1843
     14 C           1.2878    6.4472    0.1126 C.ar    1  LIG1        0.0573
     15 C           0.2816    7.4385    0.3698 C.ar    1  LIG1        0.0123
     16 C          -0.8872    6.8816   -0.0579 C.ar    1  LIG1        0.1758
     17 O          -0.6768    5.6129   -0.5150 O.2     1  LIG1       -0.4472
     18 S           3.0166    6.5922    0.4447 S.3     1  LIG1       -0.1386
     19 H           3.2482    7.6477   -0.3571 H       1  LIG1        0.1072
     20 C           0.4980    8.7703    1.0057 C.3     1  LIG1       -0.0349
     21 H          -0.4382    9.1745    1.3956 H       1  LIG1        0.0279
     22 H           0.9008    9.4984    0.2955 H       1  LIG1        0.0279
     23 H           1.2091    8.6825    1.8311 H       1  LIG1        0.0279
     24 C          -2.2534    7.3563   -0.0940 C.ar    1  LIG1        0.1843
     25 C          -2.8317    8.5397   -0.4627 C.ar    1  LIG1        0.0573
     26 C          -4.2429    8.4058   -0.2350 C.ar    1  LIG1        0.0123
     27 C          -4.4132    7.1317    0.2195 C.ar    1  LIG1        0.1758
     28 O          -3.2114    6.4939    0.3252 O.2     1  LIG1       -0.4472
     29 S          -1.9955    9.9725   -1.0698 S.3     1  LIG1       -0.1386
     30 H          -2.6089   10.0242   -2.2663 H       1  LIG1        0.1072
     31 C          -5.2736    9.4659   -0.4317 C.3     1  LIG1       -0.0349
     32 H          -6.1823    9.2355    0.1278 H       1  LIG1        0.0279
     33 H          -5.5529    9.5694   -1.4844 H       1  LIG1        0.0279
     34 H          -4.8912   10.4319   -0.0922 H       1  LIG1        0.0279
     35 C          -5.5782    6.3698    0.6160 C.ar    1  LIG1        0.1833
     36 C          -6.8245    6.2010    0.0802 C.ar    1  LIG1        0.0566
     37 C          -7.5460    5.3289    0.9690 C.ar    1  LIG1        0.0012
     38 C          -6.6680    5.0287    1.9555 C.ar    1  LIG1        0.0967
     39 O          -5.4796    5.6552    1.7674 O.2     1  LIG1       -0.4584
     40 H          -6.7389    4.4060    2.8338 H       1  LIG1        0.1032
     41 S          -7.4376    6.9296   -1.4084 S.3     1  LIG1       -0.1386
     42 H          -7.6471    5.7824   -2.0802 H       1  LIG1        0.1072
     43 C          -8.9510    4.8507    0.8111 C.3     1  LIG1       -0.0357
     44 H          -9.2639    4.2635    1.6769 H       1  LIG1        0.0279
     45 H          -9.0632    4.2210   -0.0771 H       1  LIG1        0.0279
     46 H          -9.6403    5.6920    0.6991 H       1  LIG1        0.0279
@<TRIPOS>BOND
     1     6     1    1
     2    30    29    1
     3     1     5   ar
     4     1     2   ar
     5    42    41    1
     6     5     4   ar
     7    33    31    1
     8    41    36    1
     9     8     7    1
    10     2     7    1
    11     2     3   ar
    12    29    25    1
    13     4    13    1
    14     4     3   ar
    15    17    13   ar
    16    17    16   ar
    17    25    26   ar
    18    25    24   ar
    19    31    26    1
    20    31    34    1
    21    31    32    1
    22    13    14   ar
    23    19    18    1
    24     3     9    1
    25    26    27   ar
    26    24    16    1
    27    24    28   ar
    28    45    43    1
    29    16    15   ar
    30    36    35   ar
    31    36    37   ar
    32    14    15   ar
    33    14    18    1
    34    27    28   ar
    35    27    35    1
    36    22    20    1
    37    15    20    1
    38    35    39   ar
    39    46    43    1
    40    43    37    1
    41    43    44    1
    42    11     9    1
    43    37    38   ar
    44     9    12    1
    45     9    10    1
    46    20    21    1
    47    20    23    1
    48    39    38   ar
    49    38    40    1
