@<TRIPOS>MOLECULE
mol_data/opt/cam/geoms/mol2/12gi12gi12gi12gi.out
 46 49 0 0 0
SMALL
GASTEIGER

@<TRIPOS>ATOM
      1 C           1.1149    2.3620   -2.2311 C.ar    1  LIG1        0.1061
      2 C           1.9639    2.0308   -1.2248 C.ar    1  LIG1        0.0462
      3 C           1.9492    3.1290   -0.2950 C.ar    1  LIG1        0.0116
      4 C           1.1005    4.0455   -0.8416 C.ar    1  LIG1        0.1748
      5 O           0.5787    3.5771   -2.0181 O.2     1  LIG1       -0.4584
      6 H           0.8050    1.8419   -3.1237 H       1  LIG1        0.1041
      7 S           2.7905    0.4783   -1.0562 S.3     1  LIG1       -0.1393
      8 H           4.0446    0.9106   -1.2845 H       1  LIG1        0.1072
      9 C           2.6753    3.1955    1.0061 C.3     1  LIG1       -0.0350
     10 H           2.2187    3.9290    1.6737 H       1  LIG1        0.0279
     11 H           3.7229    3.4792    0.8697 H       1  LIG1        0.0279
     12 H           2.6571    2.2195    1.4973 H       1  LIG1        0.0279
     13 C           0.6510    5.3547   -0.4200 C.ar    1  LIG1        0.1843
     14 C           1.2877    6.4473    0.1011 C.ar    1  LIG1        0.0573
     15 C           0.2810    7.4398    0.3518 C.ar    1  LIG1        0.0123
     16 C          -0.8868    6.8813   -0.0765 C.ar    1  LIG1        0.1758
     17 O          -0.6754    5.6106   -0.5280 O.2     1  LIG1       -0.4472
     18 S           3.0157    6.5935    0.4369 S.3     1  LIG1       -0.1386
     19 H           3.2494    7.6456   -0.3687 H       1  LIG1        0.1072
     20 C           0.4960    8.7741    0.9828 C.3     1  LIG1       -0.0349
     21 H          -0.4411    9.1800    1.3687 H       1  LIG1        0.0279
     22 H           0.9006    9.4993    0.2706 H       1  LIG1        0.0279
     23 H           1.2051    8.6896    1.8103 H       1  LIG1        0.0279
     24 C          -2.2529    7.3559   -0.1179 C.ar    1  LIG1        0.1843
     25 C          -2.8301    8.5379   -0.4929 C.ar    1  LIG1        0.0573
     26 C          -4.2419    8.4050   -0.2681 C.ar    1  LIG1        0.0123
     27 C          -4.4134    7.1328    0.1912 C.ar    1  LIG1        0.1758
     28 O          -3.2120    6.4954    0.3024 O.2     1  LIG1       -0.4472
     29 S          -1.9922    9.9681   -1.1038 S.3     1  LIG1       -0.1386
     30 H          -2.6027   10.0150   -2.3020 H       1  LIG1        0.1072
     31 C          -5.2719    9.4645   -0.4717 C.3     1  LIG1       -0.0349
     32 H          -6.1821    9.2365    0.0865 H       1  LIG1        0.0279
     33 H          -5.5487    9.5637   -1.5254 H       1  LIG1        0.0279
     34 H          -4.8903   10.4318   -0.1352 H       1  LIG1        0.0279
     35 C          -5.5795    6.3727    0.5880 C.ar    1  LIG1        0.1833
     36 C          -6.8245    6.2018    0.0497 C.ar    1  LIG1        0.0566
     37 C          -7.5483    5.3335    0.9403 C.ar    1  LIG1        0.0012
     38 C          -6.6728    5.0372    1.9302 C.ar    1  LIG1        0.0967
     39 O          -5.4838    5.6628    1.7424 O.2     1  LIG1       -0.4584
     40 H          -6.7459    4.4181    2.8108 H       1  LIG1        0.1032
     41 S          -7.4338    6.9244   -1.4433 S.3     1  LIG1       -0.1386
     42 H          -7.6419    5.7745   -2.1109 H       1  LIG1        0.1072
     43 C          -8.9530    4.8547    0.7809 C.3     1  LIG1       -0.0357
     44 H          -9.2681    4.2712    1.6483 H       1  LIG1        0.0279
     45 H          -9.0631    4.2214   -0.1049 H       1  LIG1        0.0279
     46 H          -9.6419    5.6957    0.6638 H       1  LIG1        0.0279
@<TRIPOS>BOND
     1     6     1    1
     2    30    29    1
     3     1     5   ar
     4     1     2   ar
     5    42    41    1
     6     5     4   ar
     7    33    31    1
     8    41    36    1
     9     8     7    1
    10     2     7    1
    11     2     3   ar
    12    29    25    1
    13     4    13    1
    14     4     3   ar
    15    17    13   ar
    16    17    16   ar
    17    25    26   ar
    18    25    24   ar
    19    31    26    1
    20    31    34    1
    21    31    32    1
    22    13    14   ar
    23    19    18    1
    24     3     9    1
    25    26    27   ar
    26    24    16    1
    27    24    28   ar
    28    45    43    1
    29    16    15   ar
    30    36    35   ar
    31    36    37   ar
    32    14    15   ar
    33    14    18    1
    34    27    28   ar
    35    27    35    1
    36    22    20    1
    37    15    20    1
    38    35    39   ar
    39    46    43    1
    40    43    37    1
    41    43    44    1
    42    11     9    1
    43    37    38   ar
    44    20    21    1
    45    20    23    1
    46     9    12    1
    47     9    10    1
    48    39    38   ar
    49    38    40    1
