@<TRIPOS>MOLECULE
mol_data/opt/cam/geoms/mol2/12gi.out
 13 13 0 0 0
SMALL
GASTEIGER

@<TRIPOS>ATOM
      1 C           0.1622    1.8833    0.0022 C.ar    1  LIG1        0.1051
      2 C           1.5169    1.9182    0.0743 C.ar    1  LIG1        0.0454
      3 C           1.8917    3.3111    0.0769 C.ar    1  LIG1        0.0004
      4 C           0.7211    3.9873   -0.0033 C.ar    1  LIG1        0.0957
      5 O          -0.3401    3.1346   -0.0440 O.2     1  LIG1       -0.4696
      6 H          -0.5471    1.0711   -0.0171 H       1  LIG1        0.1041
      7 H           0.4824    5.0388   -0.0351 H       1  LIG1        0.1032
      8 S           2.5695    0.5102    0.2573 S.3     1  LIG1       -0.1393
      9 H           3.1139    0.5223   -0.9740 H       1  LIG1        0.1072
     10 C           3.2739    3.8699    0.1511 C.3     1  LIG1       -0.0357
     11 H           3.2537    4.9598    0.2154 H       1  LIG1        0.0279
     12 H           3.8634    3.5968   -0.7295 H       1  LIG1        0.0279
     13 H           3.8049    3.4841    1.0256 H       1  LIG1        0.0279
@<TRIPOS>BOND
     1     9     8    1
     2    12    10    1
     3     5     4   ar
     4     5     1   ar
     5     7     4    1
     6     6     1    1
     7     4     3   ar
     8     1     2   ar
     9     2     3   ar
    10     2     8    1
    11     3    10    1
    12    10    11    1
    13    10    13    1
