@<TRIPOS>MOLECULE
mol_data/opt/cam/geoms/mol2/12gl12gl-12gl-12gl-.out
 50 53 0 0 0
SMALL
GASTEIGER

@<TRIPOS>ATOM
      1 C           0.6695    1.4818    0.9817 C.ar    1  LIG1        0.1096
      2 C           1.8777    1.4481    0.3604 C.ar    1  LIG1        0.0852
      3 C           2.1587    2.8135   -0.0013 C.ar    1  LIG1        0.1819
      4 C           1.1052    3.5586    0.4511 C.ar    1  LIG1        0.2133
      5 O           0.1904    2.7358    1.0468 O.2     1  LIG1       -0.4549
      6 H           0.0522    0.7035    1.4020 H       1  LIG1        0.1042
      7 S           2.7596   -0.0250   -0.0581 S.3     1  LIG1       -0.1361
      8 H           3.6241   -0.0313    0.9744 H       1  LIG1        0.1073
      9 O           3.1808    3.3049   -0.7376 O.3     1  LIG1       -0.4902
     10 C           4.4939    3.0817   -0.2294 C.3     1  LIG1        0.0790
     11 H           5.1696    3.6079   -0.9030 H       1  LIG1        0.0660
     12 H           4.5934    3.4973    0.7782 H       1  LIG1        0.0660
     13 H           4.7416    2.0180   -0.2262 H       1  LIG1        0.0660
     14 C           0.7800    4.9592    0.3810 C.ar    1  LIG1        0.1912
     15 C           1.5238    6.0987    0.2450 C.ar    1  LIG1        0.0964
     16 C           0.5812    7.1732    0.2208 C.ar    1  LIG1        0.1827
     17 C          -0.6606    6.6258    0.3687 C.ar    1  LIG1        0.2144
     18 O          -0.5446    5.2741    0.4512 O.2     1  LIG1       -0.4435
     19 S           3.2690    6.2884    0.1355 S.3     1  LIG1       -0.1353
     20 H           3.2625    7.5224    0.6713 H       1  LIG1        0.1073
     21 O           0.8869    8.4924    0.1147 O.3     1  LIG1       -0.4902
     22 C           1.0258    8.9486   -1.2322 C.3     1  LIG1        0.0790
     23 H           1.2742   10.0080   -1.1730 H       1  LIG1        0.0660
     24 H           1.8252    8.4074   -1.7481 H       1  LIG1        0.0660
     25 H           0.0871    8.8224   -1.7802 H       1  LIG1        0.0660
     26 C          -1.9729    7.2052    0.4556 C.ar    1  LIG1        0.1912
     27 C          -2.4271    8.4389    0.8356 C.ar    1  LIG1        0.0964
     28 C          -3.8453    8.3937    0.6577 C.ar    1  LIG1        0.1827
     29 C          -4.1602    7.1421    0.2133 C.ar    1  LIG1        0.2143
     30 O          -3.0203    6.4177    0.0741 O.2     1  LIG1       -0.4435
     31 S          -1.5376    9.8242    1.4568 S.3     1  LIG1       -0.1353
     32 H          -2.6385   10.3812    1.9948 H       1  LIG1        0.1073
     33 O          -4.7057    9.4106    0.9292 O.3     1  LIG1       -0.4902
     34 C          -4.9358   10.2855   -0.1758 C.3     1  LIG1        0.0790
     35 H          -5.6342   11.0454    0.1741 H       1  LIG1        0.0660
     36 H          -4.0036   10.7592   -0.5006 H       1  LIG1        0.0660
     37 H          -5.3789    9.7401   -1.0147 H       1  LIG1        0.0660
     38 C          -5.4144    6.5109   -0.1011 C.ar    1  LIG1        0.1902
     39 C          -6.6991    6.7291    0.3120 C.ar    1  LIG1        0.0956
     40 C          -7.4968    5.7708   -0.4004 C.ar    1  LIG1        0.1715
     41 C          -6.6496    5.0440   -1.1699 C.ar    1  LIG1        0.1354
     42 O          -5.3824    5.4906   -1.0069 O.2     1  LIG1       -0.4548
     43 H          -6.7936    4.2103   -1.8373 H       1  LIG1        0.1068
     44 S          -7.3175    7.8682    1.5022 S.3     1  LIG1       -0.1354
     45 H          -8.4539    7.1708    1.6875 H       1  LIG1        0.1073
     46 O          -8.8388    5.6038   -0.2537 O.3     1  LIG1       -0.4908
     47 C          -9.6206    6.4484   -1.0940 C.3     1  LIG1        0.0790
     48 H         -10.6650    6.2361   -0.8639 H       1  LIG1        0.0660
     49 H          -9.4111    7.5059   -0.9000 H       1  LIG1        0.0660
     50 H          -9.4271    6.2330   -2.1502 H       1  LIG1        0.0660
@<TRIPOS>BOND
     1    50    47    1
     2    43    41    1
     3    25    22    1
     4    24    22    1
     5    22    23    1
     6    22    21    1
     7    41    42   ar
     8    41    40   ar
     9    47    49    1
    10    47    48    1
    11    47    46    1
    12    37    34    1
    13    42    38   ar
    14    11    10    1
    15     9    10    1
    16     9     3    1
    17    36    34    1
    18    40    46    1
    19    40    39   ar
    20    10    13    1
    21    10    12    1
    22    34    35    1
    23    34    33    1
    24    38    29    1
    25    38    39   ar
    26     7     2    1
    27     7     8    1
    28     3     2   ar
    29     3     4   ar
    30    30    29   ar
    31    30    26   ar
    32    21    16    1
    33    19    15    1
    34    19    20    1
    35    29    28   ar
    36    16    15   ar
    37    16    17   ar
    38    15    14   ar
    39    39    44    1
    40     2     1   ar
    41    17    18   ar
    42    17    26    1
    43    14     4    1
    44    14    18   ar
    45     4     5   ar
    46    26    27   ar
    47    28    27   ar
    48    28    33    1
    49    27    31    1
    50     1     5   ar
    51     1     6    1
    52    31    32    1
    53    44    45    1
