@<TRIPOS>MOLECULE
mol_data/opt/cam/geoms/mol2/12gl12gl-12gl12gl.out
 50 53 0 0 0
SMALL
GASTEIGER

@<TRIPOS>ATOM
      1 C           0.8609    1.5151    1.4955 C.ar    1  LIG1        0.1096
      2 C           2.0666    1.5131    0.8710 C.ar    1  LIG1        0.0852
      3 C           2.2828    2.8696    0.4521 C.ar    1  LIG1        0.1819
      4 C           1.1986    3.5865    0.8692 C.ar    1  LIG1        0.2133
      5 O           0.3230    2.7532    1.5024 O.2     1  LIG1       -0.4549
      6 H           0.2821    0.7347    1.9632 H       1  LIG1        0.1042
      7 S           3.0882    0.1070    0.5695 S.3     1  LIG1       -0.1361
      8 H           4.1508    0.5124    1.2877 H       1  LIG1        0.1073
      9 O           3.3635    3.3655   -0.1991 O.3     1  LIG1       -0.4902
     10 C           3.3882    3.0872   -1.5991 C.3     1  LIG1        0.0790
     11 H           4.2946    3.5523   -1.9862 H       1  LIG1        0.0660
     12 H           3.4179    2.0097   -1.7840 H       1  LIG1        0.0660
     13 H           2.5134    3.5222   -2.0936 H       1  LIG1        0.0660
     14 C           0.8567    4.9805    0.7683 C.ar    1  LIG1        0.1912
     15 C           1.6040    6.1204    0.6556 C.ar    1  LIG1        0.0964
     16 C           0.6576    7.1878    0.5566 C.ar    1  LIG1        0.1827
     17 C          -0.5886    6.6360    0.6423 C.ar    1  LIG1        0.2144
     18 O          -0.4725    5.2874    0.7565 O.2     1  LIG1       -0.4435
     19 S           3.3523    6.3199    0.6567 S.3     1  LIG1       -0.1353
     20 H           3.2797    7.6108    1.0311 H       1  LIG1        0.1073
     21 O           0.9641    8.5069    0.4433 O.3     1  LIG1       -0.4902
     22 C           1.1364    8.9485   -0.9040 C.3     1  LIG1        0.0790
     23 H           1.3802   10.0094   -0.8506 H       1  LIG1        0.0660
     24 H           1.9508    8.4044   -1.3931 H       1  LIG1        0.0660
     25 H           0.2128    8.8138   -1.4754 H       1  LIG1        0.0660
     26 C          -1.9069    7.2087    0.6400 C.ar    1  LIG1        0.1912
     27 C          -2.3902    8.4481    0.9611 C.ar    1  LIG1        0.0964
     28 C          -3.7960    8.3859    0.7064 C.ar    1  LIG1        0.1827
     29 C          -4.0768    7.1205    0.2785 C.ar    1  LIG1        0.2143
     30 O          -2.9260    6.4025    0.2219 O.2     1  LIG1       -0.4435
     31 S          -1.5478    9.8574    1.5932 S.3     1  LIG1       -0.1353
     32 H          -2.6847   10.4290    2.0320 H       1  LIG1        0.1073
     33 O          -4.6766    9.4029    0.9024 O.3     1  LIG1       -0.4902
     34 C          -4.8624   10.2376   -0.2412 C.3     1  LIG1        0.0790
     35 H          -5.5819   11.0025    0.0502 H       1  LIG1        0.0660
     36 H          -3.9199   10.7087   -0.5391 H       1  LIG1        0.0660
     37 H          -5.2624    9.6602   -1.0804 H       1  LIG1        0.0660
     38 C          -5.3072    6.4702   -0.0871 C.ar    1  LIG1        0.1902
     39 C          -6.6138    6.6862    0.2517 C.ar    1  LIG1        0.0956
     40 C          -7.3646    5.7026   -0.4772 C.ar    1  LIG1        0.1715
     41 C          -6.4717    4.9652   -1.1822 C.ar    1  LIG1        0.1354
     42 O          -5.2185    5.4280   -0.9639 O.2     1  LIG1       -0.4548
     43 H          -6.5732    4.1136   -1.8345 H       1  LIG1        0.1068
     44 S          -7.3035    7.8488    1.3783 S.3     1  LIG1       -0.1354
     45 H          -8.4424    7.1456    1.5215 H       1  LIG1        0.1073
     46 O          -8.7108    5.5260   -0.3970 O.3     1  LIG1       -0.4908
     47 C          -9.4547    6.3410   -1.2987 C.3     1  LIG1        0.0790
     48 H         -10.5079    6.1243   -1.1177 H       1  LIG1        0.0660
     49 H          -9.2647    7.4051   -1.1219 H       1  LIG1        0.0660
     50 H          -9.2046    6.1003   -2.3374 H       1  LIG1        0.0660
@<TRIPOS>BOND
     1    50    47    1
     2    13    10    1
     3    11    10    1
     4    43    41    1
     5    12    10    1
     6    10     9    1
     7    25    22    1
     8    24    22    1
     9    47    49    1
    10    47    48    1
    11    47    46    1
    12    41    42   ar
    13    41    40   ar
    14    37    34    1
    15    42    38   ar
    16    22    23    1
    17    22    21    1
    18    36    34    1
    19    40    46    1
    20    40    39   ar
    21    34    35    1
    22    34    33    1
    23     9     3    1
    24    38    39   ar
    25    38    29    1
    26    30    29   ar
    27    30    26   ar
    28    39    44    1
    29    29    28   ar
    30    21    16    1
    31     3     4   ar
    32     3     2   ar
    33    16    17   ar
    34    16    15   ar
    35     7     2    1
    36     7     8    1
    37    26    17    1
    38    26    27   ar
    39    17    18   ar
    40    15    19    1
    41    15    14   ar
    42    19    20    1
    43    28    33    1
    44    28    27   ar
    45    18    14   ar
    46    14     4    1
    47     4     5   ar
    48     2     1   ar
    49    27    31    1
    50    44    45    1
    51     1     5   ar
    52     1     6    1
    53    31    32    1
