@<TRIPOS>MOLECULE
mol_data/opt/cam/geoms/mol2/12gl12gl12gl-.out
 38 40 0 0 0
SMALL
GASTEIGER

@<TRIPOS>ATOM
      1 C           0.2092    1.5197    0.1839 C.ar    1  LIG1        0.1096
      2 C           1.5163    1.4861   -0.1863 C.ar    1  LIG1        0.0852
      3 C           1.9255    2.8648   -0.2670 C.ar    1  LIG1        0.1819
      4 C           0.8357    3.6132    0.0815 C.ar    1  LIG1        0.2133
      5 O          -0.2173    2.7835    0.3498 O.2     1  LIG1       -0.4549
      6 H          -0.5145    0.7369    0.3477 H       1  LIG1        0.1042
      7 S           2.3975    0.0266   -0.6517 S.3     1  LIG1       -0.1361
      8 H           3.0389   -0.1907    0.5123 H       1  LIG1        0.1073
      9 O           3.0979    3.3794   -0.7020 O.3     1  LIG1       -0.4902
     10 C           4.2665    2.9839    0.0122 C.3     1  LIG1        0.0790
     11 H           5.0913    3.5445   -0.4268 H       1  LIG1        0.0660
     12 H           4.1771    3.2434    1.0716 H       1  LIG1        0.0660
     13 H           4.4554    1.9142   -0.1011 H       1  LIG1        0.0660
     14 C           0.5928    5.0296    0.1693 C.ar    1  LIG1        0.1912
     15 C           1.3957    6.1187    0.3651 C.ar    1  LIG1        0.0964
     16 C           0.5242    7.2520    0.3237 C.ar    1  LIG1        0.1827
     17 C          -0.7422    6.7817    0.1329 C.ar    1  LIG1        0.2143
     18 O          -0.7033    5.4277    0.0227 O.2     1  LIG1       -0.4435
     19 S           3.1323    6.1935    0.6340 S.3     1  LIG1       -0.1353
     20 H           3.0685    7.3358    1.3419 H       1  LIG1        0.1073
     21 O           0.9009    8.5464    0.4923 O.3     1  LIG1       -0.4902
     22 C           1.3222    9.1887   -0.7121 C.3     1  LIG1        0.0790
     23 H           1.6013   10.2054   -0.4361 H       1  LIG1        0.0660
     24 H           2.1824    8.6731   -1.1505 H       1  LIG1        0.0660
     25 H           0.5050    9.2179   -1.4393 H       1  LIG1        0.0660
     26 C          -2.0198    7.4383    0.0455 C.ar    1  LIG1        0.1902
     27 C          -2.4969    8.6202    0.5387 C.ar    1  LIG1        0.0956
     28 C          -3.8507    8.7118    0.0683 C.ar    1  LIG1        0.1715
     29 C          -4.0962    7.5897   -0.6518 C.ar    1  LIG1        0.1354
     30 O          -2.9883    6.8121   -0.6839 O.2     1  LIG1       -0.4548
     31 H          -4.9708    7.2184   -1.1600 H       1  LIG1        0.1068
     32 S          -1.7085    9.7969    1.5834 S.3     1  LIG1       -0.1354
     33 H          -2.8763   10.3070    2.0171 H       1  LIG1        0.1073
     34 O          -4.7203    9.7140    0.3673 O.3     1  LIG1       -0.4908
     35 C          -4.6267   10.8376   -0.5043 C.3     1  LIG1        0.0790
     36 H          -5.3501   11.5707   -0.1461 H       1  LIG1        0.0660
     37 H          -3.6225   11.2743   -0.4833 H       1  LIG1        0.0660
     38 H          -4.8723   10.5531   -1.5330 H       1  LIG1        0.0660
@<TRIPOS>BOND
     1    38    35    1
     2    25    22    1
     3    31    29    1
     4    24    22    1
     5    22    23    1
     6    22    21    1
     7     9     3    1
     8     9    10    1
     9    30    29   ar
    10    30    26   ar
    11    29    28   ar
    12     7     2    1
    13     7     8    1
    14    35    37    1
    15    35    36    1
    16    35    34    1
    17    11    10    1
    18     3     2   ar
    19     3     4   ar
    20     2     1   ar
    21    13    10    1
    22    10    12    1
    23    18    17   ar
    24    18    14   ar
    25    26    17    1
    26    26    27   ar
    27    28    34    1
    28    28    27   ar
    29     4    14    1
    30     4     5   ar
    31    17    16   ar
    32    14    15   ar
    33     1     6    1
    34     1     5   ar
    35    16    15   ar
    36    16    21    1
    37    15    19    1
    38    27    32    1
    39    19    20    1
    40    32    33    1
