@<TRIPOS>MOLECULE
mol_data/opt/cam/geoms/mol2/12gl12gl-12gl-12gl.out
 50 53 0 0 0
SMALL
GASTEIGER

@<TRIPOS>ATOM
      1 C           0.6682    1.4747    0.9535 C.ar    1  LIG1        0.1096
      2 C           1.8751    1.4435    0.3296 C.ar    1  LIG1        0.0852
      3 C           2.1564    2.8107   -0.0254 C.ar    1  LIG1        0.1819
      4 C           1.1043    3.5541    0.4332 C.ar    1  LIG1        0.2133
      5 O           0.1902    2.7287    1.0263 O.2     1  LIG1       -0.4549
      6 H           0.0513    0.6946    1.3709 H       1  LIG1        0.1042
      7 S           2.7552   -0.0280   -0.0985 S.3     1  LIG1       -0.1361
      8 H           3.6218   -0.0404    0.9322 H       1  LIG1        0.1073
      9 O           3.1774    3.3052   -0.7612 O.3     1  LIG1       -0.4902
     10 C           4.4913    3.0785   -0.2567 C.3     1  LIG1        0.0790
     11 H           5.1661    3.6077   -0.9289 H       1  LIG1        0.0660
     12 H           4.5931    3.4886    0.7528 H       1  LIG1        0.0660
     13 H           4.7382    2.0146   -0.2597 H       1  LIG1        0.0660
     14 C           0.7800    4.9552    0.3712 C.ar    1  LIG1        0.1912
     15 C           1.5243    6.0949    0.2397 C.ar    1  LIG1        0.0964
     16 C           0.5824    7.1701    0.2232 C.ar    1  LIG1        0.1827
     17 C          -0.6595    6.6228    0.3707 C.ar    1  LIG1        0.2144
     18 O          -0.5442    5.2707    0.4457 O.2     1  LIG1       -0.4435
     19 S           3.2694    6.2840    0.1276 S.3     1  LIG1       -0.1353
     20 H           3.2648    7.5152    0.6700 H       1  LIG1        0.1073
     21 O           0.8888    8.4897    0.1234 O.3     1  LIG1       -0.4902
     22 C           1.0253    8.9529   -1.2213 C.3     1  LIG1        0.0790
     23 H           1.2745   10.0119   -1.1569 H       1  LIG1        0.0660
     24 H           1.8231    8.4140   -1.7417 H       1  LIG1        0.0660
     25 H           0.0853    8.8303   -1.7681 H       1  LIG1        0.0660
     26 C          -1.9712    7.2026    0.4634 C.ar    1  LIG1        0.1912
     27 C          -2.4238    8.4346    0.8508 C.ar    1  LIG1        0.0964
     28 C          -3.8423    8.3914    0.6757 C.ar    1  LIG1        0.1827
     29 C          -4.1590    7.1423    0.2252 C.ar    1  LIG1        0.2143
     30 O          -3.0199    6.4179    0.0798 O.2     1  LIG1       -0.4435
     31 S          -1.5321    9.8159    1.4775 S.3     1  LIG1       -0.1353
     32 H          -2.6315   10.3708    2.0209 H       1  LIG1        0.1073
     33 O          -4.7015    9.4074    0.9543 O.3     1  LIG1       -0.4902
     34 C          -4.9332   10.2883   -0.1456 C.3     1  LIG1        0.0790
     35 H          -5.6304   11.0468    0.2098 H       1  LIG1        0.0660
     36 H          -4.0014   10.7631   -0.4697 H       1  LIG1        0.0660
     37 H          -5.3785    9.7477   -0.9865 H       1  LIG1        0.0660
     38 C          -5.4143    6.5136   -0.0899 C.ar    1  LIG1        0.1902
     39 C          -6.6980    6.7306    0.3269 C.ar    1  LIG1        0.0956
     40 C          -7.4979    5.7766   -0.3889 C.ar    1  LIG1        0.1715
     41 C          -6.6528    5.0533   -1.1641 C.ar    1  LIG1        0.1354
     42 O          -5.3849    5.4982   -1.0012 O.2     1  LIG1       -0.4548
     43 H          -6.7987    4.2233   -1.8355 H       1  LIG1        0.1068
     44 S          -7.3132    7.8637    1.5245 S.3     1  LIG1       -0.1354
     45 H          -8.4496    7.1661    1.7084 H       1  LIG1        0.1073
     46 O          -8.8396    5.6097   -0.2403 O.3     1  LIG1       -0.4908
     47 C          -9.6226    6.4594   -1.0745 C.3     1  LIG1        0.0790
     48 H         -10.6667    6.2465   -0.8434 H       1  LIG1        0.0660
     49 H          -9.4120    7.5156   -0.8753 H       1  LIG1        0.0660
     50 H          -9.4314    6.2494   -2.1322 H       1  LIG1        0.0660
@<TRIPOS>BOND
     1    50    47    1
     2    43    41    1
     3    25    22    1
     4    24    22    1
     5    22    23    1
     6    22    21    1
     7    41    42   ar
     8    41    40   ar
     9    47    49    1
    10    47    48    1
    11    47    46    1
    12    42    38   ar
    13    37    34    1
    14    11    10    1
    15     9    10    1
    16     9     3    1
    17    36    34    1
    18    40    46    1
    19    40    39   ar
    20    13    10    1
    21    10    12    1
    22    34    35    1
    23    34    33    1
    24     7     2    1
    25     7     8    1
    26    38    29    1
    27    38    39   ar
    28     3     2   ar
    29     3     4   ar
    30    30    29   ar
    31    30    26   ar
    32    21    16    1
    33    19    15    1
    34    19    20    1
    35    16    15   ar
    36    16    17   ar
    37    29    28   ar
    38    15    14   ar
    39    39    44    1
    40     2     1   ar
    41    17    18   ar
    42    17    26    1
    43    14     4    1
    44    14    18   ar
    45     4     5   ar
    46    26    27   ar
    47    28    27   ar
    48    28    33    1
    49    27    31    1
    50     1     5   ar
    51     1     6    1
    52    31    32    1
    53    44    45    1
