@<TRIPOS>MOLECULE
mol_data/opt/cam/geoms/mol2/12gl12gl-12gl.out
 38 40 0 0 0
SMALL
GASTEIGER

@<TRIPOS>ATOM
      1 C           0.3436    1.4544    0.7533 C.ar    1  LIG1        0.1096
      2 C           1.6699    1.4607    0.4626 C.ar    1  LIG1        0.0852
      3 C           2.0224    2.8452    0.3137 C.ar    1  LIG1        0.1819
      4 C           0.8860    3.5660    0.5419 C.ar    1  LIG1        0.2133
      5 O          -0.1455    2.7115    0.8040 O.2     1  LIG1       -0.4549
      6 H          -0.3566    0.6558    0.9394 H       1  LIG1        0.1042
      7 S           2.6969    0.0448    0.2327 S.3     1  LIG1       -0.1361
      8 H           3.5374    0.2756    1.2574 H       1  LIG1        0.1073
      9 O           3.2468    3.3577    0.0388 O.3     1  LIG1       -0.4902
     10 C           3.6416    3.2465   -1.3286 C.3     1  LIG1        0.0790
     11 H           4.6236    3.7134   -1.4008 H       1  LIG1        0.0660
     12 H           3.7074    2.1984   -1.6335 H       1  LIG1        0.0660
     13 H           2.9359    3.7754   -1.9776 H       1  LIG1        0.0660
     14 C           0.6187    4.9798    0.5666 C.ar    1  LIG1        0.1912
     15 C           1.3982    6.0741    0.8205 C.ar    1  LIG1        0.0964
     16 C           0.5371    7.2034    0.6480 C.ar    1  LIG1        0.1827
     17 C          -0.7013    6.7258    0.3306 C.ar    1  LIG1        0.2143
     18 O          -0.6538    5.3698    0.2645 O.2     1  LIG1       -0.4435
     19 S           3.0907    6.1603    1.2939 S.3     1  LIG1       -0.1353
     20 H           2.9566    7.3884    1.8286 H       1  LIG1        0.1073
     21 O           0.8966    8.5029    0.8194 O.3     1  LIG1       -0.4902
     22 C           1.4089    9.1231   -0.3604 C.3     1  LIG1        0.0790
     23 H           1.6628   10.1463   -0.0843 H       1  LIG1        0.0660
     24 H           2.3028    8.6028   -0.7194 H       1  LIG1        0.0660
     25 H           0.6514    9.1346   -1.1502 H       1  LIG1        0.0660
     26 C          -1.9593    7.3790    0.0824 C.ar    1  LIG1        0.1902
     27 C          -2.4839    8.5763    0.4816 C.ar    1  LIG1        0.0956
     28 C          -3.7784    8.6510   -0.1360 C.ar    1  LIG1        0.1715
     29 C          -3.9472    7.5056   -0.8413 C.ar    1  LIG1        0.1354
     30 O          -2.8447    6.7282   -0.7272 O.2     1  LIG1       -0.4548
     31 H          -4.7626    7.1171   -1.4290 H       1  LIG1        0.1068
     32 S          -1.8123    9.7879    1.5668 S.3     1  LIG1       -0.1354
     33 H          -3.0177   10.3227    1.8366 H       1  LIG1        0.1073
     34 O          -4.6718    9.6624    0.0339 O.3     1  LIG1       -0.4908
     35 C          -4.4870   10.7529   -0.8647 C.3     1  LIG1        0.0790
     36 H          -5.2404   11.4983   -0.6088 H       1  LIG1        0.0660
     37 H          -3.4886   11.1906   -0.7584 H       1  LIG1        0.0660
     38 H          -4.6283   10.4305   -1.9018 H       1  LIG1        0.0660
@<TRIPOS>BOND
     1    13    10    1
     2    38    35    1
     3    12    10    1
     4    31    29    1
     5    11    10    1
     6    10     9    1
     7    25    22    1
     8    35    37    1
     9    35    36    1
    10    35    34    1
    11    29    30   ar
    12    29    28   ar
    13    30    26   ar
    14    24    22    1
    15    22    23    1
    16    22    21    1
    17    28    34    1
    18    28    27   ar
    19     9     3    1
    20    26    17    1
    21    26    27   ar
    22     7     2    1
    23     7     8    1
    24    18    17   ar
    25    18    14   ar
    26     3     2   ar
    27     3     4   ar
    28    17    16   ar
    29     2     1   ar
    30    27    32    1
    31     4    14    1
    32     4     5   ar
    33    14    15   ar
    34    16    21    1
    35    16    15   ar
    36     1     5   ar
    37     1     6    1
    38    15    19    1
    39    19    20    1
    40    32    33    1
