@<TRIPOS>MOLECULE
mol_data/opt/cam/geoms/mol2/12gl12gl12gl-12gl.out
 50 53 0 0 0
SMALL
GASTEIGER

@<TRIPOS>ATOM
      1 C           0.6569    1.4582    0.8707 C.ar    1  LIG1        0.1096
      2 C           1.8697    1.4362    0.2580 C.ar    1  LIG1        0.0852
      3 C           2.1550    2.8086   -0.0724 C.ar    1  LIG1        0.1819
      4 C           1.0990    3.5453    0.3878 C.ar    1  LIG1        0.2133
      5 O           0.1788    2.7111    0.9588 O.2     1  LIG1       -0.4549
      6 H           0.0356    0.6719    1.2696 H       1  LIG1        0.1042
      7 S           2.7532   -0.0289   -0.1851 S.3     1  LIG1       -0.1361
      8 H           3.6097   -0.0583    0.8535 H       1  LIG1        0.1073
      9 O           3.1833    3.3142   -0.7903 O.3     1  LIG1       -0.4902
     10 C           4.4922    3.0786   -0.2770 C.3     1  LIG1        0.0790
     11 H           5.1737    3.6181   -0.9341 H       1  LIG1        0.0660
     12 H           4.5845    3.4724    0.7399 H       1  LIG1        0.0660
     13 H           4.7387    2.0147   -0.2947 H       1  LIG1        0.0660
     14 C           0.7759    4.9475    0.3451 C.ar    1  LIG1        0.1912
     15 C           1.5220    6.0886    0.2390 C.ar    1  LIG1        0.0964
     16 C           0.5809    7.1646    0.2306 C.ar    1  LIG1        0.1827
     17 C          -0.6627    6.6158    0.3573 C.ar    1  LIG1        0.2144
     18 O          -0.5488    5.2625    0.4119 O.2     1  LIG1       -0.4435
     19 S           3.2682    6.2783    0.1468 S.3     1  LIG1       -0.1353
     20 H           3.2590    7.5007    0.7087 H       1  LIG1        0.1073
     21 O           0.8889    8.4854    0.1549 O.3     1  LIG1       -0.4902
     22 C           1.0385    8.9699   -1.1808 C.3     1  LIG1        0.0790
     23 H           1.2877   10.0276   -1.0972 H       1  LIG1        0.0660
     24 H           1.8411    8.4388   -1.7021 H       1  LIG1        0.0660
     25 H           0.1038    8.8567   -1.7385 H       1  LIG1        0.0660
     26 C          -1.9750    7.1949    0.4467 C.ar    1  LIG1        0.1912
     27 C          -2.4306    8.4208    0.8494 C.ar    1  LIG1        0.0964
     28 C          -3.8474    8.3813    0.6599 C.ar    1  LIG1        0.1827
     29 C          -4.1603    7.1398    0.1865 C.ar    1  LIG1        0.2143
     30 O          -3.0203    6.4170    0.0405 O.2     1  LIG1       -0.4435
     31 S          -1.5443    9.7914    1.5067 S.3     1  LIG1       -0.1353
     32 H          -2.6486   10.3382    2.0482 H       1  LIG1        0.1073
     33 O          -4.7088    9.3933    0.9464 O.3     1  LIG1       -0.4902
     34 C          -4.9294   10.2918   -0.1414 C.3     1  LIG1        0.0790
     35 H          -5.6296   11.0450    0.2193 H       1  LIG1        0.0660
     36 H          -3.9943   10.7711   -0.4489 H       1  LIG1        0.0660
     37 H          -5.3668    9.7650   -0.9951 H       1  LIG1        0.0660
     38 C          -5.4129    6.5171   -0.1508 C.ar    1  LIG1        0.1902
     39 C          -6.7004    6.7281    0.2571 C.ar    1  LIG1        0.0956
     40 C          -7.4938    5.7862   -0.4816 C.ar    1  LIG1        0.1715
     41 C          -6.6416    5.0749   -1.2600 C.ar    1  LIG1        0.1354
     42 O          -5.3751    5.5163   -1.0778 O.2     1  LIG1       -0.4548
     43 H          -6.7815    4.2558   -1.9460 H       1  LIG1        0.1068
     44 S          -7.3266    7.8424    1.4667 S.3     1  LIG1       -0.1354
     45 H          -8.4651    7.1427    1.6284 H       1  LIG1        0.1073
     46 O          -8.8370    5.6179   -0.3486 O.3     1  LIG1       -0.4908
     47 C          -9.6114    6.4813   -1.1766 C.3     1  LIG1        0.0790
     48 H         -10.6578    6.2654   -0.9590 H       1  LIG1        0.0660
     49 H          -9.4022    7.5341   -0.9586 H       1  LIG1        0.0660
     50 H          -9.4102    6.2881   -2.2356 H       1  LIG1        0.0660
@<TRIPOS>BOND
     1    50    47    1
     2    43    41    1
     3    25    22    1
     4    24    22    1
     5    41    42   ar
     6    41    40   ar
     7    22    23    1
     8    22    21    1
     9    47    48    1
    10    47    49    1
    11    47    46    1
    12    42    38   ar
    13    37    34    1
    14    11    10    1
    15     9    10    1
    16     9     3    1
    17    40    46    1
    18    40    39   ar
    19    36    34    1
    20    13    10    1
    21    10    12    1
    22     7     2    1
    23     7     8    1
    24    38    29    1
    25    38    39   ar
    26    34    35    1
    27    34    33    1
    28     3     2   ar
    29     3     4   ar
    30    30    29   ar
    31    30    26   ar
    32    19    15    1
    33    19    20    1
    34    21    16    1
    35    29    28   ar
    36    16    15   ar
    37    16    17   ar
    38    15    14   ar
    39    39    44    1
    40     2     1   ar
    41    14     4    1
    42    14    18   ar
    43    17    18   ar
    44    17    26    1
    45     4     5   ar
    46    26    27   ar
    47    28    27   ar
    48    28    33    1
    49    27    31    1
    50     1     5   ar
    51     1     6    1
    52    44    45    1
    53    31    32    1
