@<TRIPOS>MOLECULE
mol_data/opt/cam/geoms/mol2/12gl12gl-.out
 26 27 0 0 0
SMALL
GASTEIGER

@<TRIPOS>ATOM
      1 C          -0.0378    1.7267   -0.0540 C.ar    1  LIG1        0.1096
      2 C           1.2608    1.4834    0.2565 C.ar    1  LIG1        0.0852
      3 C           1.8952    2.7716    0.2890 C.ar    1  LIG1        0.1819
      4 C           0.9284    3.6930    0.0096 C.ar    1  LIG1        0.2133
      5 O          -0.2560    3.0509   -0.2089 O.2     1  LIG1       -0.4549
      6 H          -0.8871    1.0777   -0.1964 H       1  LIG1        0.1042
      7 S           2.0096   -0.0987    0.4739 S.3     1  LIG1       -0.1361
      8 H           2.3983    0.0724    1.7502 H       1  LIG1        0.1073
      9 O           3.1927    3.0357    0.5794 O.3     1  LIG1       -0.4902
     10 C           4.0959    2.8242   -0.5055 C.3     1  LIG1        0.0790
     11 H           5.0848    3.0939   -0.1355 H       1  LIG1        0.0660
     12 H           4.0913    1.7766   -0.8201 H       1  LIG1        0.0660
     13 H           3.8364    3.4654   -1.3541 H       1  LIG1        0.0660
     14 C           0.9422    5.1314   -0.0784 C.ar    1  LIG1        0.1901
     15 C           1.7360    6.0922    0.4821 C.ar    1  LIG1        0.0956
     16 C           1.2409    7.3369   -0.0276 C.ar    1  LIG1        0.1715
     17 C           0.1902    7.0509   -0.8397 C.ar    1  LIG1        0.1354
     18 O           0.0074    5.7024   -0.8857 O.2     1  LIG1       -0.4548
     19 H          -0.4915    7.6487   -1.4196 H       1  LIG1        0.1068
     20 S           3.0776    5.9231    1.6096 S.3     1  LIG1       -0.1354
     21 H           3.0373    7.2146    1.9820 H       1  LIG1        0.1073
     22 O           1.7832    8.5190    0.3317 O.3     1  LIG1       -0.4908
     23 C           1.1451    9.6593   -0.2096 C.3     1  LIG1        0.0790
     24 H           1.6794   10.5295    0.1694 H       1  LIG1        0.0660
     25 H           1.1919    9.6499   -1.3050 H       1  LIG1        0.0660
     26 H           0.0957    9.7063    0.1047 H       1  LIG1        0.0660
@<TRIPOS>BOND
     1    19    17    1
     2    13    10    1
     3    25    23    1
     4    18    17   ar
     5    18    14   ar
     6    17    16   ar
     7    12    10    1
     8    10    11    1
     9    10     9    1
    10    23    26    1
    11    23    24    1
    12    23    22    1
    13     5     1   ar
    14     5     4   ar
    15     6     1    1
    16    14     4    1
    17    14    15   ar
    18     1     2   ar
    19    16    22    1
    20    16    15   ar
    21     4     3   ar
    22     2     3   ar
    23     2     7    1
    24     3     9    1
    25     7     8    1
    26    15    20    1
    27    20    21    1
