@<TRIPOS>MOLECULE
mol_data/opt/cam/geoms/mol2/12gl12gl.out
 26 27 0 0 0
SMALL
GASTEIGER

@<TRIPOS>ATOM
      1 C           0.0336    1.7196   -0.0226 C.ar    1  LIG1        0.1096
      2 C           1.3562    1.6230   -0.3179 C.ar    1  LIG1        0.0852
      3 C           1.8436    2.9788   -0.3342 C.ar    1  LIG1        0.1819
      4 C           0.7780    3.7770   -0.0269 C.ar    1  LIG1        0.2133
      5 O          -0.3329    3.0010    0.1559 O.2     1  LIG1       -0.4549
      6 H          -0.7398    0.9744    0.0766 H       1  LIG1        0.1042
      7 S           2.1831    0.1292   -0.7742 S.3     1  LIG1       -0.1361
      8 H           2.7437   -0.1528    0.4173 H       1  LIG1        0.1073
      9 O           3.0655    3.4396   -0.6859 O.3     1  LIG1       -0.4902
     10 C           4.1690    2.9583    0.0772 C.3     1  LIG1        0.0790
     11 H           5.0425    3.5009   -0.2833 H       1  LIG1        0.0660
     12 H           4.0256    3.1721    1.1408 H       1  LIG1        0.0660
     13 H           4.3196    1.8874   -0.0766 H       1  LIG1        0.0660
     14 C           0.6095    5.2041    0.0862 C.ar    1  LIG1        0.1901
     15 C           1.4529    6.2334    0.3922 C.ar    1  LIG1        0.0956
     16 C           0.6541    7.4245    0.3146 C.ar    1  LIG1        0.1715
     17 C          -0.6012    7.0350   -0.0156 C.ar    1  LIG1        0.1354
     18 O          -0.6391    5.6889   -0.1696 O.2     1  LIG1       -0.4548
     19 H          -1.5261    7.5703   -0.1531 H       1  LIG1        0.1068
     20 S           3.1544    6.1793    0.8359 S.3     1  LIG1       -0.1354
     21 H           3.0859    7.2680    1.6234 H       1  LIG1        0.1073
     22 O           1.0828    8.6827    0.5995 O.3     1  LIG1       -0.4908
     23 C           1.7439    9.3267   -0.4871 C.3     1  LIG1        0.0790
     24 H           2.0610   10.3041   -0.1223 H       1  LIG1        0.0660
     25 H           2.6191    8.7561   -0.8144 H       1  LIG1        0.0660
     26 H           1.0620    9.4555   -1.3343 H       1  LIG1        0.0660
@<TRIPOS>BOND
     1    26    23    1
     2    25    23    1
     3     7     2    1
     4     7     8    1
     5     9     3    1
     6     9    10    1
     7    23    24    1
     8    23    22    1
     9     3     2   ar
    10     3     4   ar
    11     2     1   ar
    12    11    10    1
    13    18    17   ar
    14    18    14   ar
    15    19    17    1
    16    13    10    1
    17     4    14    1
    18     4     5   ar
    19     1     6    1
    20     1     5   ar
    21    17    16   ar
    22    10    12    1
    23    14    15   ar
    24    16    15   ar
    25    16    22    1
    26    15    20    1
    27    20    21    1
