@<TRIPOS>MOLECULE
mol_data/opt/cam/geoms/mol2/12gl.out
 14 14 0 0 0
SMALL
GASTEIGER

@<TRIPOS>ATOM
      1 C           0.1002    1.8743   -0.2156 C.ar    1  LIG1        0.1085
      2 C           1.3898    1.6591    0.1478 C.ar    1  LIG1        0.0844
      3 C           1.9791    2.9692    0.2667 C.ar    1  LIG1        0.1707
      4 C           0.9993    3.8576   -0.0302 C.ar    1  LIG1        0.1343
      5 O          -0.1516    3.1963   -0.3309 O.2     1  LIG1       -0.4662
      6 H          -0.7197    1.2041   -0.4198 H       1  LIG1        0.1042
      7 H           0.9653    4.9343   -0.0528 H       1  LIG1        0.1068
      8 S           2.1672    0.0883    0.3523 S.3     1  LIG1       -0.1361
      9 H           2.4519    0.2059    1.6618 H       1  LIG1        0.1073
     10 O           3.2421    3.2652    0.6654 O.3     1  LIG1       -0.4909
     11 C           4.2386    3.0433   -0.3284 C.3     1  LIG1        0.0790
     12 H           5.1927    3.3113    0.1263 H       1  LIG1        0.0660
     13 H           4.2647    1.9947   -0.6391 H       1  LIG1        0.0660
     14 H           4.0606    3.6777   -1.2039 H       1  LIG1        0.0660
@<TRIPOS>BOND
     1    14    11    1
     2    13    11    1
     3     6     1    1
     4     5     1   ar
     5     5     4   ar
     6    11    12    1
     7    11    10    1
     8     1     2   ar
     9     7     4    1
    10     4     3   ar
    11     2     3   ar
    12     2     8    1
    13     3    10    1
    14     8     9    1
