@<TRIPOS>MOLECULE
mol_data/opt/cam/geoms/mol2/12gl12gl-12gl-.out
 38 40 0 0 0
SMALL
GASTEIGER

@<TRIPOS>ATOM
      1 C           0.2114    1.5204    0.2145 C.ar    1  LIG1        0.1096
      2 C           1.5124    1.4850   -0.1760 C.ar    1  LIG1        0.0852
      3 C           1.9206    2.8634   -0.2684 C.ar    1  LIG1        0.1819
      4 C           0.8365    3.6133    0.0944 C.ar    1  LIG1        0.2133
      5 O          -0.2123    2.7849    0.3823 O.2     1  LIG1       -0.4549
      6 H          -0.5099    0.7384    0.3925 H       1  LIG1        0.1042
      7 S           2.3861    0.0236   -0.6498 S.3     1  LIG1       -0.1361
      8 H           3.0455   -0.1894    0.5048 H       1  LIG1        0.1073
      9 O           3.0861    3.3761   -0.7236 O.3     1  LIG1       -0.4902
     10 C           4.2657    2.9829   -0.0264 C.3     1  LIG1        0.0790
     11 H           5.0836    3.5417   -0.4803 H       1  LIG1        0.0660
     12 H           4.1930    3.2464    1.0333 H       1  LIG1        0.0660
     13 H           4.4526    1.9128   -0.1387 H       1  LIG1        0.0660
     14 C           0.5953    5.0301    0.1807 C.ar    1  LIG1        0.1912
     15 C           1.4013    6.1197    0.3598 C.ar    1  LIG1        0.0964
     16 C           0.5294    7.2530    0.3279 C.ar    1  LIG1        0.1827
     17 C          -0.7398    6.7824    0.1586 C.ar    1  LIG1        0.2143
     18 O          -0.7029    5.4279    0.0529 O.2     1  LIG1       -0.4435
     19 S           3.1419    6.1951    0.6012 S.3     1  LIG1       -0.1353
     20 H           3.0894    7.3401    1.3057 H       1  LIG1        0.1073
     21 O           0.9090    8.5480    0.4856 O.3     1  LIG1       -0.4902
     22 C           1.3115    9.1857   -0.7276 C.3     1  LIG1        0.0790
     23 H           1.5951   10.2034   -0.4598 H       1  LIG1        0.0660
     24 H           2.1647    8.6683   -1.1775 H       1  LIG1        0.0660
     25 H           0.4830    9.2123   -1.4421 H       1  LIG1        0.0660
     26 C          -2.0185    7.4389    0.0888 C.ar    1  LIG1        0.1902
     27 C          -2.4876    8.6228    0.5850 C.ar    1  LIG1        0.0956
     28 C          -3.8487    8.7129    0.1355 C.ar    1  LIG1        0.1715
     29 C          -4.1055    7.5882   -0.5765 C.ar    1  LIG1        0.1354
     30 O          -2.9984    6.8102   -0.6230 O.2     1  LIG1       -0.4548
     31 H          -4.9880    7.2152   -1.0696 H       1  LIG1        0.1068
     32 S          -1.6828    9.8032    1.6127 S.3     1  LIG1       -0.1354
     33 H          -2.8435   10.3152    2.0628 H       1  LIG1        0.1073
     34 O          -4.7133    9.7165    0.4443 O.3     1  LIG1       -0.4908
     35 C          -4.6331   10.8368   -0.4329 C.3     1  LIG1        0.0790
     36 H          -5.3507   11.5713   -0.0662 H       1  LIG1        0.0660
     37 H          -3.6287   11.2733   -0.4293 H       1  LIG1        0.0660
     38 H          -4.8949   10.5484   -1.4565 H       1  LIG1        0.0660
@<TRIPOS>BOND
     1    38    35    1
     2    25    22    1
     3    24    22    1
     4    31    29    1
     5    22    23    1
     6    22    21    1
     7     9     3    1
     8     9    10    1
     9     7     2    1
    10     7     8    1
    11    30    29   ar
    12    30    26   ar
    13    29    28   ar
    14    11    10    1
    15    35    37    1
    16    35    36    1
    17    35    34    1
    18     3     2   ar
    19     3     4   ar
    20     2     1   ar
    21    13    10    1
    22    10    12    1
    23    18    17   ar
    24    18    14   ar
    25    26    17    1
    26    26    27   ar
    27     4    14    1
    28     4     5   ar
    29    28    34    1
    30    28    27   ar
    31    17    16   ar
    32    14    15   ar
    33     1     5   ar
    34     1     6    1
    35    16    15   ar
    36    16    21    1
    37    15    19    1
    38    27    32    1
    39    19    20    1
    40    32    33    1
