@<TRIPOS>MOLECULE
mol_data/opt/cam/geoms/mol2/12gl12gl-12gl12gl-.out
 50 53 0 0 0
SMALL
GASTEIGER

@<TRIPOS>ATOM
      1 C           0.8734    1.5524    1.5820 C.ar    1  LIG1        0.1096
      2 C           2.0783    1.5407    0.9561 C.ar    1  LIG1        0.0852
      3 C           2.2908    2.8889    0.5097 C.ar    1  LIG1        0.1819
      4 C           1.2055    3.6116    0.9138 C.ar    1  LIG1        0.2133
      5 O           0.3327    2.7892    1.5648 O.2     1  LIG1       -0.4549
      6 H           0.2970    0.7802    2.0661 H       1  LIG1        0.1042
      7 S           3.1027    0.1310    0.6815 S.3     1  LIG1       -0.1361
      8 H           4.1653    0.5533    1.3899 H       1  LIG1        0.1073
      9 O           3.3695    3.3741   -0.1528 O.3     1  LIG1       -0.4902
     10 C           3.3930    3.0678   -1.5469 C.3     1  LIG1        0.0790
     11 H           4.2979    3.5270   -1.9445 H       1  LIG1        0.0660
     12 H           3.4250    1.9869   -1.7103 H       1  LIG1        0.0660
     13 H           2.5167    3.4908   -2.0488 H       1  LIG1        0.0660
     14 C           0.8603    5.0025    0.7854 C.ar    1  LIG1        0.1912
     15 C           1.6049    6.1416    0.6487 C.ar    1  LIG1        0.0964
     16 C           0.6559    7.2047    0.5296 C.ar    1  LIG1        0.1827
     17 C          -0.5889    6.6519    0.6281 C.ar    1  LIG1        0.2144
     18 O          -0.4696    5.3061    0.7692 O.2     1  LIG1       -0.4435
     19 S           3.3527    6.3451    0.6435 S.3     1  LIG1       -0.1353
     20 H           3.2776    7.6431    0.9920 H       1  LIG1        0.1073
     21 O           0.9593    8.5219    0.3894 O.3     1  LIG1       -0.4902
     22 C           1.1287    8.9368   -0.9667 C.3     1  LIG1        0.0790
     23 H           1.3702    9.9990   -0.9349 H       1  LIG1        0.0660
     24 H           1.9438    8.3848   -1.4458 H       1  LIG1        0.0660
     25 H           0.2047    8.7885   -1.5339 H       1  LIG1        0.0660
     26 C          -1.9085    7.2214    0.6161 C.ar    1  LIG1        0.1912
     27 C          -2.3942    8.4660    0.9129 C.ar    1  LIG1        0.0964
     28 C          -3.8002    8.3955    0.6614 C.ar    1  LIG1        0.1827
     29 C          -4.0787    7.1211    0.2595 C.ar    1  LIG1        0.2143
     30 O          -2.9263    6.4047    0.2157 O.2     1  LIG1       -0.4435
     31 S          -1.5542    9.8896    1.5154 S.3     1  LIG1       -0.1353
     32 H          -2.6918   10.4673    1.9442 H       1  LIG1        0.1073
     33 O          -4.6828    9.4142    0.8382 O.3     1  LIG1       -0.4902
     34 C          -4.8721   10.2254   -0.3217 C.3     1  LIG1        0.0790
     35 H          -5.5929   10.9943   -0.0448 H       1  LIG1        0.0660
     36 H          -3.9311   10.6925   -0.6303 H       1  LIG1        0.0660
     37 H          -5.2718    9.6304   -1.1486 H       1  LIG1        0.0660
     38 C          -5.3081    6.4608   -0.0913 C.ar    1  LIG1        0.1902
     39 C          -6.6147    6.6807    0.2448 C.ar    1  LIG1        0.0956
     40 C          -7.3642    5.6809   -0.4632 C.ar    1  LIG1        0.1715
     41 C          -6.4705    4.9315   -1.1544 C.ar    1  LIG1        0.1354
     42 O          -5.2182    5.4014   -0.9471 O.2     1  LIG1       -0.4548
     43 H          -6.5710    4.0667   -1.7894 H       1  LIG1        0.1068
     44 S          -7.3056    7.8640    1.3487 S.3     1  LIG1       -0.1354
     45 H          -8.4427    7.1613    1.5076 H       1  LIG1        0.1073
     46 O          -8.7099    5.5029   -0.3776 O.3     1  LIG1       -0.4908
     47 C          -9.4569    6.2979   -1.2944 C.3     1  LIG1        0.0790
     48 H         -10.5093    6.0826   -1.1077 H       1  LIG1        0.0660
     49 H          -9.2690    7.3658   -1.1393 H       1  LIG1        0.0660
     50 H          -9.2076    6.0370   -2.3284 H       1  LIG1        0.0660
@<TRIPOS>BOND
     1    50    47    1
     2    13    10    1
     3    11    10    1
     4    43    41    1
     5    12    10    1
     6    10     9    1
     7    25    22    1
     8    24    22    1
     9    47    49    1
    10    47    48    1
    11    47    46    1
    12    41    42   ar
    13    41    40   ar
    14    37    34    1
    15    22    23    1
    16    22    21    1
    17    42    38   ar
    18    36    34    1
    19    40    46    1
    20    40    39   ar
    21    34    35    1
    22    34    33    1
    23     9     3    1
    24    38    39   ar
    25    38    29    1
    26    30    29   ar
    27    30    26   ar
    28    39    44    1
    29    29    28   ar
    30    21    16    1
    31     3     4   ar
    32     3     2   ar
    33    16    17   ar
    34    16    15   ar
    35    26    17    1
    36    26    27   ar
    37    17    18   ar
    38    19    15    1
    39    19    20    1
    40    15    14   ar
    41    28    33    1
    42    28    27   ar
    43     7     2    1
    44     7     8    1
    45    18    14   ar
    46    14     4    1
    47    27    31    1
    48     4     5   ar
    49     2     1   ar
    50    44    45    1
    51    31    32    1
    52     5     1   ar
    53     1     6    1
