@<TRIPOS>MOLECULE
mol_data/opt/cam/geoms/mol2/12gl12gl12gl-12gl-.out
 50 53 0 0 0
SMALL
GASTEIGER

@<TRIPOS>ATOM
      1 C           0.6560    1.4754    0.9546 C.ar    1  LIG1        0.1096
      2 C           1.8702    1.4432    0.3451 C.ar    1  LIG1        0.0852
      3 C           2.1559    2.8098   -0.0082 C.ar    1  LIG1        0.1819
      4 C           1.0987    3.5540    0.4369 C.ar    1  LIG1        0.2133
      5 O           0.1774    2.7295    1.0202 O.2     1  LIG1       -0.4549
      6 H           0.0340    0.6959    1.3656 H       1  LIG1        0.1042
      7 S           2.7550   -0.0290   -0.0708 S.3     1  LIG1       -0.1361
      8 H           3.6092   -0.0403    0.9701 H       1  LIG1        0.1073
      9 O           3.1857    3.3033   -0.7324 O.3     1  LIG1       -0.4902
     10 C           4.4934    3.0769   -0.2122 C.3     1  LIG1        0.0790
     11 H           5.1763    3.6052   -0.8769 H       1  LIG1        0.0660
     12 H           4.5834    3.4882    0.7980 H       1  LIG1        0.0660
     13 H           4.7402    2.0130   -0.2110 H       1  LIG1        0.0660
     14 C           0.7754    4.9552    0.3694 C.ar    1  LIG1        0.1912
     15 C           1.5214    6.0946    0.2454 C.ar    1  LIG1        0.0964
     16 C           0.5800    7.1699    0.2164 C.ar    1  LIG1        0.1827
     17 C          -0.6637    6.6231    0.3498 C.ar    1  LIG1        0.2144
     18 O          -0.5496    5.2710    0.4278 O.2     1  LIG1       -0.4435
     19 S           3.2678    6.2831    0.1538 S.3     1  LIG1       -0.1353
     20 H           3.2570    7.5150    0.6946 H       1  LIG1        0.1073
     21 O           0.8879    8.4893    0.1187 O.3     1  LIG1       -0.4902
     22 C           1.0404    8.9509   -1.2248 C.3     1  LIG1        0.0790
     23 H           1.2891   10.0099   -1.1588 H       1  LIG1        0.0660
     24 H           1.8443    8.4111   -1.7351 H       1  LIG1        0.0660
     25 H           0.1069    8.8278   -1.7826 H       1  LIG1        0.0660
     26 C          -1.9763    7.2032    0.4263 C.ar    1  LIG1        0.1912
     27 C          -2.4331    8.4358    0.8068 C.ar    1  LIG1        0.0964
     28 C          -3.8495    8.3926    0.6149 C.ar    1  LIG1        0.1827
     29 C          -4.1611    7.1431    0.1623 C.ar    1  LIG1        0.2143
     30 O          -3.0205    6.4182    0.0312 O.2     1  LIG1       -0.4435
     31 S          -1.5486    9.8177    1.4424 S.3     1  LIG1       -0.1353
     32 H          -2.6543   10.3735    1.9719 H       1  LIG1        0.1073
     33 O          -4.7117    9.4092    0.8820 O.3     1  LIG1       -0.4902
     34 C          -4.9301   10.2887   -0.2215 C.3     1  LIG1        0.0790
     35 H          -5.6313   11.0479    0.1246 H       1  LIG1        0.0660
     36 H          -3.9945   10.7630   -0.5352 H       1  LIG1        0.0660
     37 H          -5.3655    9.7473   -1.0670 H       1  LIG1        0.0660
     38 C          -5.4127    6.5143   -0.1670 C.ar    1  LIG1        0.1902
     39 C          -6.7012    6.7320    0.2343 C.ar    1  LIG1        0.0956
     40 C          -7.4927    5.7773   -0.4898 C.ar    1  LIG1        0.1715
     41 C          -6.6386    5.0529   -1.2540 C.ar    1  LIG1        0.1354
     42 O          -5.3726    5.4977   -1.0767 O.2     1  LIG1       -0.4548
     43 H          -6.7768    4.2221   -1.9261 H       1  LIG1        0.1068
     44 S          -7.3303    7.8667    1.4232 S.3     1  LIG1       -0.1354
     45 H          -8.4690    7.1695    1.5944 H       1  LIG1        0.1073
     46 O          -8.8362    5.6109   -0.3569 O.3     1  LIG1       -0.4908
     47 C          -9.6090    6.4597   -1.2014 C.3     1  LIG1        0.0790
     48 H         -10.6558    6.2473   -0.9824 H       1  LIG1        0.0660
     49 H          -9.4005    7.5161   -1.0010 H       1  LIG1        0.0660
     50 H          -9.4053    6.2484   -2.2565 H       1  LIG1        0.0660
@<TRIPOS>BOND
     1    50    47    1
     2    43    41    1
     3    25    22    1
     4    24    22    1
     5    41    42   ar
     6    41    40   ar
     7    22    23    1
     8    22    21    1
     9    47    49    1
    10    47    48    1
    11    47    46    1
    12    42    38   ar
    13    37    34    1
    14    11    10    1
    15     9    10    1
    16     9     3    1
    17    36    34    1
    18    40    46    1
    19    40    39   ar
    20    34    35    1
    21    34    33    1
    22    10    13    1
    23    10    12    1
    24    38    29    1
    25    38    39   ar
    26     7     2    1
    27     7     8    1
    28     3     2   ar
    29     3     4   ar
    30    30    29   ar
    31    30    26   ar
    32    21    16    1
    33    19    15    1
    34    19    20    1
    35    29    28   ar
    36    16    15   ar
    37    16    17   ar
    38    39    44    1
    39    15    14   ar
    40     2     1   ar
    41    17    26    1
    42    17    18   ar
    43    14    18   ar
    44    14     4    1
    45    26    27   ar
    46     4     5   ar
    47    28    27   ar
    48    28    33    1
    49    27    31    1
    50     1     5   ar
    51     1     6    1
    52    44    45    1
    53    31    32    1
