@<TRIPOS>MOLECULE
mol_data/opt/cam/geoms/mol2/12gl12gl12gl12gl-.out
 50 53 0 0 0
SMALL
GASTEIGER

@<TRIPOS>ATOM
      1 C           0.6692    1.4793    0.9511 C.ar    1  LIG1        0.1096
      2 C           1.8767    1.4462    0.3284 C.ar    1  LIG1        0.0852
      3 C           2.1578    2.8121   -0.0314 C.ar    1  LIG1        0.1819
      4 C           1.1050    3.5568    0.4234 C.ar    1  LIG1        0.2133
      5 O           0.1906    2.7334    1.0187 O.2     1  LIG1       -0.4549
      6 H           0.0521    0.7005    1.3709 H       1  LIG1        0.1042
      7 S           2.7577   -0.0266   -0.0933 S.3     1  LIG1       -0.1361
      8 H           3.6233   -0.0348    0.9382 H       1  LIG1        0.1073
      9 O           3.1793    3.3042   -0.7681 O.3     1  LIG1       -0.4902
     10 C           4.4928    3.0799   -0.2616 C.3     1  LIG1        0.0790
     11 H           5.1680    3.6069   -0.9350 H       1  LIG1        0.0660
     12 H           4.5935    3.4937    0.7465 H       1  LIG1        0.0660
     13 H           4.7401    2.0161   -0.2604 H       1  LIG1        0.0660
     14 C           0.7802    4.9576    0.3558 C.ar    1  LIG1        0.1912
     15 C           1.5242    6.0971    0.2208 C.ar    1  LIG1        0.0964
     16 C           0.5820    7.1719    0.1994 C.ar    1  LIG1        0.1827
     17 C          -0.6598    6.6247    0.3477 C.ar    1  LIG1        0.2144
     18 O          -0.5442    5.2729    0.4280 O.2     1  LIG1       -0.4435
     19 S           3.2694    6.2863    0.1097 S.3     1  LIG1       -0.1353
     20 H           3.2638    7.5195    0.6474 H       1  LIG1        0.1073
     21 O           0.8880    8.4912    0.0950 O.3     1  LIG1       -0.4902
     22 C           1.0256    8.9494   -1.2513 C.3     1  LIG1        0.0790
     23 H           1.2744   10.0087   -1.1907 H       1  LIG1        0.0660
     24 H           1.8242    8.4088   -1.7689 H       1  LIG1        0.0660
     25 H           0.0862    8.8244   -1.7985 H       1  LIG1        0.0660
     26 C          -1.9719    7.2044    0.4371 C.ar    1  LIG1        0.1912
     27 C          -2.4252    8.4377    0.8195 C.ar    1  LIG1        0.0964
     28 C          -3.8436    8.3933    0.6432 C.ar    1  LIG1        0.1827
     29 C          -4.1594    7.1425    0.1971 C.ar    1  LIG1        0.2143
     30 O          -3.0199    6.4178    0.0554 O.2     1  LIG1       -0.4435
     31 S          -1.5346    9.8216    1.4419 S.3     1  LIG1       -0.1353
     32 H          -2.6347   10.3781    1.9821 H       1  LIG1        0.1073
     33 O          -4.7034    9.4100    0.9172 O.3     1  LIG1       -0.4902
     34 C          -4.9343   10.2867   -0.1862 C.3     1  LIG1        0.0790
     35 H          -5.6321   11.0463    0.1657 H       1  LIG1        0.0660
     36 H          -4.0024   10.7607   -0.5112 H       1  LIG1        0.0660
     37 H          -5.3786    9.7429   -1.0255 H       1  LIG1        0.0660
     38 C          -5.4142    6.5121   -0.1169 C.ar    1  LIG1        0.1902
     39 C          -6.6983    6.7302    0.2979 C.ar    1  LIG1        0.0956
     40 C          -7.4972    5.7732   -0.4152 C.ar    1  LIG1        0.1715
     41 C          -6.6511    5.0474   -1.1868 C.ar    1  LIG1        0.1354
     42 O          -5.3835    5.4933   -1.0244 O.2     1  LIG1       -0.4548
     43 H          -6.7961    4.2148   -1.8553 H       1  LIG1        0.1068
     44 S          -7.3151    7.8675    1.4906 S.3     1  LIG1       -0.1354
     45 H          -8.4515    7.1702    1.6760 H       1  LIG1        0.1073
     46 O          -8.8391    5.6065   -0.2672 O.3     1  LIG1       -0.4908
     47 C          -9.6215    6.4527   -1.1053 C.3     1  LIG1        0.0790
     48 H         -10.6657    6.2404   -0.8745 H       1  LIG1        0.0660
     49 H          -9.4114    7.5098   -0.9099 H       1  LIG1        0.0660
     50 H          -9.4292    6.2389   -2.1621 H       1  LIG1        0.0660
@<TRIPOS>BOND
     1    50    47    1
     2    43    41    1
     3    25    22    1
     4    24    22    1
     5    22    23    1
     6    22    21    1
     7    41    42   ar
     8    41    40   ar
     9    47    49    1
    10    47    48    1
    11    47    46    1
    12    37    34    1
    13    42    38   ar
    14    11    10    1
    15     9    10    1
    16     9     3    1
    17    36    34    1
    18    40    46    1
    19    40    39   ar
    20    10    13    1
    21    10    12    1
    22    34    35    1
    23    34    33    1
    24    38    29    1
    25    38    39   ar
    26     7     2    1
    27     7     8    1
    28     3     2   ar
    29     3     4   ar
    30    30    29   ar
    31    30    26   ar
    32    21    16    1
    33    19    15    1
    34    19    20    1
    35    29    28   ar
    36    16    15   ar
    37    16    17   ar
    38    15    14   ar
    39    39    44    1
    40     2     1   ar
    41    17    18   ar
    42    17    26    1
    43    14     4    1
    44    14    18   ar
    45     4     5   ar
    46    26    27   ar
    47    28    27   ar
    48    28    33    1
    49    27    31    1
    50     1     5   ar
    51     1     6    1
    52    31    32    1
    53    44    45    1
