@<TRIPOS>MOLECULE
mol_data/opt/cam/geoms/mol2/12gl12gl12gl.out
 38 40 0 0 0
SMALL
GASTEIGER

@<TRIPOS>ATOM
      1 C           0.2254    1.5221    0.2103 C.ar    1  LIG1        0.1096
      2 C           1.5257    1.4890   -0.1831 C.ar    1  LIG1        0.0852
      3 C           1.9298    2.8682   -0.2814 C.ar    1  LIG1        0.1819
      4 C           0.8444    3.6164    0.0812 C.ar    1  LIG1        0.2133
      5 O          -0.2014    2.7861    0.3746 O.2     1  LIG1       -0.4549
      6 H          -0.4932    0.7388    0.3928 H       1  LIG1        0.1042
      7 S           2.4023    0.0284   -0.6536 S.3     1  LIG1       -0.1361
      8 H           3.0650   -0.1787    0.5002 H       1  LIG1        0.1073
      9 O           3.0928    3.3825   -0.7411 O.3     1  LIG1       -0.4902
     10 C           4.2750    2.9952   -0.0452 C.3     1  LIG1        0.0790
     11 H           5.0903    3.5546   -0.5031 H       1  LIG1        0.0660
     12 H           4.2041    3.2623    1.0137 H       1  LIG1        0.0660
     13 H           4.4648    1.9252   -0.1541 H       1  LIG1        0.0660
     14 C           0.5994    5.0327    0.1630 C.ar    1  LIG1        0.1912
     15 C           1.4028    6.1253    0.3362 C.ar    1  LIG1        0.0964
     16 C           0.5276    7.2560    0.3023 C.ar    1  LIG1        0.1827
     17 C          -0.7407    6.7812    0.1378 C.ar    1  LIG1        0.2143
     18 O          -0.7002    5.4265    0.0369 O.2     1  LIG1       -0.4435
     19 S           3.1437    6.2065    0.5732 S.3     1  LIG1       -0.1353
     20 H           3.0897    7.3539    1.2736 H       1  LIG1        0.1073
     21 O           0.9039    8.5526    0.4545 O.3     1  LIG1       -0.4902
     22 C           1.3017    9.1871   -0.7620 C.3     1  LIG1        0.0790
     23 H           1.5830   10.2065   -0.4986 H       1  LIG1        0.0660
     24 H           2.1552    8.6705   -1.2121 H       1  LIG1        0.0660
     25 H           0.4713    9.2088   -1.4745 H       1  LIG1        0.0660
     26 C          -2.0214    7.4339    0.0687 C.ar    1  LIG1        0.1902
     27 C          -2.4927    8.6182    0.5617 C.ar    1  LIG1        0.0956
     28 C          -3.8550    8.7029    0.1152 C.ar    1  LIG1        0.1715
     29 C          -4.1104    7.5749   -0.5922 C.ar    1  LIG1        0.1354
     30 O          -3.0013    6.7998   -0.6386 O.2     1  LIG1       -0.4548
     31 H          -4.9930    7.1977   -1.0818 H       1  LIG1        0.1068
     32 S          -1.6887    9.8046    1.5833 S.3     1  LIG1       -0.1354
     33 H          -2.8498   10.3149    2.0343 H       1  LIG1        0.1073
     34 O          -4.7218    9.7051    0.4224 O.3     1  LIG1       -0.4908
     35 C          -4.6468   10.8225   -0.4590 C.3     1  LIG1        0.0790
     36 H          -5.3656   11.5563   -0.0932 H       1  LIG1        0.0660
     37 H          -3.6436   11.2618   -0.4593 H       1  LIG1        0.0660
     38 H          -4.9101   10.5297   -1.4809 H       1  LIG1        0.0660
@<TRIPOS>BOND
     1    38    35    1
     2    25    22    1
     3    24    22    1
     4    31    29    1
     5    22    23    1
     6    22    21    1
     7     9     3    1
     8     9    10    1
     9     7     2    1
    10     7     8    1
    11    30    29   ar
    12    30    26   ar
    13    29    28   ar
    14    11    10    1
    15    37    35    1
    16    35    36    1
    17    35    34    1
    18     3     2   ar
    19     3     4   ar
    20     2     1   ar
    21    13    10    1
    22    10    12    1
    23    18    17   ar
    24    18    14   ar
    25    26    17    1
    26    26    27   ar
    27     4    14    1
    28     4     5   ar
    29    28    34    1
    30    28    27   ar
    31    17    16   ar
    32    14    15   ar
    33     1     5   ar
    34     1     6    1
    35    16    15   ar
    36    16    21    1
    37    15    19    1
    38    27    32    1
    39    19    20    1
    40    32    33    1
