@<TRIPOS>MOLECULE
mol_data/opt/cam/geoms/mol2/12gl12gl12gl12gl.out
 50 53 0 0 0
SMALL
GASTEIGER

@<TRIPOS>ATOM
      1 C           0.6646    1.4929    1.0267 C.ar    1  LIG1        0.1096
      2 C           1.8729    1.4496    0.4062 C.ar    1  LIG1        0.0852
      3 C           2.1554    2.8096    0.0262 C.ar    1  LIG1        0.1819
      4 C           1.1026    3.5619    0.4683 C.ar    1  LIG1        0.2133
      5 O           0.1868    2.7481    1.0748 O.2     1  LIG1       -0.4549
      6 H           0.0465    0.7209    1.4574 H       1  LIG1        0.1042
      7 S           2.7534   -0.0300    0.0079 S.3     1  LIG1       -0.1361
      8 H           3.6176   -0.0233    1.0405 H       1  LIG1        0.1073
      9 O           3.1782    3.2899   -0.7165 O.3     1  LIG1       -0.4902
     10 C           4.4909    3.0723   -0.2049 C.3     1  LIG1        0.0790
     11 H           5.1674    3.5886   -0.8854 H       1  LIG1        0.0660
     12 H           4.5906    3.5013    0.7969 H       1  LIG1        0.0660
     13 H           4.7375    2.0085   -0.1874 H       1  LIG1        0.0660
     14 C           0.7789    4.9617    0.3792 C.ar    1  LIG1        0.1912
     15 C           1.5239    6.0985    0.2279 C.ar    1  LIG1        0.0964
     16 C           0.5824    7.1735    0.1890 C.ar    1  LIG1        0.1827
     17 C          -0.6600    6.6295    0.3440 C.ar    1  LIG1        0.2144
     18 O          -0.5454    5.2789    0.4448 O.2     1  LIG1       -0.4435
     19 S           3.2693    6.2849    0.1163 S.3     1  LIG1       -0.1353
     20 H           3.2639    7.5261    0.6353 H       1  LIG1        0.1073
     21 O           0.8895    8.4909    0.0652 O.3     1  LIG1       -0.4902
     22 C           1.0291    8.9286   -1.2877 C.3     1  LIG1        0.0790
     23 H           1.2786    9.9886   -1.2428 H       1  LIG1        0.0660
     24 H           1.8280    8.3797   -1.7961 H       1  LIG1        0.0660
     25 H           0.0903    8.7960   -1.8342 H       1  LIG1        0.0660
     26 C          -1.9717    7.2114    0.4229 C.ar    1  LIG1        0.1912
     27 C          -2.4247    8.4506    0.7861 C.ar    1  LIG1        0.0964
     28 C          -3.8428    8.4045    0.6086 C.ar    1  LIG1        0.1827
     29 C          -4.1590    7.1473    0.1811 C.ar    1  LIG1        0.2143
     30 O          -3.0199    6.4199    0.0518 O.2     1  LIG1       -0.4435
     31 S          -1.5339    9.8432    1.3887 S.3     1  LIG1       -0.1353
     32 H          -2.6343   10.4085    1.9190 H       1  LIG1        0.1073
     33 O          -4.7023    9.4259    0.8661 O.3     1  LIG1       -0.4902
     34 C          -4.9312   10.2859   -0.2507 C.3     1  LIG1        0.0790
     35 H          -5.6289   11.0513    0.0888 H       1  LIG1        0.0660
     36 H          -3.9985   10.7543   -0.5816 H       1  LIG1        0.0660
     37 H          -5.3748    9.7298   -1.0822 H       1  LIG1        0.0660
     38 C          -5.4138    6.5132   -0.1250 C.ar    1  LIG1        0.1902
     39 C          -6.6983    6.7383    0.2848 C.ar    1  LIG1        0.0956
     40 C          -7.4970    5.7713   -0.4148 C.ar    1  LIG1        0.1715
     41 C          -6.6504    5.0333   -1.1742 C.ar    1  LIG1        0.1354
     42 O          -5.3827    5.4808   -1.0170 O.2     1  LIG1       -0.4548
     43 H          -6.7951    4.1908   -1.8303 H       1  LIG1        0.1068
     44 S          -7.3158    7.8940    1.4594 S.3     1  LIG1       -0.1354
     45 H          -8.4529    7.2003    1.6539 H       1  LIG1        0.1073
     46 O          -8.8391    5.6077   -0.2660 O.3     1  LIG1       -0.4908
     47 C          -9.6199    6.4417   -1.1178 C.3     1  LIG1        0.0790
     48 H         -10.6646    6.2336   -0.8851 H       1  LIG1        0.0660
     49 H          -9.4093    7.5015   -0.9381 H       1  LIG1        0.0660
     50 H          -9.4264    6.2118   -2.1709 H       1  LIG1        0.0660
@<TRIPOS>BOND
     1    50    47    1
     2    25    22    1
     3    43    41    1
     4    24    22    1
     5    22    23    1
     6    22    21    1
     7    41    42   ar
     8    41    40   ar
     9    47    49    1
    10    47    48    1
    11    47    46    1
    12    37    34    1
    13    42    38   ar
    14    11    10    1
    15     9    10    1
    16     9     3    1
    17    36    34    1
    18    40    46    1
    19    40    39   ar
    20    34    35    1
    21    34    33    1
    22    10    13    1
    23    10    12    1
    24    38    29    1
    25    38    39   ar
    26     7     2    1
    27     7     8    1
    28     3     2   ar
    29     3     4   ar
    30    30    29   ar
    31    30    26   ar
    32    21    16    1
    33    19    15    1
    34    19    20    1
    35    29    28   ar
    36    16    15   ar
    37    16    17   ar
    38    15    14   ar
    39    39    44    1
    40    17    26    1
    41    17    18   ar
    42    14    18   ar
    43    14     4    1
    44     2     1   ar
    45    26    27   ar
    46     4     5   ar
    47    28    27   ar
    48    28    33    1
    49    27    31    1
    50     1     5   ar
    51     1     6    1
    52    31    32    1
    53    44    45    1
