@<TRIPOS>MOLECULE
mol_data/opt/cam/geoms/mol2/12hd4hl-4de-12af.out
 54 57 0 0 0
SMALL
GASTEIGER

@<TRIPOS>ATOM
      1 C           0.5762    1.6572    0.4501 C.ar    1  LIG1        0.1352
      2 C           1.9090    1.7010    0.1906 C.ar    1  LIG1        0.1728
      3 C           2.2464    3.0909   -0.0209 C.ar    1  LIG1        0.1388
      4 C           1.0655    3.8144    0.1301 C.ar    1  LIG1        0.1594
      5 O           0.0686    2.9325    0.4127 O.2     1  LIG1       -0.4577
      6 H          -0.1168    0.8615    0.6616 H       1  LIG1        0.1068
      7 O           2.7586    0.6515    0.1395 O.3     1  LIG1       -0.5028
      8 H           3.6492    0.9820   -0.0560 H       1  LIG1        0.2923
      9 N           4.7434    3.4848   -0.4812 N.1     1  LIG1       -0.1906
     10 C           3.5940    3.4334   -0.2865 C.1     1  LIG1        0.1067
     11 C           1.5243    6.2463   -0.3314 C.ar    1  LIG1        0.1317
     12 C           1.0749    7.5629   -0.3641 C.ar    1  LIG1       -0.0049
     13 C           0.6589    5.2101    0.0817 C.ar    1  LIG1        0.0637
     14 C          -0.2352    7.9104    0.0108 C.ar    1  LIG1        0.0660
     15 H           1.7376    8.3513   -0.6905 H       1  LIG1        0.0662
     16 C          -0.6538    5.5568    0.4548 C.ar    1  LIG1       -0.0050
     17 C          -1.1080    6.8718    0.4313 C.ar    1  LIG1        0.1318
     18 H          -1.3129    4.7648    0.7792 H       1  LIG1        0.0662
     19 O           2.7746    5.8654   -0.7004 O.3     1  LIG1       -0.4944
     20 C           3.7332    6.8428   -1.0805 C.3     1  LIG1        0.0788
     21 H           4.6530    6.2871   -1.2647 H       1  LIG1        0.0660
     22 H           3.4267    7.3683   -1.9929 H       1  LIG1        0.0660
     23 H           3.8974    7.5728   -0.2789 H       1  LIG1        0.0660
     24 O          -2.3622    7.2364    0.8161 O.3     1  LIG1       -0.4944
     25 C          -3.2762    6.2282    1.2148 C.3     1  LIG1        0.0788
     26 H          -4.2090    6.7470    1.4374 H       1  LIG1        0.0660
     27 H          -3.4511    5.4997    0.4129 H       1  LIG1        0.0660
     28 H          -2.9307    5.6974    2.1115 H       1  LIG1        0.0660
     29 C          -0.6209    9.3132   -0.0367 C.ar    1  LIG1        0.1819
     30 C           0.1224   10.4769   -0.0375 C.ar    1  LIG1        0.1818
     31 C          -0.7964   11.5799   -0.1271 C.ar    1  LIG1        0.1127
     32 C          -2.0600   11.0047   -0.1824 C.ar    1  LIG1        0.1575
     33 O          -1.9436    9.6561   -0.1303 O.2     1  LIG1       -0.4496
     34 O           1.4810   10.5503   -0.0167 O.3     1  LIG1       -0.4901
     35 C           2.0442   11.1919    1.1385 C.3     1  LIG1        0.0790
     36 H           3.1256   11.1772    0.9945 H       1  LIG1        0.0660
     37 H           1.7007   12.2267    1.2223 H       1  LIG1        0.0660
     38 H           1.7860   10.6412    2.0503 H       1  LIG1        0.0660
     39 C          -0.4453   12.9490   -0.2163 C.1     1  LIG1       -0.0622
     40 C          -0.1189   14.1133   -0.2868 C.1     1  LIG1       -0.1137
     41 H           0.1612   15.1376   -0.3744 H       1  LIG1        0.1232
     42 C          -4.5107   10.9017   -0.8479 C.ar    1  LIG1        0.1240
     43 C          -3.3973   11.5782   -0.2666 C.ar    1  LIG1        0.0559
     44 C          -3.6131   12.8647    0.2460 C.ar    1  LIG1       -0.0053
     45 C          -4.8806   13.4317    0.1784 C.ar    1  LIG1        0.1356
     46 C          -5.9151   12.6793   -0.3930 C.ar    1  LIG1        0.0704
     47 N          -5.7354   11.4614   -0.8894 N.ar    1  LIG1       -0.2424
     48 H          -2.8061   13.4236    0.7031 H       1  LIG1        0.0662
     49 H          -6.9260   13.0872   -0.4497 H       1  LIG1        0.0867
     50 C          -4.4137    9.6127   -1.4654 C.1     1  LIG1       -0.0491
     51 C          -4.3831    8.5386   -2.0197 C.1     1  LIG1       -0.1124
     52 H          -4.3385    7.5929   -2.5077 H       1  LIG1        0.1232
     53 O          -5.0609   14.6818    0.6855 O.3     1  LIG1       -0.5052
     54 H          -5.9881   14.9371    0.5837 H       1  LIG1        0.2922
@<TRIPOS>BOND
     1    52    51    1
     2    51    50    3
     3    22    20    1
     4    50    42    1
     5    21    20    1
     6    20    19    1
     7    20    23    1
     8    47    42   ar
     9    47    46   ar
    10    42    43   ar
    11    19    11    1
    12    15    12    1
    13     9    10    3
    14    49    46    1
    15    46    45   ar
    16    41    40    1
    17    12    11   ar
    18    12    14   ar
    19    11    13   ar
    20    40    39    3
    21    10     3    1
    22    43    32    1
    23    43    44   ar
    24    39    31    1
    25    32    33   ar
    26    32    31   ar
    27    33    29   ar
    28    31    30   ar
    29     8     7    1
    30    30    29   ar
    31    30    34    1
    32    29    14    1
    33     3     4   ar
    34     3     2   ar
    35    34    35    1
    36    14    17   ar
    37    13     4    1
    38    13    16   ar
    39     4     5   ar
    40     7     2    1
    41    45    44   ar
    42    45    53    1
    43     2     1   ar
    44    44    48    1
    45     5     1   ar
    46    27    25    1
    47    17    16   ar
    48    17    24    1
    49     1     6    1
    50    16    18    1
    51    54    53    1
    52    24    25    1
    53    36    35    1
    54    35    37    1
    55    35    38    1
    56    25    26    1
    57    25    28    1
