@<TRIPOS>MOLECULE
mol_data/opt/cam/geoms/mol2/12hd12hd-4hd12hd.out
 45 48 0 0 0
SMALL
GASTEIGER

@<TRIPOS>ATOM
      1 C          -0.0326    1.6842   -0.2740 C.ar    1  LIG1        0.1146
      2 C           1.3202    1.6032   -0.2414 C.ar    1  LIG1        0.0812
      3 C           1.7946    2.9648   -0.1563 C.ar    1  LIG1        0.1211
      4 C           0.6761    3.7694   -0.1396 C.ar    1  LIG1        0.1907
      5 O          -0.4292    3.0095   -0.2076 O.2     1  LIG1       -0.4565
      6 H          -0.8232    0.9558   -0.3209 H       1  LIG1        0.1049
      7 N           2.1383    0.4895   -0.2164 N.pl3   1  LIG1       -0.3545
      8 H           1.7276   -0.3590   -0.5756 H       1  LIG1        0.1424
      9 H           3.0725    0.6413   -0.5687 H       1  LIG1        0.1424
     10 N           4.2469    3.7327   -0.0420 N.1     1  LIG1       -0.1907
     11 C           3.1408    3.3870   -0.0920 C.1     1  LIG1        0.1049
     12 C           0.4862    5.1759   -0.0678 C.ar    1  LIG1        0.1937
     13 C          -0.6438    5.9509    0.0031 C.ar    1  LIG1        0.0924
     14 C          -0.1768    7.3076    0.0655 C.ar    1  LIG1        0.1188
     15 C           1.2058    7.2746    0.0224 C.ar    1  LIG1        0.1568
     16 O           1.6008    5.9894   -0.0537 O.2     1  LIG1       -0.4484
     17 N          -1.9428    5.5572    0.0642 N.pl3   1  LIG1       -0.3539
     18 H          -2.6569    6.2472   -0.1062 H       1  LIG1        0.1425
     19 H          -2.1584    4.6008   -0.1652 H       1  LIG1        0.1425
     20 N          -1.8359    9.2649    0.2531 N.1     1  LIG1       -0.1907
     21 C          -1.0542    8.4133    0.1750 C.1     1  LIG1        0.1049
     22 C           3.5953    8.0627    0.3038 C.ar    1  LIG1        0.0361
     23 C           4.4778    9.1594    0.3172 C.ar    1  LIG1       -0.0284
     24 C           2.2196    8.3135    0.0280 C.ar    1  LIG1        0.0405
     25 C           4.0774   10.4601    0.0571 C.ar    1  LIG1        0.0382
     26 H           5.5107    8.9723    0.5915 H       1  LIG1        0.0644
     27 C           1.8272    9.6294   -0.2366 C.ar    1  LIG1       -0.0312
     28 C           2.7101   10.6984   -0.2340 C.ar    1  LIG1        0.0633
     29 H           0.7915    9.8372   -0.4746 H       1  LIG1        0.0638
     30 N           4.0898    6.8381    0.6030 N.pl3   1  LIG1       -0.3574
     31 H           3.5679    5.9943    0.4405 H       1  LIG1        0.1423
     32 H           5.0844    6.7271    0.7060 H       1  LIG1        0.1423
     33 N           1.7586   13.0097   -0.9069 N.1     1  LIG1       -0.1908
     34 C           2.2057   11.9902   -0.5914 C.1     1  LIG1        0.0999
     35 C           5.0733   11.5153    0.0748 C.ar    1  LIG1        0.1579
     36 C           6.4214   11.5190   -0.1769 C.ar    1  LIG1        0.0886
     37 C           6.8519   12.8769    0.0224 C.ar    1  LIG1        0.1106
     38 C           5.7393   13.5850    0.3739 C.ar    1  LIG1        0.1118
     39 O           4.6742   12.7907    0.4061 O.2     1  LIG1       -0.4597
     40 H           5.5865   14.6255    0.6135 H       1  LIG1        0.1043
     41 N           7.2487   10.4689   -0.5266 N.pl3   1  LIG1       -0.3540
     42 H           6.8077    9.7463   -1.0787 H       1  LIG1        0.1425
     43 H           8.1384   10.7552   -0.9131 H       1  LIG1        0.1425
     44 N           9.2746   13.6867   -0.3088 N.1     1  LIG1       -0.1907
     45 C           8.1781   13.3530   -0.1474 C.1     1  LIG1        0.1042
@<TRIPOS>BOND
     1    42    41    1
     2    43    41    1
     3    33    34    3
     4    34    28    1
     5     8     7    1
     6     9     7    1
     7    41    36    1
     8    29    27    1
     9     6     1    1
    10    44    45    3
    11     1     2   ar
    12     1     5   ar
    13     2     7    1
    14     2     3   ar
    15    27    28   ar
    16    27    24   ar
    17    28    25   ar
    18     5     4   ar
    19    36    37   ar
    20    36    35   ar
    21    19    17    1
    22     3     4   ar
    23     3    11    1
    24    45    37    1
    25     4    12    1
    26    18    17    1
    27    11    10    3
    28    12    16   ar
    29    12    13   ar
    30    16    15   ar
    31    13    17    1
    32    13    14   ar
    33    37    38   ar
    34    15    24    1
    35    15    14   ar
    36    24    22   ar
    37    25    35    1
    38    25    23   ar
    39    14    21    1
    40    35    39   ar
    41    21    20    3
    42    22    23   ar
    43    22    30    1
    44    23    26    1
    45    38    39   ar
    46    38    40    1
    47    31    30    1
    48    30    32    1
