@<TRIPOS>MOLECULE
mol_data/opt/cam/geoms/mol2/12hd12hd12hd12hd-.out
 42 45 0 0 0
SMALL
GASTEIGER

@<TRIPOS>ATOM
      1 C           0.1739    1.7493    0.1905 C.ar    1  LIG1        0.1146
      2 C           1.5037    1.7140   -0.0670 C.ar    1  LIG1        0.0812
      3 C           1.9031    3.0917   -0.2287 C.ar    1  LIG1        0.1211
      4 C           0.7708    3.8604   -0.0348 C.ar    1  LIG1        0.1907
      5 O          -0.2716    3.0547    0.2171 O.2     1  LIG1       -0.4565
      6 H          -0.5671    0.9917    0.3784 H       1  LIG1        0.1049
      7 N           2.3699    0.6361   -0.1202 N.pl3   1  LIG1       -0.3545
      8 H           1.9342   -0.2550   -0.3060 H       1  LIG1        0.1424
      9 H           3.1889    0.7823   -0.6933 H       1  LIG1        0.1424
     10 N           4.2443    3.9130   -0.9031 N.1     1  LIG1       -0.1907
     11 C           3.1900    3.5383   -0.5938 C.1     1  LIG1        0.1049
     12 C           0.5180    5.2661   -0.0390 C.ar    1  LIG1        0.1938
     13 C           1.2899    6.4039    0.0466 C.ar    1  LIG1        0.0925
     14 C           0.3588    7.5024    0.0395 C.ar    1  LIG1        0.1219
     15 C          -0.9128    6.9597   -0.0426 C.ar    1  LIG1        0.1918
     16 O          -0.8222    5.6262   -0.0906 O.2     1  LIG1       -0.4453
     17 N           2.6334    6.5591    0.1973 N.pl3   1  LIG1       -0.3539
     18 H           3.2611    5.8189   -0.0809 H       1  LIG1        0.1425
     19 H           2.9975    7.4922    0.0826 H       1  LIG1        0.1425
     20 N           1.0116    9.9816    0.2292 N.1     1  LIG1       -0.1907
     21 C           0.7144    8.8628    0.1437 C.1     1  LIG1        0.1050
     22 C          -2.2278    7.4954   -0.0890 C.ar    1  LIG1        0.1939
     23 C          -2.8065    8.7502   -0.1636 C.ar    1  LIG1        0.0925
     24 C          -4.2291    8.5242   -0.1832 C.ar    1  LIG1        0.1219
     25 C          -4.4176    7.1605   -0.1262 C.ar    1  LIG1        0.1917
     26 O          -3.2357    6.5367   -0.0706 O.2     1  LIG1       -0.4453
     27 N          -2.2513    9.9785   -0.2465 N.pl3   1  LIG1       -0.3539
     28 H          -1.2663   10.1339   -0.0988 H       1  LIG1        0.1425
     29 H          -2.8599   10.7798   -0.2010 H       1  LIG1        0.1425
     30 N          -5.9383   10.4419   -0.3026 N.1     1  LIG1       -0.1907
     31 C          -5.2008    9.5501   -0.2499 C.1     1  LIG1        0.1050
     32 C          -5.5499    6.3080   -0.1078 C.ar    1  LIG1        0.1928
     33 C          -5.6324    4.9322   -0.0549 C.ar    1  LIG1        0.0917
     34 C          -7.0452    4.6483   -0.0474 C.ar    1  LIG1        0.1107
     35 C          -7.6846    5.8540   -0.0986 C.ar    1  LIG1        0.1119
     36 O          -6.8118    6.8574   -0.1363 O.2     1  LIG1       -0.4566
     37 H          -8.7318    6.1132   -0.1125 H       1  LIG1        0.1043
     38 N          -4.6357    4.0187   -0.0417 N.pl3   1  LIG1       -0.3540
     39 H          -4.8552    3.0512    0.1255 H       1  LIG1        0.1425
     40 H          -3.6775    4.3199    0.0404 H       1  LIG1        0.1425
     41 N          -8.0361    2.2733    0.0555 N.1     1  LIG1       -0.1907
     42 C          -7.6212    3.3525    0.0067 C.1     1  LIG1        0.1042
@<TRIPOS>BOND
     1    10    11    3
     2     9     7    1
     3    11     3    1
     4     8     7    1
     5    30    31    3
     6    31    24    1
     7    27    29    1
     8    27    23    1
     9    27    28    1
    10     3     2   ar
    11     3     4   ar
    12    24    23   ar
    13    24    25   ar
    14    23    22   ar
    15    36    32   ar
    16    36    35   ar
    17    25    32    1
    18    25    26   ar
    19     7     2    1
    20    37    35    1
    21    32    33   ar
    22    35    34   ar
    23    16    15   ar
    24    16    12   ar
    25    22    26   ar
    26    22    15    1
    27    18    17    1
    28     2     1   ar
    29    33    34   ar
    30    33    38    1
    31    34    42    1
    32    15    14   ar
    33    38    40    1
    34    38    39    1
    35    12     4    1
    36    12    13   ar
    37     4     5   ar
    38    42    41    3
    39    14    13   ar
    40    14    21    1
    41    13    17    1
    42    19    17    1
    43    21    20    3
    44     1     5   ar
    45     1     6    1
