@<TRIPOS>MOLECULE
mol_data/opt/cam/geoms/mol2/12hd12hd12hd12hd.out
 42 45 0 0 0
SMALL
GASTEIGER

@<TRIPOS>ATOM
      1 C           0.4446    1.7624    0.6969 C.ar    1  LIG1        0.1146
      2 C           1.7371    1.7335    0.2894 C.ar    1  LIG1        0.0812
      3 C           2.0501    3.0887   -0.0947 C.ar    1  LIG1        0.1211
      4 C           0.9120    3.8394    0.1330 C.ar    1  LIG1        0.1907
      5 O          -0.0536    3.0429    0.6093 O.2     1  LIG1       -0.4565
      6 H          -0.2358    1.0144    1.0657 H       1  LIG1        0.1049
      7 N           2.6404    0.6839    0.2728 N.pl3   1  LIG1       -0.3545
      8 H           2.2248   -0.2357    0.2565 H       1  LIG1        0.1424
      9 H           3.3763    0.7750   -0.4135 H       1  LIG1        0.1424
     10 N           4.2550    3.8901   -1.1469 N.1     1  LIG1       -0.1907
     11 C           3.2630    3.5242   -0.6680 C.1     1  LIG1        0.1049
     12 C           0.6007    5.2271   -0.0178 C.ar    1  LIG1        0.1938
     13 C           1.3394    6.3835   -0.1306 C.ar    1  LIG1        0.0925
     14 C           0.3723    7.4464   -0.2133 C.ar    1  LIG1        0.1219
     15 C          -0.8812    6.8666   -0.1174 C.ar    1  LIG1        0.1918
     16 O          -0.7491    5.5431   -0.0055 O.2     1  LIG1       -0.4453
     17 N           2.6868    6.5882   -0.1061 N.pl3   1  LIG1       -0.3539
     18 H           3.3089    5.8390   -0.3734 H       1  LIG1        0.1425
     19 H           3.0039    7.5089   -0.3684 H       1  LIG1        0.1425
     20 N           0.9431    9.9243   -0.5913 N.1     1  LIG1       -0.1907
     21 C           0.6845    8.8062   -0.4178 C.1     1  LIG1        0.1050
     22 C          -2.2089    7.3862   -0.1098 C.ar    1  LIG1        0.1939
     23 C          -2.7732    8.6348    0.0588 C.ar    1  LIG1        0.0925
     24 C          -4.1942    8.4217   -0.0147 C.ar    1  LIG1        0.1219
     25 C          -4.3951    7.0651   -0.1973 C.ar    1  LIG1        0.1917
     26 O          -3.2167    6.4450   -0.2567 O.2     1  LIG1       -0.4453
     27 N          -2.2087    9.8441    0.3075 N.pl3   1  LIG1       -0.3539
     28 H          -1.2362   10.0106    0.0953 H       1  LIG1        0.1425
     29 H          -2.8091   10.6519    0.2539 H       1  LIG1        0.1425
     30 N          -5.9564   10.2919    0.0722 N.1     1  LIG1       -0.1907
     31 C          -5.1639    9.4451    0.0352 C.1     1  LIG1        0.1050
     32 C          -5.5603    6.2490   -0.3235 C.ar    1  LIG1        0.1928
     33 C          -6.9099    6.4190   -0.0751 C.ar    1  LIG1        0.0917
     34 C          -7.5084    5.1439   -0.3863 C.ar    1  LIG1        0.1107
     35 C          -6.4967    4.3202   -0.7809 C.ar    1  LIG1        0.1119
     36 O          -5.3317    4.9533   -0.7518 O.2     1  LIG1       -0.4566
     37 H          -6.4905    3.2900   -1.1018 H       1  LIG1        0.1043
     38 N          -7.6074    7.4725    0.4177 N.pl3   1  LIG1       -0.3540
     39 H          -7.2256    8.4059    0.3951 H       1  LIG1        0.1425
     40 H          -8.6132    7.4069    0.4001 H       1  LIG1        0.1425
     41 N         -10.0305    4.6617   -0.1890 N.1     1  LIG1       -0.1907
     42 C          -8.8922    4.8472   -0.2854 C.1     1  LIG1        0.1042
@<TRIPOS>BOND
     1    10    11    3
     2    37    35    1
     3    35    36   ar
     4    35    34   ar
     5    36    32   ar
     6    11     3    1
     7    20    21    3
     8    21    14    1
     9     9     7    1
    10    34    42    1
    11    34    33   ar
    12    18    17    1
    13    19    17    1
    14    32    25    1
    15    32    33   ar
    16    42    41    3
    17    26    25   ar
    18    26    22   ar
    19    14    13   ar
    20    14    15   ar
    21    25    24   ar
    22    13    17    1
    23    13    12   ar
    24    15    22    1
    25    15    16   ar
    26    22    23   ar
    27     3     4   ar
    28     3     2   ar
    29    33    38    1
    30    12    16   ar
    31    12     4    1
    32    24    31    1
    33    24    23   ar
    34    31    30    3
    35    23    27    1
    36    28    27    1
    37     4     5   ar
    38    29    27    1
    39     8     7    1
    40     7     2    1
    41     2     1   ar
    42    39    38    1
    43    40    38    1
    44     5     1   ar
    45     1     6    1
