@<TRIPOS>MOLECULE
mol_data/opt/cam/geoms/mol2/12hd6ae13he13hi.out
 48 51 0 0 0
SMALL
GASTEIGER

@<TRIPOS>ATOM
      1 C          -0.1000    1.8535    0.5965 C.ar    1  LIG1        0.1145
      2 C           1.2403    1.6848    0.4707 C.ar    1  LIG1        0.0811
      3 C           1.7706    3.0019    0.2191 C.ar    1  LIG1        0.1180
      4 C           0.7032    3.8727    0.2140 C.ar    1  LIG1        0.1554
      5 O          -0.4232    3.1797    0.4432 O.2     1  LIG1       -0.4597
      6 H          -0.9187    1.1841    0.7978 H       1  LIG1        0.1049
      7 N           2.0087    0.5427    0.6110 N.pl3   1  LIG1       -0.3545
      8 H           1.5258   -0.3262    0.4385 H       1  LIG1        0.1424
      9 H           2.9041    0.5802    0.1444 H       1  LIG1        0.1424
     10 N           4.2716    3.4655   -0.1765 N.1     1  LIG1       -0.1907
     11 C           3.1416    3.2829    0.0055 C.1     1  LIG1        0.1048
     12 C          -0.6898    5.9166    0.0538 C.ar    1  LIG1        0.0391
     13 C           0.5718    5.3053    0.0178 C.ar    1  LIG1        0.0379
     14 C           1.6544    6.1358   -0.2598 C.ar    1  LIG1       -0.0320
     15 C           1.4714    7.5059   -0.4329 C.ar    1  LIG1        0.0528
     16 C           0.1710    8.0481   -0.2491 C.ar    1  LIG1        0.1043
     17 N          -0.8813    7.2141   -0.0677 N.ar    1  LIG1       -0.2515
     18 H           2.6524    5.7310   -0.3816 H       1  LIG1        0.0638
     19 H          -1.5782    5.3077    0.1946 H       1  LIG1        0.0837
     20 C           2.5850    8.2619   -0.9110 C.1     1  LIG1       -0.0674
     21 C           3.5494    8.8333   -1.3553 C.1     1  LIG1       -0.1138
     22 H           4.3948    9.3281   -1.7761 H       1  LIG1        0.1232
     23 C          -0.1873    9.4415   -0.2578 C.ar    1  LIG1        0.0888
     24 C           0.4467   10.6545    0.0268 C.ar    1  LIG1        0.0680
     25 C          -0.5561   11.6748   -0.0114 C.ar    1  LIG1        0.0727
     26 C          -1.7854   11.0595   -0.2732 C.ar    1  LIG1        0.0826
     27 N          -1.5418    9.7406   -0.4305 N.ar    1  LIG1       -0.3493
     28 H          -2.2243    8.9975   -0.3976 H       1  LIG1        0.1661
     29 N           1.7413   10.9120    0.3884 N.pl3   1  LIG1       -0.3553
     30 H           2.4598   10.2999    0.0312 H       1  LIG1        0.1424
     31 H           1.9816   11.8926    0.4017 H       1  LIG1        0.1424
     32 C          -0.2752   13.0545    0.1231 C.1     1  LIG1       -0.0656
     33 C           0.0163   14.2204    0.2501 C.1     1  LIG1       -0.1138
     34 H           0.2698   15.2524    0.3255 H       1  LIG1        0.1232
     35 C          -3.1148   11.5922   -0.4206 C.ar    1  LIG1        0.0853
     36 C          -3.7763   12.6506    0.1845 C.ar    1  LIG1        0.0546
     37 C          -5.1268   12.6411   -0.2823 C.ar    1  LIG1       -0.0118
     38 C          -5.2420   11.5834   -1.1476 C.ar    1  LIG1        0.0069
     39 N          -4.0509   10.9235   -1.2067 N.ar    1  LIG1       -0.3578
     40 H          -3.7914   10.2873   -1.9427 H       1  LIG1        0.1654
     41 H          -6.0936   11.2571   -1.7264 H       1  LIG1        0.0810
     42 N          -3.3016   13.5062    1.1704 N.pl3   1  LIG1       -0.3561
     43 H          -2.3060   13.6844    1.1391 H       1  LIG1        0.1424
     44 H          -3.8249   14.3677    1.2369 H       1  LIG1        0.1424
     45 C          -6.1978   13.5924    0.1450 C.3     1  LIG1       -0.0365
     46 H          -7.1411   13.3746   -0.3610 H       1  LIG1        0.0279
     47 H          -5.9378   14.6321   -0.0877 H       1  LIG1        0.0279
     48 H          -6.3808   13.5378    1.2238 H       1  LIG1        0.0279
@<TRIPOS>BOND
     1    40    39    1
     2    22    21    1
     3    41    38    1
     4    21    20    3
     5    39    38   ar
     6    39    35   ar
     7    38    37   ar
     8    20    15    1
     9    15    14   ar
    10    15    16   ar
    11    27    28    1
    12    27    26   ar
    13    27    23   ar
    14    35    26    1
    15    35    36   ar
    16    18    14    1
    17    46    45    1
    18    37    45    1
    19    37    36   ar
    20    26    25   ar
    21    14    13   ar
    22    23    16    1
    23    23    24   ar
    24    16    17   ar
    25    10    11    3
    26    47    45    1
    27    17    12   ar
    28    25    24   ar
    29    25    32    1
    30    11     3    1
    31    13    12   ar
    32    13     4    1
    33    24    29    1
    34    30    29    1
    35    12    19    1
    36    32    33    3
    37     9     7    1
    38    45    48    1
    39    36    42    1
    40     4     3   ar
    41     4     5   ar
    42     3     2   ar
    43    33    34    1
    44    29    31    1
    45     8     7    1
    46     5     1   ar
    47     2     1   ar
    48     2     7    1
    49     1     6    1
    50    43    42    1
    51    42    44    1
