@<TRIPOS>MOLECULE
mol_data/opt/cam/geoms/mol2/12hd4ea-12af-4ie6hh6ea4ea13il.out
 98 105 0 0 0
SMALL
GASTEIGER

@<TRIPOS>ATOM
      1 C           1.4949    1.6671    1.5911 C.ar    1  LIG1        0.1145
      2 C           2.5357    1.5508    0.7277 C.ar    1  LIG1        0.0811
      3 C           2.7112    2.8643    0.1591 C.ar    1  LIG1        0.1180
      4 C           1.7642    3.6803    0.7314 C.ar    1  LIG1        0.1551
      5 O           1.0262    2.9550    1.5908 O.2     1  LIG1       -0.4597
      6 H           1.0026    0.9804    2.2584 H       1  LIG1        0.1049
      7 N           3.3383    0.4592    0.4439 N.pl3   1  LIG1       -0.3545
      8 H           2.9013   -0.4412    0.5719 H       1  LIG1        0.1424
      9 H           3.8259    0.5228   -0.4393 H       1  LIG1        0.1424
     10 N           4.3860    3.2347   -1.7583 N.1     1  LIG1       -0.1907
     11 C           3.6293    3.1318   -0.8876 C.1     1  LIG1        0.1048
     12 C           2.2756    6.1336    0.4068 C.ar    1  LIG1        0.0360
     13 C           1.7965    7.4331    0.2325 C.ar    1  LIG1       -0.0350
     14 C           1.3579    5.0736    0.5560 C.ar    1  LIG1        0.0340
     15 C           0.4318    7.7127    0.2193 C.ar    1  LIG1        0.0186
     16 H           2.5195    8.2327    0.1235 H       1  LIG1        0.0637
     17 C          -0.0090    5.3677    0.5652 C.ar    1  LIG1       -0.0492
     18 C          -0.4710    6.6592    0.3995 C.ar    1  LIG1       -0.0503
     19 H          -0.7145    4.5558    0.6977 H       1  LIG1        0.0625
     20 C           3.6912    5.9400    0.4807 C.1     1  LIG1       -0.0689
     21 C           4.8867    5.8252    0.5526 C.1     1  LIG1       -0.1139
     22 H           5.9434    5.6924    0.5944 H       1  LIG1        0.1232
     23 H          -1.5350    6.8623    0.4016 H       1  LIG1        0.0625
     24 C          -0.0425    9.0769    0.0293 C.ar    1  LIG1        0.1394
     25 C           0.5921   10.2630   -0.1946 C.ar    1  LIG1        0.0264
     26 C          -0.4331   11.2418   -0.2934 C.ar    1  LIG1        0.1632
     27 C          -1.6294   10.6091   -0.1015 C.ar    1  LIG1        0.1771
     28 O          -1.3853    9.2717    0.0740 O.2     1  LIG1       -0.4510
     29 H           1.6514   10.4372   -0.3016 H       1  LIG1        0.0692
     30 O          -0.1965   12.5502   -0.5687 O.3     1  LIG1       -0.5032
     31 H          -1.0051   12.9465   -0.9163 H       1  LIG1        0.2923
     32 C          -3.4771   12.1693    0.5774 C.ar    1  LIG1       -0.0390
     33 C          -4.8129   12.5417    0.4443 C.ar    1  LIG1       -0.0492
     34 C          -3.0231   11.0531   -0.1511 C.ar    1  LIG1        0.0250
     35 C          -5.7269   11.8441   -0.3432 C.ar    1  LIG1        0.0011
     36 H          -5.1755   13.3933    1.0112 H       1  LIG1        0.0627
     37 C          -3.9267   10.3382   -0.9363 C.ar    1  LIG1       -0.0347
     38 C          -5.2663   10.7117   -1.0426 C.ar    1  LIG1        0.0332
     39 H          -3.5766    9.4755   -1.4914 H       1  LIG1        0.0637
     40 C          -2.5888   12.9084    1.5440 C.3     1  LIG1       -0.0390
     41 H          -3.1638   13.6446    2.1079 H       1  LIG1        0.0278
     42 H          -1.7607   13.4290    1.0564 H       1  LIG1        0.0278
     43 H          -2.1343   12.2118    2.2542 H       1  LIG1        0.0278
     44 C          -6.1307    9.9464   -1.8916 C.1     1  LIG1       -0.0690
     45 C          -6.8437    9.2805   -2.5975 C.1     1  LIG1       -0.1139
     46 H          -7.4772    8.7049   -3.2326 H       1  LIG1        0.1232
     47 C          -8.2425   11.6046    0.0309 C.ar    1  LIG1        0.1247
     48 C          -7.1255   12.3401   -0.4259 C.ar    1  LIG1        0.0246
     49 C          -7.3641   13.6206   -0.8997 C.ar    1  LIG1       -0.0279
     50 C          -8.6481   14.1659   -0.9275 C.ar    1  LIG1        0.0517
     51 C          -9.6796   13.3584   -0.4344 C.ar    1  LIG1        0.0963
     52 N          -9.4646   12.1205    0.0161 N.ar    1  LIG1       -0.2299
     53 H          -6.5270   14.2106   -1.2635 H       1  LIG1        0.0644
     54 N          -8.1198   10.3451    0.6005 N.pl3   1  LIG1       -0.3426
     55 H          -9.0281    9.9206    0.7305 H       1  LIG1        0.1437
     56 H          -7.4632    9.7244    0.1499 H       1  LIG1        0.1437
     57 N          -8.8629   15.4741   -1.3848 N.pl3   1  LIG1       -0.3563
     58 H          -8.1603   15.7897   -2.0395 H       1  LIG1        0.1424
     59 H          -9.7910   15.6317   -1.7537 H       1  LIG1        0.1424
     60 C         -12.1618   13.1406   -0.9273 C.ar    1  LIG1        0.1230
     61 C         -11.0820   13.8488   -0.3685 C.ar    1  LIG1        0.0361
     62 C         -11.3912   15.0308    0.3014 C.ar    1  LIG1       -0.0478
     63 C         -12.7033   15.4589    0.4030 C.ar    1  LIG1       -0.0350
     64 C         -13.7086   14.6907   -0.1884 C.ar    1  LIG1        0.0736
     65 N         -13.4289   13.5543   -0.8323 N.ar    1  LIG1       -0.2377
     66 H         -10.5923   15.6068    0.7565 H       1  LIG1        0.0626
     67 C         -11.9635   11.9316   -1.6825 C.1     1  LIG1       -0.0491
     68 C         -11.8357   10.9382   -2.3477 C.1     1  LIG1       -0.1124
     69 H         -11.7209   10.0535   -2.9300 H       1  LIG1        0.1232
     70 H         -12.9456   16.3634    0.9430 H       1  LIG1        0.0639
     71 C         -15.6554   16.3537   -0.0896 C.ar    1  LIG1        0.0345
     72 C         -17.0345   16.5713    0.0050 C.ar    1  LIG1       -0.0366
     73 C         -15.1519   15.0376   -0.1004 C.ar    1  LIG1        0.0158
     74 C         -17.9420   15.5181    0.1028 C.ar    1  LIG1       -0.0001
     75 H         -17.3957   17.5914   -0.0307 H       1  LIG1        0.0636
     76 C         -16.0706   13.9877   -0.0315 C.ar    1  LIG1       -0.0508
     77 C         -17.4294   14.2144    0.0806 C.ar    1  LIG1       -0.0519
     78 H         -15.6848   12.9758   -0.0579 H       1  LIG1        0.0625
     79 C         -14.8296   17.5179   -0.2387 C.1     1  LIG1       -0.0690
     80 C         -14.1993   18.5357   -0.3703 C.1     1  LIG1       -0.1139
     81 H         -13.6302   19.4284   -0.4916 H       1  LIG1        0.1232
     82 H         -18.1014   13.3682    0.1846 H       1  LIG1        0.0624
     83 C         -19.3798   15.7650    0.2059 C.ar    1  LIG1        0.0530
     84 C         -20.0934   16.7854    0.8114 C.ar    1  LIG1        0.0164
     85 C         -21.4691   16.4717    0.6270 C.ar    1  LIG1        0.1408
     86 C         -21.5661   15.2965   -0.0747 C.ar    1  LIG1        0.0446
     87 N         -20.2889   14.8670   -0.3078 N.ar    1  LIG1       -0.3574
     88 H         -20.0400   14.0851   -0.8898 H       1  LIG1        0.1655
     89 H         -22.4322   14.7438   -0.4019 H       1  LIG1        0.0844
     90 C         -19.5842   17.9510    1.5990 C.3     1  LIG1       -0.0342
     91 H         -20.3343   18.2509    2.3353 H       1  LIG1        0.0279
     92 H         -19.3765   18.8257    0.9714 H       1  LIG1        0.0279
     93 H         -18.6621   17.7064    2.1319 H       1  LIG1        0.0279
     94 O         -22.5225   17.1883    1.1274 O.3     1  LIG1       -0.4933
     95 C         -22.8545   18.3341    0.3626 C.3     1  LIG1        0.0789
     96 H         -23.6995   18.8136    0.8596 H       1  LIG1        0.0660
     97 H         -22.0199   19.0435    0.3114 H       1  LIG1        0.0660
     98 H         -23.1425   18.0590   -0.6592 H       1  LIG1        0.0660
@<TRIPOS>BOND
     1    46    45    1
     2    69    68    1
     3    45    44    3
     4    68    67    3
     5    58    57    1
     6    44    38    1
     7    10    11    3
     8    59    57    1
     9    67    60    1
    10    39    37    1
    11    57    50    1
    12    53    49    1
    13    38    37   ar
    14    38    35   ar
    15    37    34   ar
    16    50    49   ar
    17    50    51   ar
    18    60    65   ar
    19    60    61   ar
    20    31    30    1
    21    49    48   ar
    22    88    87    1
    23    11     3    1
    24    65    64   ar
    25    98    95    1
    26    30    26    1
    27    81    80    1
    28     9     7    1
    29    51    61    1
    30    51    52   ar
    31    48    35    1
    32    48    47   ar
    33    89    86    1
    34    80    79    3
    35    61    62   ar
    36    35    33   ar
    37    87    86   ar
    38    87    83   ar
    39    29    25    1
    40    26    25   ar
    41    26    27   ar
    42    79    71    1
    43    25    24   ar
    44    64    73    1
    45    64    63   ar
    46    34    27    1
    47    34    32   ar
    48    27    28   ar
    49    73    71   ar
    50    73    76   ar
    51    71    72   ar
    52    86    85   ar
    53    78    76    1
    54    76    77   ar
    55    75    72    1
    56    72    74   ar
    57    52    47   ar
    58    24    28   ar
    59    24    15    1
    60    47    54    1
    61    77    74   ar
    62    77    82    1
    63    74    83    1
    64    16    13    1
    65    56    54    1
    66     3     2   ar
    67     3     4   ar
    68    83    84   ar
    69    15    13   ar
    70    15    18   ar
    71    13    12   ar
    72    62    63   ar
    73    62    66    1
    74    97    95    1
    75    95    96    1
    76    95    94    1
    77    18    23    1
    78    18    17   ar
    79    63    70    1
    80    12    20    1
    81    12    14   ar
    82     7     8    1
    83     7     2    1
    84    33    32   ar
    85    33    36    1
    86    20    21    3
    87    21    22    1
    88    14    17   ar
    89    14     4    1
    90    17    19    1
    91    32    40    1
    92    54    55    1
    93    85    84   ar
    94    85    94    1
    95     2     1   ar
    96     4     5   ar
    97    84    90    1
    98    92    90    1
    99    42    40    1
   100    40    41    1
   101    40    43    1
   102     5     1   ar
   103     1     6    1
   104    90    93    1
   105    90    91    1
