@<TRIPOS>MOLECULE
mol_data/opt/cam/geoms/mol2/12hd12hd-.out
 22 23 0 0 0
SMALL
GASTEIGER

@<TRIPOS>ATOM
      1 C           0.1575    1.8454   -0.1164 C.ar    1  LIG1        0.1146
      2 C           1.5123    1.8030   -0.0733 C.ar    1  LIG1        0.0812
      3 C           1.9506    3.1785   -0.0245 C.ar    1  LIG1        0.1211
      4 C           0.8134    3.9496   -0.0377 C.ar    1  LIG1        0.1907
      5 O          -0.2729    3.1594   -0.0922 O.2     1  LIG1       -0.4565
      6 H          -0.6130    1.0949   -0.1453 H       1  LIG1        0.1049
      7 N           2.3630    0.7158   -0.0156 N.pl3   1  LIG1       -0.3545
      8 H           2.0023   -0.1432   -0.4019 H       1  LIG1        0.1424
      9 H           3.3098    0.9062   -0.3118 H       1  LIG1        0.1424
     10 N           4.4287    3.8680    0.0194 N.1     1  LIG1       -0.1907
     11 C           3.3024    3.5974    0.0069 C.1     1  LIG1        0.1049
     12 C           0.5743    5.3564   -0.0182 C.ar    1  LIG1        0.1928
     13 C          -0.5886    6.0862   -0.0349 C.ar    1  LIG1        0.0917
     14 C          -0.1665    7.4633   -0.0193 C.ar    1  LIG1        0.1107
     15 C           1.1984    7.4509    0.0096 C.ar    1  LIG1        0.1119
     16 O           1.6590    6.2010    0.0124 O.2     1  LIG1       -0.4566
     17 H           1.9287    8.2443    0.0285 H       1  LIG1        0.1043
     18 N          -1.8799    5.6439   -0.0114 N.pl3   1  LIG1       -0.3540
     19 H          -2.5931    6.2868   -0.3182 H       1  LIG1        0.1425
     20 H          -2.0321    4.6722   -0.2310 H       1  LIG1        0.1425
     21 N          -1.7729    9.4763   -0.0703 N.1     1  LIG1       -0.1907
     22 C          -1.0288    8.5904   -0.0419 C.1     1  LIG1        0.1042
@<TRIPOS>BOND
     1     8     7    1
     2    19    18    1
     3     9     7    1
     4    20    18    1
     5     6     1    1
     6     1     5   ar
     7     1     2   ar
     8     5     4   ar
     9     2     3   ar
    10     2     7    1
    11    21    22    3
    12    22    14    1
    13     4     3   ar
    14     4    12    1
    15    13    14   ar
    16    13    12   ar
    17    13    18    1
    18     3    11    1
    19    14    15   ar
    20    12    16   ar
    21    11    10    3
    22    15    16   ar
    23    15    17    1
