@<TRIPOS>MOLECULE
mol_data/opt/cam/geoms/mol2/12hd12hd-12hd-12hd-.out
 42 45 0 0 0
SMALL
GASTEIGER

@<TRIPOS>ATOM
      1 C           0.1687    1.7445    0.0193 C.ar    1  LIG1        0.1146
      2 C           1.5243    1.7539    0.0260 C.ar    1  LIG1        0.0812
      3 C           1.9143    3.1452    0.0137 C.ar    1  LIG1        0.1211
      4 C           0.7462    3.8740    0.0055 C.ar    1  LIG1        0.1907
      5 O          -0.3113    3.0430    0.0100 O.2     1  LIG1       -0.4565
      6 H          -0.5734    0.9656    0.0394 H       1  LIG1        0.1049
      7 N           2.4162    0.6998    0.0981 N.pl3   1  LIG1       -0.3545
      8 H           2.0755   -0.1829   -0.2516 H       1  LIG1        0.1424
      9 H           3.3443    0.9144   -0.2384 H       1  LIG1        0.1424
     10 N           4.3697    3.9123   -0.0546 N.1     1  LIG1       -0.1907
     11 C           3.2515    3.6096   -0.0166 C.1     1  LIG1        0.1049
     12 C           0.4678    5.2682   -0.0211 C.ar    1  LIG1        0.1938
     13 C          -0.7010    5.9837   -0.0729 C.ar    1  LIG1        0.0925
     14 C          -0.3042    7.3652   -0.1228 C.ar    1  LIG1        0.1219
     15 C           1.0837    7.3851   -0.0867 C.ar    1  LIG1        0.1918
     16 O           1.5427    6.1295   -0.0236 O.2     1  LIG1       -0.4453
     17 N          -1.9847    5.5199   -0.0349 N.pl3   1  LIG1       -0.3539
     18 H          -2.7066    6.1247   -0.3940 H       1  LIG1        0.1425
     19 H          -2.1124    4.5337   -0.2002 H       1  LIG1        0.1425
     20 N          -1.8998    9.3695   -0.3386 N.1     1  LIG1       -0.1907
     21 C          -1.1804    8.4646   -0.2338 C.1     1  LIG1        0.1050
     22 C           2.0782    8.4017   -0.0996 C.ar    1  LIG1        0.1939
     23 C           2.1073    9.7828   -0.0657 C.ar    1  LIG1        0.0925
     24 C           3.5031   10.1341   -0.0975 C.ar    1  LIG1        0.1219
     25 C           4.2211    8.9488   -0.1316 C.ar    1  LIG1        0.1917
     26 O           3.3767    7.9209   -0.1354 O.2     1  LIG1       -0.4453
     27 N           1.1064   10.6902    0.0205 N.pl3   1  LIG1       -0.3539
     28 H           1.3335   11.6644   -0.0944 H       1  LIG1        0.1425
     29 H           0.1417   10.4280   -0.1114 H       1  LIG1        0.1425
     30 N           4.3991   12.5432   -0.1570 N.1     1  LIG1       -0.1907
     31 C           3.9996   11.4541   -0.1255 C.1     1  LIG1        0.1050
     32 C           5.6061    8.6118   -0.1564 C.ar    1  LIG1        0.1928
     33 C           6.8017    9.2972   -0.0338 C.ar    1  LIG1        0.0917
     34 C           7.8215    8.2801   -0.1145 C.ar    1  LIG1        0.1107
     35 C           7.1760    7.0869   -0.2680 C.ar    1  LIG1        0.1119
     36 O           5.8651    7.2604   -0.2965 O.2     1  LIG1       -0.4566
     37 H           7.5367    6.0744   -0.3652 H       1  LIG1        0.1043
     38 N           7.0653   10.6089    0.1690 N.pl3   1  LIG1       -0.3540
     39 H           8.0250   10.9113    0.1237 H       1  LIG1        0.1425
     40 H           6.3560   11.3176    0.0659 H       1  LIG1        0.1425
     41 N          10.3432    8.7838    0.0182 N.1     1  LIG1       -0.1907
     42 C           9.2170    8.5234   -0.0423 C.1     1  LIG1        0.1042
@<TRIPOS>BOND
     1    18    17    1
     2    37    35    1
     3    20    21    3
     4    36    35   ar
     5    36    32   ar
     6    35    34   ar
     7     8     7    1
     8     9     7    1
     9    21    14    1
    10    19    17    1
    11    30    31    3
    12    32    25    1
    13    32    33   ar
    14    26    25   ar
    15    26    22   ar
    16    25    24   ar
    17    31    24    1
    18    14    15   ar
    19    14    13   ar
    20    34    42    1
    21    34    33   ar
    22    29    27    1
    23    22    15    1
    24    22    23   ar
    25    24    23   ar
    26    28    27    1
    27    15    16   ar
    28    13    17    1
    29    13    12   ar
    30    23    27    1
    31    10    11    3
    32    42    41    3
    33    33    38    1
    34    16    12   ar
    35    12     4    1
    36    11     3    1
    37     4     5   ar
    38     4     3   ar
    39     5     1   ar
    40     3     2   ar
    41     1     2   ar
    42     1     6    1
    43     2     7    1
    44    40    38    1
    45    39    38    1
