@<TRIPOS>MOLECULE
mol_data/opt/cam/geoms/mol2/12hd12hd-12hd12hd-.out
 42 45 0 0 0
SMALL
GASTEIGER

@<TRIPOS>ATOM
      1 C           0.1360    1.7345   -0.1187 C.ar    1  LIG1        0.1146
      2 C           1.4914    1.7262   -0.0981 C.ar    1  LIG1        0.0812
      3 C           1.8950    3.1125   -0.0680 C.ar    1  LIG1        0.1211
      4 C           0.7342    3.8570   -0.0689 C.ar    1  LIG1        0.1907
      5 O          -0.3313    3.0404   -0.0961 O.2     1  LIG1       -0.4565
      6 H          -0.6151    0.9642   -0.1278 H       1  LIG1        0.1049
      7 N           2.3665    0.6566   -0.0419 N.pl3   1  LIG1       -0.3545
      8 H           1.9956   -0.2223   -0.3704 H       1  LIG1        0.1424
      9 H           3.2860    0.8442   -0.4155 H       1  LIG1        0.1424
     10 N           4.2846    4.0634   -0.0483 N.1     1  LIG1       -0.1907
     11 C           3.2107    3.6248   -0.0521 C.1     1  LIG1        0.1049
     12 C           0.4976    5.2543   -0.0574 C.ar    1  LIG1        0.1938
     13 C          -0.6467    6.0141   -0.0639 C.ar    1  LIG1        0.0925
     14 C          -0.2087    7.3820   -0.0683 C.ar    1  LIG1        0.1219
     15 C           1.1793    7.3542   -0.0592 C.ar    1  LIG1        0.1918
     16 O           1.6096    6.0849   -0.0505 O.2     1  LIG1       -0.4453
     17 N          -1.9389    5.5865   -0.0221 N.pl3   1  LIG1       -0.3539
     18 H          -2.6583    6.2326   -0.3045 H       1  LIG1        0.1425
     19 H          -2.1095    4.6112   -0.2099 H       1  LIG1        0.1425
     20 N          -1.6806    9.4895   -0.1000 N.1     1  LIG1       -0.1907
     21 C          -1.0215    8.5351   -0.0823 C.1     1  LIG1        0.1050
     22 C           2.1558    8.3664   -0.0575 C.ar    1  LIG1        0.1939
     23 C           3.5403    8.3444   -0.0499 C.ar    1  LIG1        0.0925
     24 C           3.9452    9.7252   -0.0500 C.ar    1  LIG1        0.1219
     25 C           2.7882   10.4814   -0.0575 C.ar    1  LIG1        0.1917
     26 O           1.7122    9.6828   -0.0621 O.2     1  LIG1       -0.4453
     27 N           4.3781    7.2943   -0.0458 N.pl3   1  LIG1       -0.3539
     28 H           4.0585    6.3359   -0.0384 H       1  LIG1        0.1425
     29 H           5.3716    7.4559   -0.0314 H       1  LIG1        0.1425
     30 N           6.4125   10.4498   -0.0396 N.1     1  LIG1       -0.1907
     31 C           5.2895   10.1651   -0.0442 C.1     1  LIG1        0.1050
     32 C           2.5329   11.8738   -0.0616 C.ar    1  LIG1        0.1928
     33 C           1.3552   12.5994   -0.0705 C.ar    1  LIG1        0.0917
     34 C           1.7779   13.9796   -0.0699 C.ar    1  LIG1        0.1107
     35 C           3.1426   13.9725   -0.0609 C.ar    1  LIG1        0.1119
     36 O           3.6149   12.7309   -0.0559 O.2     1  LIG1       -0.4566
     37 H           3.8658   14.7733   -0.0573 H       1  LIG1        0.1043
     38 N           0.0774   12.1782   -0.0791 N.pl3   1  LIG1       -0.3540
     39 H          -0.6684   12.8537   -0.0811 H       1  LIG1        0.1425
     40 H          -0.1768   11.2011   -0.0772 H       1  LIG1        0.1425
     41 N           0.1633   15.9861   -0.0846 N.1     1  LIG1       -0.1907
     42 C           0.9116   15.1032   -0.0777 C.1     1  LIG1        0.1042
@<TRIPOS>BOND
     1     9     7    1
     2     8     7    1
     3    18    17    1
     4    19    17    1
     5     6     1    1
     6     1     2   ar
     7     1     5   ar
     8    20    21    3
     9     2     3   ar
    10     2     7    1
    11     5     4   ar
    12    41    42    3
    13    21    14    1
    14    39    38    1
    15    38    40    1
    16    38    33    1
    17    42    34    1
    18    33    34   ar
    19    33    32   ar
    20    34    35   ar
    21     4     3   ar
    22     4    12    1
    23    14    13   ar
    24    14    15   ar
    25     3    11    1
    26    13    12   ar
    27    13    17    1
    28    26    25   ar
    29    26    22   ar
    30    32    25    1
    31    32    36   ar
    32    35    37    1
    33    35    36   ar
    34    15    22    1
    35    15    16   ar
    36    25    24   ar
    37    22    23   ar
    38    12    16   ar
    39    11    10    3
    40    24    23   ar
    41    24    31    1
    42    23    27    1
    43    27    28    1
    44    27    29    1
    45    31    30    3
