@<TRIPOS>MOLECULE
mol_data/opt/cam/geoms/mol2/12hd12hd12hd.out
 32 34 0 0 0
SMALL
GASTEIGER

@<TRIPOS>ATOM
      1 C           0.2814    1.7340    0.4250 C.ar    1  LIG1        0.1146
      2 C           1.5990    1.7167    0.1069 C.ar    1  LIG1        0.0812
      3 C           1.9467    3.0900   -0.1671 C.ar    1  LIG1        0.1211
      4 C           0.8006    3.8368    0.0286 C.ar    1  LIG1        0.1907
      5 O          -0.2010    3.0228    0.3851 O.2     1  LIG1       -0.4565
      6 H          -0.4282    0.9717    0.6968 H       1  LIG1        0.1049
      7 N           2.4941    0.6604    0.0859 N.pl3   1  LIG1       -0.3545
      8 H           2.0745   -0.2518   -0.0166 H       1  LIG1        0.1424
      9 H           3.2768    0.7860   -0.5407 H       1  LIG1        0.1424
     10 N           4.2248    3.9362   -1.0076 N.1     1  LIG1       -0.1907
     11 C           3.1997    3.5494   -0.6245 C.1     1  LIG1        0.1049
     12 C           0.5089    5.2351   -0.0551 C.ar    1  LIG1        0.1938
     13 C           1.2596    6.3890   -0.0423 C.ar    1  LIG1        0.0925
     14 C           0.3048    7.4636   -0.1261 C.ar    1  LIG1        0.1219
     15 C          -0.9526    6.8906   -0.1565 C.ar    1  LIG1        0.1917
     16 O          -0.8362    5.5621   -0.1189 O.2     1  LIG1       -0.4453
     17 N           2.6028    6.5796    0.0901 N.pl3   1  LIG1       -0.3539
     18 H           3.2386    5.8425   -0.1787 H       1  LIG1        0.1425
     19 H           2.9424    7.5118   -0.0909 H       1  LIG1        0.1425
     20 N           0.9070    9.9573   -0.3006 N.1     1  LIG1       -0.1907
     21 C           0.6341    8.8324   -0.2194 C.1     1  LIG1        0.1050
     22 C          -2.2783    7.4231   -0.2116 C.ar    1  LIG1        0.1928
     23 C          -2.8464    8.6614    0.0168 C.ar    1  LIG1        0.0917
     24 C          -4.2622    8.4624   -0.1761 C.ar    1  LIG1        0.1107
     25 C          -4.4356    7.1475   -0.4897 C.ar    1  LIG1        0.1119
     26 O          -3.2721    6.5105   -0.5173 O.2     1  LIG1       -0.4566
     27 H          -5.3196    6.5705   -0.7128 H       1  LIG1        0.1043
     28 N          -2.3008    9.8406    0.4134 N.pl3   1  LIG1       -0.3540
     29 H          -1.3179   10.0234    0.2770 H       1  LIG1        0.1425
     30 H          -2.9009   10.6505    0.3881 H       1  LIG1        0.1425
     31 N          -6.0174   10.3324    0.0585 N.1     1  LIG1       -0.1907
     32 C          -5.2522    9.4712   -0.0514 C.1     1  LIG1        0.1042
@<TRIPOS>BOND
     1    10    11    3
     2    27    25    1
     3    11     3    1
     4     9     7    1
     5    26    25   ar
     6    26    22   ar
     7    25    24   ar
     8    20    21    3
     9    21    14    1
    10    22    15    1
    11    22    23   ar
    12    18    17    1
    13    24    32    1
    14    24    23   ar
    15     3     4   ar
    16     3     2   ar
    17    15    14   ar
    18    15    16   ar
    19    14    13   ar
    20    16    12   ar
    21    19    17    1
    22    12    13   ar
    23    12     4    1
    24    32    31    3
    25    13    17    1
    26     8     7    1
    27    23    28    1
    28     4     5   ar
    29     7     2    1
    30     2     1   ar
    31    29    28    1
    32     5     1   ar
    33    30    28    1
    34     1     6    1
