@<TRIPOS>MOLECULE
mol_data/opt/cam/geoms/mol2/12hd12hd-12hd.out
 32 34 0 0 0
SMALL
GASTEIGER

@<TRIPOS>ATOM
      1 C           0.1581    1.7848   -0.1198 C.ar    1  LIG1        0.1146
      2 C           1.5135    1.7838   -0.0994 C.ar    1  LIG1        0.0812
      3 C           1.9089    3.1724   -0.0640 C.ar    1  LIG1        0.1211
      4 C           0.7444    3.9105   -0.0624 C.ar    1  LIG1        0.1907
      5 O          -0.3160    3.0875   -0.0927 O.2     1  LIG1       -0.4565
      6 H          -0.5887    1.0103   -0.1317 H       1  LIG1        0.1049
      7 N           2.3950    0.7193   -0.0468 N.pl3   1  LIG1       -0.3545
      8 H           2.0289   -0.1610   -0.3772 H       1  LIG1        0.1424
      9 H           3.3131    0.9131   -0.4204 H       1  LIG1        0.1424
     10 N           4.2976    4.1247   -0.0317 N.1     1  LIG1       -0.1907
     11 C           3.2230    3.6881   -0.0417 C.1     1  LIG1        0.1049
     12 C           0.4930    5.3061   -0.0452 C.ar    1  LIG1        0.1938
     13 C          -0.6626    6.0483   -0.0337 C.ar    1  LIG1        0.0925
     14 C          -0.2466    7.4244   -0.0348 C.ar    1  LIG1        0.1219
     15 C           1.1352    7.4173   -0.0424 C.ar    1  LIG1        0.1917
     16 O           1.5881    6.1543   -0.0470 O.2     1  LIG1       -0.4453
     17 N          -1.9488    5.6101    0.0171 N.pl3   1  LIG1       -0.3539
     18 H          -2.6785    6.2642   -0.2170 H       1  LIG1        0.1425
     19 H          -2.1221    4.6377   -0.1795 H       1  LIG1        0.1425
     20 N          -1.9134    9.3827   -0.0544 N.1     1  LIG1       -0.1907
     21 C          -1.1290    8.5301   -0.0413 C.1     1  LIG1        0.1050
     22 C           2.1206    8.4359   -0.0468 C.ar    1  LIG1        0.1928
     23 C           3.5019    8.3890   -0.0715 C.ar    1  LIG1        0.0917
     24 C           3.9134    9.7728   -0.0590 C.ar    1  LIG1        0.1107
     25 C           2.7733   10.5220   -0.0296 C.ar    1  LIG1        0.1119
     26 O           1.6930    9.7479   -0.0221 O.2     1  LIG1       -0.4566
     27 H           2.6137   11.5888   -0.0119 H       1  LIG1        0.1043
     28 N           4.3342    7.3311   -0.1146 N.pl3   1  LIG1       -0.3540
     29 H           4.0070    6.3767   -0.0711 H       1  LIG1        0.1425
     30 H           5.3283    7.4820   -0.0759 H       1  LIG1        0.1425
     31 N           6.3677   10.5534   -0.0878 N.1     1  LIG1       -0.1907
     32 C           5.2564   10.2302   -0.0747 C.1     1  LIG1        0.1042
@<TRIPOS>BOND
     1     9     7    1
     2     8     7    1
     3    18    17    1
     4    19    17    1
     5     6     1    1
     6     1     2   ar
     7     1     5   ar
     8    28    30    1
     9    28    23    1
    10    28    29    1
    11     2     3   ar
    12     2     7    1
    13     5     4   ar
    14    31    32    3
    15    32    24    1
    16    23    24   ar
    17    23    22   ar
    18     3     4   ar
    19     3    11    1
    20     4    12    1
    21    24    25   ar
    22    20    21    3
    23    16    12   ar
    24    16    15   ar
    25    22    15    1
    26    22    26   ar
    27    12    13   ar
    28    15    14   ar
    29    11    10    3
    30    21    14    1
    31    14    13   ar
    32    13    17    1
    33    25    26   ar
    34    25    27    1
