@<TRIPOS>MOLECULE
mol_data/opt/cam/geoms/mol2/12hd12hd12hd-12hd.out
 42 45 0 0 0
SMALL
GASTEIGER

@<TRIPOS>ATOM
      1 C           0.2375    1.7313    0.2079 C.ar    1  LIG1        0.1146
      2 C           1.5729    1.7091   -0.0190 C.ar    1  LIG1        0.0812
      3 C           1.9617    3.0895   -0.1869 C.ar    1  LIG1        0.1211
      4 C           0.8163    3.8476   -0.0286 C.ar    1  LIG1        0.1907
      5 O          -0.2228    3.0326    0.2088 O.2     1  LIG1       -0.4565
      6 H          -0.5000    0.9684    0.3878 H       1  LIG1        0.1049
      7 N           2.4522    0.6406   -0.0399 N.pl3   1  LIG1       -0.3545
      8 H           2.0307   -0.2574   -0.2253 H       1  LIG1        0.1424
      9 H           3.2823    0.7896   -0.5961 H       1  LIG1        0.1424
     10 N           4.3106    3.9271   -0.8119 N.1     1  LIG1       -0.1907
     11 C           3.2526    3.5456   -0.5238 C.1     1  LIG1        0.1049
     12 C           0.5400    5.2471   -0.0566 C.ar    1  LIG1        0.1938
     13 C           1.2848    6.4074   -0.0065 C.ar    1  LIG1        0.0925
     14 C           0.3304    7.4849   -0.0333 C.ar    1  LIG1        0.1219
     15 C          -0.9243    6.9091   -0.0841 C.ar    1  LIG1        0.1918
     16 O          -0.8148    5.5759   -0.1012 O.2     1  LIG1       -0.4453
     17 N           2.6254    6.5939    0.1192 N.pl3   1  LIG1       -0.3539
     18 H           3.2679    5.8540   -0.1231 H       1  LIG1        0.1425
     19 H           2.9711    7.5298   -0.0230 H       1  LIG1        0.1425
     20 N           0.8165   10.0092    0.0223 N.1     1  LIG1       -0.1907
     21 C           0.6077    8.8685   -0.0006 C.1     1  LIG1        0.1050
     22 C          -2.2270    7.4470   -0.1171 C.ar    1  LIG1        0.1939
     23 C          -3.4716    6.8560   -0.1456 C.ar    1  LIG1        0.0925
     24 C          -4.4174    7.9369   -0.1413 C.ar    1  LIG1        0.1219
     25 C          -3.6789    9.1066   -0.1128 C.ar    1  LIG1        0.1917
     26 O          -2.3673    8.8252   -0.0993 O.2     1  LIG1       -0.4453
     27 N          -3.7702    5.5380   -0.1978 N.pl3   1  LIG1       -0.3539
     28 H          -4.7228    5.2470   -0.0516 H       1  LIG1        0.1425
     29 H          -3.0345    4.8627   -0.0646 H       1  LIG1        0.1425
     30 N          -6.9610    7.5601   -0.1626 N.1     1  LIG1       -0.1907
     31 C          -5.8226    7.7743   -0.1551 C.1     1  LIG1        0.1050
     32 C          -4.0209   10.4798   -0.0950 C.ar    1  LIG1        0.1928
     33 C          -3.2457   11.6252   -0.0616 C.ar    1  LIG1        0.0917
     34 C          -4.1988   12.7094   -0.0582 C.ar    1  LIG1        0.1107
     35 C          -5.4394   12.1420   -0.0892 C.ar    1  LIG1        0.1119
     36 O          -5.3595   10.8158   -0.1117 O.2     1  LIG1       -0.4566
     37 H          -6.4277   12.5749   -0.0980 H       1  LIG1        0.1043
     38 N          -1.9079   11.7662   -0.0394 N.pl3   1  LIG1       -0.3540
     39 H          -1.2754   10.9794   -0.0307 H       1  LIG1        0.1425
     40 H          -1.5059   12.6880   -0.0026 H       1  LIG1        0.1425
     41 N          -3.5528   15.2019   -0.0013 N.1     1  LIG1       -0.1907
     42 C          -3.8714   14.0897   -0.0275 C.1     1  LIG1        0.1042
@<TRIPOS>BOND
     1    10    11    3
     2     9     7    1
     3    11     3    1
     4     8     7    1
     5    27    23    1
     6    27    29    1
     7    27    28    1
     8     3     4   ar
     9     3     2   ar
    10    30    31    3
    11    31    24    1
    12    23    24   ar
    13    23    22   ar
    14    24    25   ar
    15    18    17    1
    16    22    26   ar
    17    22    15    1
    18    25    26   ar
    19    25    32    1
    20    36    32   ar
    21    36    35   ar
    22    16    15   ar
    23    16    12   ar
    24    37    35    1
    25    32    33   ar
    26    35    34   ar
    27    15    14   ar
    28    33    34   ar
    29    33    38    1
    30    34    42    1
    31    12     4    1
    32    12    13   ar
    33     7     2    1
    34    38    39    1
    35    38    40    1
    36    14    13   ar
    37    14    21    1
    38     4     5   ar
    39    42    41    3
    40    19    17    1
    41     2     1   ar
    42    13    17    1
    43    21    20    3
    44     1     5   ar
    45     1     6    1
