@<TRIPOS>MOLECULE
mol_data/opt/cam/geoms/mol2/12hd12hd12hd-12hd-.out
 42 45 0 0 0
SMALL
GASTEIGER

@<TRIPOS>ATOM
      1 C           0.1722    1.7390    0.1249 C.ar    1  LIG1        0.1146
      2 C           1.5153    1.6835   -0.0415 C.ar    1  LIG1        0.0812
      3 C           1.9525    3.0560   -0.1418 C.ar    1  LIG1        0.1211
      4 C           0.8238    3.8438   -0.0095 C.ar    1  LIG1        0.1907
      5 O          -0.2492    3.0535    0.1503 O.2     1  LIG1       -0.4565
      6 H          -0.5946    0.9939    0.2479 H       1  LIG1        0.1049
      7 N           2.3635    0.5900   -0.0595 N.pl3   1  LIG1       -0.3545
      8 H           1.9267   -0.2876   -0.2991 H       1  LIG1        0.1424
      9 H           3.2248    0.7342   -0.5676 H       1  LIG1        0.1424
     10 N           4.3569    3.8264   -0.6268 N.1     1  LIG1       -0.1907
     11 C           3.2728    3.4784   -0.4004 C.1     1  LIG1        0.1049
     12 C           0.5879    5.2506   -0.0038 C.ar    1  LIG1        0.1938
     13 C           1.3616    6.3897    0.0828 C.ar    1  LIG1        0.0925
     14 C           0.4376    7.4954    0.0650 C.ar    1  LIG1        0.1219
     15 C          -0.8277    6.9566   -0.0180 C.ar    1  LIG1        0.1918
     16 O          -0.7530    5.6187   -0.0612 O.2     1  LIG1       -0.4453
     17 N           2.7021    6.5445    0.2275 N.pl3   1  LIG1       -0.3539
     18 H           3.3376    5.7954   -0.0024 H       1  LIG1        0.1425
     19 H           3.0672    7.4795    0.1347 H       1  LIG1        0.1425
     20 N           1.2060    9.9470    0.1758 N.1     1  LIG1       -0.1907
     21 C           0.8180    8.8564    0.1270 C.1     1  LIG1        0.1050
     22 C          -2.1338    7.5007   -0.0736 C.ar    1  LIG1        0.1939
     23 C          -3.3641    6.8893   -0.1465 C.ar    1  LIG1        0.0925
     24 C          -4.3166    7.9626   -0.2154 C.ar    1  LIG1        0.1219
     25 C          -3.5947    9.1460   -0.1613 C.ar    1  LIG1        0.1917
     26 O          -2.2886    8.8710   -0.0764 O.2     1  LIG1       -0.4453
     27 N          -3.6508    5.5640   -0.1272 N.pl3   1  LIG1       -0.3539
     28 H          -4.5711    5.2602   -0.3989 H       1  LIG1        0.1425
     29 H          -2.8910    4.9075   -0.2144 H       1  LIG1        0.1425
     30 N          -6.8532    7.6641   -0.5112 N.1     1  LIG1       -0.1907
     31 C          -5.7094    7.8020   -0.3735 C.1     1  LIG1        0.1050
     32 C          -3.9554   10.5260   -0.1675 C.ar    1  LIG1        0.1928
     33 C          -5.1301   11.2386   -0.0061 C.ar    1  LIG1        0.0917
     34 C          -4.7369   12.6242   -0.0826 C.ar    1  LIG1        0.1107
     35 C          -3.3865   12.6403   -0.2711 C.ar    1  LIG1        0.1119
     36 O          -2.9016   11.4081   -0.3253 O.2     1  LIG1       -0.4566
     37 H          -2.6832   13.4513   -0.3816 H       1  LIG1        0.1043
     38 N          -6.3994   10.8334    0.2419 N.pl3   1  LIG1       -0.3540
     39 H          -7.1231   11.5342    0.2081 H       1  LIG1        0.1425
     40 H          -6.6907    9.8846    0.0622 H       1  LIG1        0.1425
     41 N          -6.3942   14.5853    0.1144 N.1     1  LIG1       -0.1907
     42 C          -5.6234   13.7267    0.0246 C.1     1  LIG1        0.1042
@<TRIPOS>BOND
     1    10    11    3
     2     9     7    1
     3    30    31    3
     4    11     3    1
     5    28    27    1
     6    37    35    1
     7    31    24    1
     8    36    35   ar
     9    36    32   ar
    10     8     7    1
    11    35    34   ar
    12    24    25   ar
    13    24    23   ar
    14    29    27    1
    15    32    25    1
    16    32    33   ar
    17    25    26   ar
    18    23    27    1
    19    23    22   ar
    20     3     2   ar
    21     3     4   ar
    22    34    33   ar
    23    34    42    1
    24    26    22   ar
    25    22    15    1
    26    16    15   ar
    27    16    12   ar
    28     7     2    1
    29     2     1   ar
    30    15    14   ar
    31     4    12    1
    32     4     5   ar
    33    33    38    1
    34    12    13   ar
    35    18    17    1
    36    42    41    3
    37    40    38    1
    38    14    13   ar
    39    14    21    1
    40    13    17    1
    41     1     5   ar
    42     1     6    1
    43    21    20    3
    44    19    17    1
    45    39    38    1
