@<TRIPOS>MOLECULE
mol_data/opt/cam/geoms/mol2/12hd13id-12id-12ed.out
 45 48 0 0 0
SMALL
GASTEIGER

@<TRIPOS>ATOM
      1 C           0.4149    1.9572    1.0515 C.ar    1  LIG1        0.1145
      2 C           1.5554    1.7712    0.3399 C.ar    1  LIG1        0.0811
      3 C           1.8874    3.0656   -0.2070 C.ar    1  LIG1        0.1194
      4 C           0.9260    3.9431    0.2353 C.ar    1  LIG1        0.1703
      5 O           0.0337    3.2778    0.9922 O.2     1  LIG1       -0.4582
      6 H          -0.2110    1.3070    1.6381 H       1  LIG1        0.1049
      7 N           2.3220    0.6350    0.1726 N.pl3   1  LIG1       -0.3545
      8 H           1.8368   -0.2417    0.2882 H       1  LIG1        0.1424
      9 H           2.9184    0.6425   -0.6428 H       1  LIG1        0.1424
     10 N           3.8218    3.3883   -1.8731 N.1     1  LIG1       -0.1907
     11 C           2.9510    3.2857   -1.1162 C.1     1  LIG1        0.1049
     12 C           0.6604    5.3487    0.0518 C.ar    1  LIG1        0.0882
     13 C           1.4662    6.4289   -0.2598 C.ar    1  LIG1       -0.0040
     14 C           0.6080    7.5668   -0.2713 C.ar    1  LIG1        0.0836
     15 C          -0.6818    7.1524    0.0543 C.ar    1  LIG1        0.1007
     16 N          -0.6234    5.8103    0.2407 N.ar    1  LIG1       -0.3481
     17 H          -1.4090    5.2289    0.4905 H       1  LIG1        0.1661
     18 C           2.9390    6.4582   -0.5103 C.3     1  LIG1       -0.0364
     19 H           3.3245    7.4696   -0.3691 H       1  LIG1        0.0279
     20 H           3.1885    6.1443   -1.5270 H       1  LIG1        0.0279
     21 H           3.4709    5.7920    0.1725 H       1  LIG1        0.0279
     22 N           1.3537    9.9460   -0.9252 N.1     1  LIG1       -0.1908
     23 C           1.0098    8.8821   -0.6242 C.1     1  LIG1        0.1017
     24 C          -1.9341    7.8580    0.1901 C.ar    1  LIG1        0.1573
     25 C          -2.2975    9.1226    0.5516 C.ar    1  LIG1        0.0149
     26 C          -3.7351    9.1200    0.5197 C.ar    1  LIG1        0.1041
     27 C          -4.1358    7.8605    0.1507 C.ar    1  LIG1        0.1894
     28 O          -3.0453    7.0895   -0.0466 O.2     1  LIG1       -0.4486
     29 C          -1.4448   10.2741    0.9708 C.3     1  LIG1       -0.0348
     30 H          -2.0111   10.9412    1.6237 H       1  LIG1        0.0279
     31 H          -1.0978   10.8535    0.1119 H       1  LIG1        0.0279
     32 H          -0.5585    9.9326    1.5077 H       1  LIG1        0.0279
     33 N          -5.1656   11.1251    1.2769 N.1     1  LIG1       -0.1907
     34 C          -4.5501   10.2138    0.9179 C.1     1  LIG1        0.1034
     35 C          -5.4120    7.2279   -0.0584 C.ar    1  LIG1        0.1876
     36 C          -6.6398    7.6795   -0.4679 C.ar    1  LIG1        0.0908
     37 C          -7.4893    6.5119   -0.4726 C.ar    1  LIG1        0.1055
     38 C          -6.7106    5.4673   -0.0865 C.ar    1  LIG1        0.1113
     39 O          -5.4586    5.8831    0.1657 O.2     1  LIG1       -0.4572
     40 H          -6.9131    4.4164    0.0452 H       1  LIG1        0.1043
     41 C          -7.0078    8.9883   -0.8596 C.1     1  LIG1       -0.0645
     42 C          -7.3287   10.0953   -1.2016 C.1     1  LIG1       -0.1138
     43 H          -7.6046   11.0853   -1.4863 H       1  LIG1        0.1232
     44 N          -9.9823    6.4035   -1.1194 N.1     1  LIG1       -0.1907
     45 C          -8.8645    6.4558   -0.8293 C.1     1  LIG1        0.1036
@<TRIPOS>BOND
     1    10    11    3
     2    20    18    1
     3    43    42    1
     4    42    41    3
     5    44    45    3
     6    11     3    1
     7    22    23    3
     8    41    36    1
     9    45    37    1
    10     9     7    1
    11    23    14    1
    12    18    19    1
    13    18    13    1
    14    18    21    1
    15    37    36   ar
    16    37    38   ar
    17    36    35   ar
    18    14    13   ar
    19    14    15   ar
    20    13    12   ar
    21     3     4   ar
    22     3     2   ar
    23    38    40    1
    24    38    39   ar
    25    35    27    1
    26    35    39   ar
    27    28    27   ar
    28    28    24   ar
    29    12     4    1
    30    12    16   ar
    31    15    24    1
    32    15    16   ar
    33    31    29    1
    34    27    26   ar
    35     7     8    1
    36     7     2    1
    37    24    25   ar
    38     4     5   ar
    39    16    17    1
    40     2     1   ar
    41    26    25   ar
    42    26    34    1
    43    25    29    1
    44    34    33    3
    45    29    32    1
    46    29    30    1
    47     5     1   ar
    48     1     6    1
