@<TRIPOS>MOLECULE
mol_data/opt/cam/geoms/mol2/12hd12hd-12hd-12hd.out
 42 45 0 0 0
SMALL
GASTEIGER

@<TRIPOS>ATOM
      1 C           0.0773    1.7494   -0.0431 C.ar    1  LIG1        0.1146
      2 C           1.4294    1.7070    0.0345 C.ar    1  LIG1        0.0812
      3 C           1.8693    3.0835    0.0443 C.ar    1  LIG1        0.1211
      4 C           0.7318    3.8590   -0.0258 C.ar    1  LIG1        0.1907
      5 O          -0.3528    3.0665   -0.0760 O.2     1  LIG1       -0.4565
      6 H          -0.6939    0.9994   -0.0618 H       1  LIG1        0.1049
      7 N           2.2745    0.6195    0.1559 N.pl3   1  LIG1       -0.3545
      8 H           1.9021   -0.2579   -0.1748 H       1  LIG1        0.1424
      9 H           3.2179    0.7802   -0.1674 H       1  LIG1        0.1424
     10 N           4.3234    3.8429    0.1287 N.1     1  LIG1       -0.1907
     11 C           3.2095    3.5233    0.0962 C.1     1  LIG1        0.1049
     12 C           0.5050    5.2594   -0.0648 C.ar    1  LIG1        0.1938
     13 C          -0.6467    5.9999   -0.1550 C.ar    1  LIG1        0.0925
     14 C          -0.2235    7.3717   -0.1908 C.ar    1  LIG1        0.1219
     15 C           1.1647    7.3690   -0.1038 C.ar    1  LIG1        0.1918
     16 O           1.6010    6.1023   -0.0293 O.2     1  LIG1       -0.4453
     17 N          -1.9366    5.5640   -0.1681 N.pl3   1  LIG1       -0.3539
     18 H          -2.6435    6.1957   -0.5094 H       1  LIG1        0.1425
     19 H          -2.0894    4.5819   -0.3333 H       1  LIG1        0.1425
     20 N          -1.8080    9.3734   -0.4885 N.1     1  LIG1       -0.1907
     21 C          -1.0872    8.4743   -0.3482 C.1     1  LIG1        0.1050
     22 C           2.1547    8.3830   -0.0705 C.ar    1  LIG1        0.1939
     23 C           2.1588    9.7641    0.0440 C.ar    1  LIG1        0.0925
     24 C           3.5421   10.1525    0.0493 C.ar    1  LIG1        0.1219
     25 C           4.2846    8.9930   -0.0523 C.ar    1  LIG1        0.1917
     26 O           3.4726    7.9320   -0.1247 O.2     1  LIG1       -0.4453
     27 N           1.1453   10.6466    0.1801 N.pl3   1  LIG1       -0.3539
     28 H           1.3723   11.6282    0.1581 H       1  LIG1        0.1425
     29 H           0.1859   10.3930    0.0030 H       1  LIG1        0.1425
     30 N           4.2690   12.6123    0.2254 N.1     1  LIG1       -0.1907
     31 C           3.9886   11.4909    0.1461 C.1     1  LIG1        0.1050
     32 C           5.6752    8.7353   -0.0937 C.ar    1  LIG1        0.1928
     33 C           6.3943    7.5584   -0.1920 C.ar    1  LIG1        0.0917
     34 C           7.7768    7.9722   -0.1742 C.ar    1  LIG1        0.1107
     35 C           7.7764    9.3331   -0.0705 C.ar    1  LIG1        0.1119
     36 O           6.5374    9.8111   -0.0217 O.2     1  LIG1       -0.4566
     37 H           8.5813   10.0502   -0.0234 H       1  LIG1        0.1043
     38 N           5.9504    6.2949   -0.3139 N.pl3   1  LIG1       -0.3540
     39 H           4.9781    6.0636   -0.1812 H       1  LIG1        0.1425
     40 H           6.5919    5.5238   -0.2226 H       1  LIG1        0.1425
     41 N           9.7867    6.3670   -0.3107 N.1     1  LIG1       -0.1907
     42 C           8.8994    7.1073   -0.2493 C.1     1  LIG1        0.1042
@<TRIPOS>BOND
     1    18    17    1
     2    20    21    3
     3    21    14    1
     4    19    17    1
     5    38    40    1
     6    38    33    1
     7    38    39    1
     8    41    42    3
     9    42    34    1
    10    33    34   ar
    11    33    32   ar
    12    14    13   ar
    13    14    15   ar
    14     8     7    1
    15    34    35   ar
    16    17    13    1
    17     9     7    1
    18    13    12   ar
    19    26    22   ar
    20    26    25   ar
    21    15    22    1
    22    15    16   ar
    23    32    25    1
    24    32    36   ar
    25     5     1   ar
    26     5     4   ar
    27    22    23   ar
    28    35    37    1
    29    35    36   ar
    30    12    16   ar
    31    12     4    1
    32     6     1    1
    33    25    24   ar
    34     1     2   ar
    35     4     3   ar
    36    29    27    1
    37     2     3   ar
    38     2     7    1
    39    23    24   ar
    40    23    27    1
    41     3    11    1
    42    24    31    1
    43    11    10    3
    44    31    30    3
    45    28    27    1
