@<TRIPOS>MOLECULE
mol_data/opt/cam/geoms/mol2/12hd.out
 12 12 0 0 0
SMALL
GASTEIGER

@<TRIPOS>ATOM
      1 C           0.1191    1.8958   -0.0351 C.ar    1  LIG1        0.1136
      2 C           1.4776    1.8680   -0.0511 C.ar    1  LIG1        0.0804
      3 C           1.8855    3.2522   -0.0069 C.ar    1  LIG1        0.1100
      4 C           0.7394    3.9908    0.0345 C.ar    1  LIG1        0.1109
      5 O          -0.3283    3.1929    0.0189 O.2     1  LIG1       -0.4678
      6 H          -0.6384    1.1308   -0.0447 H       1  LIG1        0.1049
      7 H           0.5641    5.0543    0.0715 H       1  LIG1        0.1043
      8 N           2.3445    0.7881   -0.0392 N.pl3   1  LIG1       -0.3545
      9 H           1.9687   -0.0688   -0.4170 H       1  LIG1        0.1424
     10 H           3.2661    0.9889   -0.4013 H       1  LIG1        0.1424
     11 N           4.3310    4.0622   -0.0493 N.1     1  LIG1       -0.1907
     12 C           3.2242    3.7240   -0.0231 C.1     1  LIG1        0.1042
@<TRIPOS>BOND
     1     9     8    1
     2    10     8    1
     3     2     8    1
     4     2     1   ar
     5     2     3   ar
     6    11    12    3
     7     6     1    1
     8     1     5   ar
     9    12     3    1
    10     3     4   ar
    11     5     4   ar
    12     4     7    1
