@<TRIPOS>MOLECULE
mol_data/opt/cam/geoms/mol2/12hd12hd.out
 22 23 0 0 0
SMALL
GASTEIGER

@<TRIPOS>ATOM
      1 C           0.1676    1.7881    0.2152 C.ar    1  LIG1        0.1146
      2 C           1.5051    1.7744   -0.0069 C.ar    1  LIG1        0.0812
      3 C           1.8770    3.1560   -0.1939 C.ar    1  LIG1        0.1211
      4 C           0.7242    3.9009   -0.0495 C.ar    1  LIG1        0.1907
      5 O          -0.3045    3.0808    0.1971 O.2     1  LIG1       -0.4565
      6 H          -0.5633    1.0202    0.4014 H       1  LIG1        0.1049
      7 N           2.3944    0.7136   -0.0094 N.pl3   1  LIG1       -0.3545
      8 H           1.9804   -0.1906   -0.1808 H       1  LIG1        0.1424
      9 H           3.2228    0.8604   -0.5689 H       1  LIG1        0.1424
     10 N           4.2148    4.0245   -0.8222 N.1     1  LIG1       -0.1907
     11 C           3.1627    3.6278   -0.5353 C.1     1  LIG1        0.1049
     12 C           0.4465    5.3068   -0.0948 C.ar    1  LIG1        0.1928
     13 C           1.2021    6.4510    0.0440 C.ar    1  LIG1        0.0917
     14 C           0.2580    7.5368   -0.0645 C.ar    1  LIG1        0.1107
     15 C          -0.9698    6.9741   -0.2464 C.ar    1  LIG1        0.1119
     16 O          -0.8815    5.6489   -0.2702 O.2     1  LIG1       -0.4566
     17 H          -1.9502    7.4062   -0.3733 H       1  LIG1        0.1043
     18 N           2.5281    6.6227    0.3126 N.pl3   1  LIG1       -0.3540
     19 H           3.1860    5.9027    0.0509 H       1  LIG1        0.1425
     20 H           2.8793    7.5641    0.2229 H       1  LIG1        0.1425
     21 N           0.9043   10.0262    0.0741 N.1     1  LIG1       -0.1907
     22 C           0.5844    8.9156    0.0110 C.1     1  LIG1        0.1042
@<TRIPOS>BOND
     1    10    11    3
     2     9     7    1
     3    11     3    1
     4    17    15    1
     5    16    15   ar
     6    16    12   ar
     7    15    14   ar
     8     3     4   ar
     9     3     2   ar
    10     8     7    1
    11    12     4    1
    12    12    13   ar
    13    14    22    1
    14    14    13   ar
    15     4     5   ar
    16     7     2    1
    17     2     1   ar
    18    22    21    3
    19    13    18    1
    20    19    18    1
    21     5     1   ar
    22     1     6    1
    23    20    18    1
