@<TRIPOS>MOLECULE
mol_data/opt/cam/geoms/mol2/12he12ie13dl-6ld-.out
 52 55 0 0 0
SMALL
GASTEIGER

@<TRIPOS>ATOM
      1 C           0.5711    1.9626    1.5247 C.ar    1  LIG1        0.1145
      2 C           1.6438    1.7968    0.7084 C.ar    1  LIG1        0.0792
      3 C           1.8679    3.0793    0.0873 C.ar    1  LIG1        0.0940
      4 C           0.9138    3.9239    0.6019 C.ar    1  LIG1        0.1871
      5 O           0.1243    3.2558    1.4653 O.2     1  LIG1       -0.4567
      6 H           0.0342    1.3039    2.1864 H       1  LIG1        0.1049
      7 N           2.4386    0.6808    0.4972 N.pl3   1  LIG1       -0.3546
      8 H           1.9769   -0.2064    0.6327 H       1  LIG1        0.1424
      9 H           2.9494    0.7128   -0.3745 H       1  LIG1        0.1424
     10 C           2.8348    3.3243   -0.9203 C.1     1  LIG1       -0.0639
     11 C           3.6627    3.4631   -1.7850 C.1     1  LIG1       -0.1137
     12 H           4.3905    3.6053   -2.5505 H       1  LIG1        0.1232
     13 C           0.6256    5.3218    0.3920 C.ar    1  LIG1        0.1760
     14 C           1.4038    6.4159    0.1583 C.ar    1  LIG1        0.0145
     15 C           0.4925    7.5241    0.0371 C.ar    1  LIG1        0.0755
     16 C          -0.7678    7.0201    0.2440 C.ar    1  LIG1        0.1688
     17 O          -0.6935    5.6801    0.4507 O.2     1  LIG1       -0.4486
     18 C           2.8895    6.5099    0.0711 C.3     1  LIG1       -0.0348
     19 H           3.2283    7.4596    0.4907 H       1  LIG1        0.0279
     20 H           3.2327    6.4630   -0.9662 H       1  LIG1        0.0279
     21 H           3.3690    5.6924    0.6110 H       1  LIG1        0.0279
     22 C           0.8706    8.8538   -0.2775 C.1     1  LIG1       -0.0655
     23 C           1.2264    9.9681   -0.5594 C.1     1  LIG1       -0.1138
     24 H           1.5061   10.9720   -0.7826 H       1  LIG1        0.1232
     25 C          -2.1107    7.5455    0.2333 C.ar    1  LIG1        0.1050
     26 C          -2.6509    8.8224    0.4285 C.ar    1  LIG1        0.1222
     27 C          -4.0632    8.6917    0.2832 C.ar    1  LIG1        0.1634
     28 C          -4.3515    7.3577    0.0229 C.ar    1  LIG1        0.0957
     29 N          -3.1420    6.7022    0.0080 N.ar    1  LIG1       -0.3476
     30 H          -3.0558    5.7118   -0.1692 H       1  LIG1        0.1661
     31 N          -1.4406   10.9453    1.2424 N.1     1  LIG1       -0.1907
     32 C          -1.9599    9.9835    0.8596 C.1     1  LIG1        0.1051
     33 O          -5.0195    9.6369    0.4108 O.3     1  LIG1       -0.4917
     34 C          -4.7124   10.9717    0.0119 C.3     1  LIG1        0.0789
     35 H          -5.6700   11.4847   -0.0735 H       1  LIG1        0.0660
     36 H          -4.0912   11.4762    0.7533 H       1  LIG1        0.0660
     37 H          -4.2036   10.9801   -0.9567 H       1  LIG1        0.0660
     38 C          -5.7514    5.3186   -0.5313 C.ar    1  LIG1        0.2240
     39 C          -5.6306    6.6945   -0.2000 C.ar    1  LIG1        0.0646
     40 C          -6.8311    7.3877   -0.0992 C.ar    1  LIG1       -0.0285
     41 C          -8.0471    6.7359   -0.3324 C.ar    1  LIG1        0.0707
     42 C          -8.0284    5.3862   -0.6568 C.ar    1  LIG1        0.0488
     43 N          -6.8927    4.6986   -0.7493 N.ar    1  LIG1       -0.2195
     44 H          -6.8171    8.4364    0.1631 H       1  LIG1        0.0639
     45 H          -8.9500    4.8439   -0.8448 H       1  LIG1        0.0844
     46 O          -4.6150    4.5950   -0.6271 O.3     1  LIG1       -0.4792
     47 C          -4.7392    3.2086   -0.9510 C.3     1  LIG1        0.0804
     48 H          -3.7199    2.8256   -0.9686 H       1  LIG1        0.0660
     49 H          -5.3323    2.6883   -0.1975 H       1  LIG1        0.0660
     50 H          -5.2154    3.0813   -1.9243 H       1  LIG1        0.0660
     51 N         -10.2961    8.0078   -0.1649 N.1     1  LIG1       -0.1908
     52 C          -9.2899    7.4420   -0.2376 C.1     1  LIG1        0.1007
@<TRIPOS>BOND
     1    12    11    1
     2    50    47    1
     3    11    10    3
     4    48    47    1
     5    20    18    1
     6    37    34    1
     7    47    46    1
     8    47    49    1
     9    10     3    1
    10    45    42    1
    11    24    23    1
    12    43    42   ar
    13    43    38   ar
    14    42    41   ar
    15    46    38    1
    16    23    22    3
    17    38    39   ar
    18     9     7    1
    19    41    52    1
    20    41    40   ar
    21    22    15    1
    22    52    51    3
    23    39    40   ar
    24    39    28    1
    25    30    29    1
    26    40    44    1
    27    35    34    1
    28    29    28   ar
    29    29    25   ar
    30    34    33    1
    31    34    36    1
    32    28    27   ar
    33    15    14   ar
    34    15    16   ar
    35    18    14    1
    36    18    19    1
    37    18    21    1
    38     3     4   ar
    39     3     2   ar
    40    14    13   ar
    41    25    16    1
    42    25    26   ar
    43    16    17   ar
    44    27    33    1
    45    27    26   ar
    46    13    17   ar
    47    13     4    1
    48    26    32    1
    49     7     8    1
    50     7     2    1
    51     4     5   ar
    52     2     1   ar
    53    32    31    3
    54     5     1   ar
    55     1     6    1
