@<TRIPOS>MOLECULE
mol_data/opt/cam/geoms/mol2/12he4hd-13dd-12ld.out
 48 51 0 0 0
SMALL
GASTEIGER

@<TRIPOS>ATOM
      1 C           0.3019    1.4790    0.2942 C.ar    1  LIG1        0.1144
      2 C           1.5962    1.4013   -0.1045 C.ar    1  LIG1        0.0791
      3 C           2.0382    2.7657   -0.2677 C.ar    1  LIG1        0.0910
      4 C           0.9697    3.5679    0.0625 C.ar    1  LIG1        0.1537
      5 O          -0.0796    2.7904    0.3980 O.2     1  LIG1       -0.4597
      6 H          -0.4426    0.7443    0.5503 H       1  LIG1        0.1049
      7 N           2.4078    0.2928   -0.2850 N.pl3   1  LIG1       -0.3546
      8 H           1.9218   -0.5587   -0.5248 H       1  LIG1        0.1424
      9 H           3.1945    0.4632   -0.8961 H       1  LIG1        0.1424
     10 C           3.3167    3.1284   -0.7623 C.1     1  LIG1       -0.0640
     11 C           4.4181    3.3924   -1.1768 C.1     1  LIG1       -0.1137
     12 H           5.3806    3.6397   -1.5633 H       1  LIG1        0.1232
     13 C           1.6457    5.9805    0.5009 C.ar    1  LIG1        0.0361
     14 C           1.2597    7.3316    0.4999 C.ar    1  LIG1       -0.0300
     15 C           0.7109    5.0079    0.0692 C.ar    1  LIG1        0.0404
     16 C           0.0098    7.7652    0.0898 C.ar    1  LIG1        0.0187
     17 H           1.9839    8.0527    0.8547 H       1  LIG1        0.0643
     18 C          -0.5565    5.4383   -0.3074 C.ar    1  LIG1       -0.0312
     19 C          -0.9266    6.7801   -0.3122 C.ar    1  LIG1        0.0617
     20 H          -1.2834    4.6962   -0.6147 H       1  LIG1        0.0638
     21 N           2.8768    5.6584    0.9886 N.pl3   1  LIG1       -0.3574
     22 H           3.2977    4.7752    0.7478 H       1  LIG1        0.1423
     23 H           3.5287    6.4148    1.1252 H       1  LIG1        0.1423
     24 N          -3.3374    7.3893   -1.0248 N.1     1  LIG1       -0.1908
     25 C          -2.2546    7.1032   -0.7255 C.1     1  LIG1        0.0998
     26 C          -0.2789    9.2057    0.0872 C.ar    1  LIG1        0.0672
     27 C           0.5871   10.2940    0.0591 C.ar    1  LIG1        0.0950
     28 C          -0.2009   11.4863    0.0885 C.ar    1  LIG1        0.0980
     29 C          -1.5277   11.0900    0.1178 C.ar    1  LIG1        0.1051
     30 N          -1.5441    9.7276    0.1215 N.ar    1  LIG1       -0.3496
     31 H          -2.3990    9.1861    0.0954 H       1  LIG1        0.1661
     32 N           3.1621   10.2493   -0.0437 N.1     1  LIG1       -0.1908
     33 C           2.0053   10.2703   -0.0033 C.1     1  LIG1        0.1026
     34 N           0.7251   13.8857    0.2343 N.1     1  LIG1       -0.1908
     35 C           0.3007   12.8123    0.1517 C.1     1  LIG1        0.1027
     36 C          -2.7574   11.8387    0.1523 C.ar    1  LIG1        0.1948
     37 C          -3.1108   13.0994   -0.2335 C.ar    1  LIG1        0.1845
     38 C          -4.5221   13.2199    0.0474 C.ar    1  LIG1        0.1317
     39 C          -4.9055   12.0153    0.5559 C.ar    1  LIG1        0.1137
     40 O          -3.8635   11.1755    0.6210 O.2     1  LIG1       -0.4563
     41 H          -5.8583   11.6409    0.8949 H       1  LIG1        0.1044
     42 O          -2.2973   13.9652   -0.8505 O.3     1  LIG1       -0.4901
     43 C          -2.2050   15.2849   -0.3005 C.3     1  LIG1        0.0790
     44 H          -1.4821   15.8111   -0.9202 H       1  LIG1        0.0660
     45 H          -3.1703   15.7951   -0.3378 H       1  LIG1        0.0660
     46 H          -1.8317   15.2427    0.7256 H       1  LIG1        0.0660
     47 N          -6.0537   15.2471   -0.3882 N.1     1  LIG1       -0.1906
     48 C          -5.3701   14.3347   -0.1926 C.1     1  LIG1        0.1060
@<TRIPOS>BOND
     1    12    11    1
     2    11    10    3
     3    24    25    3
     4    44    43    1
     5     9     7    1
     6    42    43    1
     7    42    37    1
     8    10     3    1
     9    25    19    1
    10    20    18    1
    11     8     7    1
    12    47    48    3
    13    45    43    1
    14    19    18   ar
    15    19    16   ar
    16    18    15   ar
    17    43    46    1
    18     7     2    1
    19     3     2   ar
    20     3     4   ar
    21    37    38   ar
    22    37    36   ar
    23    48    38    1
    24     2     1   ar
    25    32    33    3
    26    33    27    1
    27    38    39   ar
    28    27    26   ar
    29    27    28   ar
    30     4    15    1
    31     4     5   ar
    32    15    13   ar
    33    26    16    1
    34    26    30   ar
    35    28    29   ar
    36    28    35    1
    37    16    14   ar
    38    31    30    1
    39    29    30   ar
    40    29    36    1
    41    35    34    3
    42    36    40   ar
    43     1     5   ar
    44     1     6    1
    45    14    13   ar
    46    14    17    1
    47    13    21    1
    48    39    40   ar
    49    39    41    1
    50    22    21    1
    51    21    23    1
