@<TRIPOS>MOLECULE
mol_data/opt/cam/geoms/mol2/12he6el13ei-13if4ie13ff12hd-12la-.out
 99 106 0 0 0
SMALL
GASTEIGER

@<TRIPOS>ATOM
      1 C           0.6998    1.7552    0.3822 C.ar    1  LIG1        0.1144
      2 C           1.9485    1.7758   -0.1515 C.ar    1  LIG1        0.0791
      3 C           2.2480    3.1645   -0.3908 C.ar    1  LIG1        0.0910
      4 C           1.1432    3.8766    0.0221 C.ar    1  LIG1        0.1547
      5 O           0.2126    3.0277    0.4893 O.2     1  LIG1       -0.4597
      6 H           0.0542    0.9670    0.7311 H       1  LIG1        0.1049
      7 N           2.8311    0.7316   -0.3898 N.pl3   1  LIG1       -0.3546
      8 H           2.3936   -0.1549   -0.5941 H       1  LIG1        0.1424
      9 H           3.5445    0.9617   -1.0681 H       1  LIG1        0.1424
     10 C           3.4490    3.6275   -0.9864 C.1     1  LIG1       -0.0640
     11 C           4.4887    3.9577   -1.5003 C.1     1  LIG1       -0.1137
     12 H           5.4007    4.2598   -1.9615 H       1  LIG1        0.1232
     13 C          -0.4288    5.8527   -0.0635 C.ar    1  LIG1        0.1248
     14 C           0.8615    5.3065    0.0485 C.ar    1  LIG1        0.0558
     15 C           1.9281    6.2034    0.1729 C.ar    1  LIG1       -0.0044
     16 C           1.6992    7.5664    0.1992 C.ar    1  LIG1        0.1482
     17 C           0.3663    8.0304    0.1583 C.ar    1  LIG1        0.1312
     18 N          -0.6402    7.1720    0.0036 N.ar    1  LIG1       -0.2325
     19 H           2.9353    5.8159    0.2372 H       1  LIG1        0.0663
     20 C          -1.6043    5.0586   -0.2897 C.1     1  LIG1       -0.0491
     21 C          -2.6149    4.4426   -0.5033 C.1     1  LIG1       -0.1124
     22 H          -3.5052    3.8863   -0.6842 H       1  LIG1        0.1232
     23 O           2.6615    8.5012    0.2509 O.3     1  LIG1       -0.4929
     24 C           4.0091    8.0967    0.3680 C.3     1  LIG1        0.0789
     25 H           4.5878    9.0176    0.4227 H       1  LIG1        0.0660
     26 H           4.1723    7.5100    1.2788 H       1  LIG1        0.0660
     27 H           4.3276    7.5106   -0.5015 H       1  LIG1        0.0660
     28 C          -0.0284    9.4381    0.2171 C.ar    1  LIG1        0.0849
     29 C           0.5423   10.6530    0.6132 C.ar    1  LIG1        0.0551
     30 C          -0.4449   11.6706    0.4310 C.ar    1  LIG1       -0.0077
     31 C          -1.5773   11.0555   -0.0689 C.ar    1  LIG1        0.0679
     32 N          -1.3046    9.7194   -0.1771 N.ar    1  LIG1       -0.3505
     33 H          -1.9175    8.9929   -0.5178 H       1  LIG1        0.1660
     34 C           1.8000   10.9433    1.2116 C.1     1  LIG1       -0.0672
     35 C           2.8110   11.3152    1.7529 C.1     1  LIG1       -0.1138
     36 H           3.7085   11.6261    2.2346 H       1  LIG1        0.1232
     37 C          -0.2849   13.1115    0.7913 C.3     1  LIG1       -0.0365
     38 H          -1.2587   13.5939    0.8963 H       1  LIG1        0.0279
     39 H           0.2813   13.6640    0.0341 H       1  LIG1        0.0279
     40 H           0.2596   13.2129    1.7335 H       1  LIG1        0.0279
     41 C          -2.8854   11.5859   -0.4131 C.ar    1  LIG1        0.0701
     42 C          -3.2497   12.7001   -1.1442 C.ar    1  LIG1        0.0183
     43 C          -4.6684   12.7175   -1.1506 C.ar    1  LIG1        0.1455
     44 C          -5.1476   11.6406   -0.4372 C.ar    1  LIG1        0.0895
     45 N          -4.0336   10.9259   -0.0327 N.ar    1  LIG1       -0.3499
     46 H          -4.0616   10.2376    0.7031 H       1  LIG1        0.1661
     47 C          -2.3701   13.6523   -1.8869 C.3     1  LIG1       -0.0342
     48 H          -2.2511   14.6033   -1.3572 H       1  LIG1        0.0279
     49 H          -2.8012   13.8832   -2.8647 H       1  LIG1        0.0279
     50 H          -1.3752   13.2282   -2.0374 H       1  LIG1        0.0279
     51 O          -5.3865   13.6527   -1.8417 O.3     1  LIG1       -0.5044
     52 H          -6.2613   13.2903   -2.0285 H       1  LIG1        0.2922
     53 C          -7.5097   12.0165    0.3602 C.ar    1  LIG1       -0.0405
     54 C          -8.7880   11.5100    0.5485 C.ar    1  LIG1       -0.0478
     55 C          -6.5167   11.1761   -0.1873 C.ar    1  LIG1        0.0060
     56 C          -9.1510   10.1885    0.2475 C.ar    1  LIG1        0.0177
     57 H          -9.5429   12.1614    0.9695 H       1  LIG1        0.0627
     58 C          -6.8557    9.8581   -0.4793 C.ar    1  LIG1       -0.0362
     59 C          -8.1384    9.3447   -0.2701 C.ar    1  LIG1        0.0345
     60 H          -6.1037    9.2020   -0.9045 H       1  LIG1        0.0637
     61 C          -7.1979   13.4237    0.7976 C.3     1  LIG1       -0.0391
     62 H          -8.0632   13.8758    1.2851 H       1  LIG1        0.0278
     63 H          -6.8974   14.0652   -0.0345 H       1  LIG1        0.0278
     64 H          -6.3617   13.4289    1.5030 H       1  LIG1        0.0278
     65 C          -8.3427    7.9701   -0.6237 C.1     1  LIG1       -0.0690
     66 C          -8.4735    6.8113   -0.9323 C.1     1  LIG1       -0.1139
     67 H          -8.6234    5.7905   -1.1998 H       1  LIG1        0.1232
     68 C         -10.5261    9.7709    0.4911 C.ar    1  LIG1        0.0940
     69 C         -11.6168   10.5001    0.9632 C.ar    1  LIG1        0.1849
     70 C         -12.7345    9.6519    1.0225 C.ar    1  LIG1        0.1879
     71 C         -12.3231    8.4011    0.5858 C.ar    1  LIG1        0.1302
     72 N         -10.9920    8.4955    0.2733 N.ar    1  LIG1       -0.3458
     73 H         -10.4285    7.7378   -0.0804 H       1  LIG1        0.1662
     74 O         -11.6495   11.8140    1.3186 O.3     1  LIG1       -0.5019
     75 H         -12.5566   12.0013    1.5979 H       1  LIG1        0.2924
     76 O         -13.9413   10.0897    1.4445 O.3     1  LIG1       -0.5018
     77 H         -14.5787    9.3357    1.4082 H       1  LIG1        0.2924
     78 C         -13.0545    7.1798    0.4448 C.ar    1  LIG1        0.1774
     79 C         -14.3479    6.8247    0.6836 C.ar    1  LIG1        0.0909
     80 C         -14.4652    5.4344    0.3208 C.ar    1  LIG1        0.1219
     81 C         -13.2195    5.0395   -0.1063 C.ar    1  LIG1        0.1934
     82 O         -12.3707    6.0962   -0.0296 O.2     1  LIG1       -0.4468
     83 N         -15.3597    7.6936    1.1835 N.pl3   1  LIG1       -0.3540
     84 H         -16.1443    7.7485    0.5382 H       1  LIG1        0.1425
     85 H         -15.7305    7.3513    2.0670 H       1  LIG1        0.1425
     86 N         -16.7316    4.2223    0.4476 N.1     1  LIG1       -0.1907
     87 C         -15.6854    4.7138    0.3775 C.1     1  LIG1        0.1050
     88 C         -12.6638    3.8081   -0.5803 C.ar    1  LIG1        0.2123
     89 C         -13.1175    2.5130   -0.5675 C.ar    1  LIG1        0.1687
     90 C         -12.1148    1.7149   -1.1968 C.ar    1  LIG1        0.0187
     91 C         -11.1256    2.5808   -1.5351 C.ar    1  LIG1        0.0964
     92 O         -11.4304    3.8422   -1.1739 O.2     1  LIG1       -0.4560
     93 H         -10.1745    2.4449   -2.0248 H       1  LIG1        0.1031
     94 O         -14.2892    2.1541   -0.0235 O.3     1  LIG1       -0.4912
     95 C         -14.6811    0.8003   -0.1628 C.3     1  LIG1        0.0790
     96 H         -15.6649    0.7243    0.2972 H       1  LIG1        0.0660
     97 H         -14.7499    0.5156   -1.2182 H       1  LIG1        0.0660
     98 H         -13.9826    0.1313    0.3521 H       1  LIG1        0.0660
     99 H         -12.1256    0.6501   -1.3675 H       1  LIG1        0.0686
@<TRIPOS>BOND
     1    49    47    1
     2    50    47    1
     3    52    51    1
     4    93    91    1
     5    12    11    1
     6    47    48    1
     7    47    42    1
     8    51    43    1
     9    91    90   ar
    10    91    92   ar
    11    11    10    3
    12    99    90    1
    13    97    95    1
    14    67    66    1
    15    90    89   ar
    16    92    88   ar
    17    43    42   ar
    18    43    44   ar
    19    42    41   ar
    20     9     7    1
    21    10     3    1
    22    66    65    3
    23    60    58    1
    24    22    21    1
    25    65    59    1
    26     8     7    1
    27    88    89   ar
    28    88    81    1
    29    89    94    1
    30    33    32    1
    31    21    20    3
    32    27    24    1
    33    58    59   ar
    34    58    55   ar
    35    44    55    1
    36    44    45   ar
    37    41    31    1
    38    41    45   ar
    39     3     2   ar
    40     3     4   ar
    41     7     2    1
    42    20    13    1
    43    59    56   ar
    44    55    53   ar
    45    32    31   ar
    46    32    28   ar
    47    95    94    1
    48    95    96    1
    49    95    98    1
    50     2     1   ar
    51    81    82   ar
    52    81    80   ar
    53    73    72    1
    54    31    30   ar
    55    13    18   ar
    56    13    14   ar
    57    63    61    1
    58    45    46    1
    59    82    78   ar
    60    18    17   ar
    61     4    14    1
    62     4     5   ar
    63    39    37    1
    64    14    15   ar
    65    17    16   ar
    66    17    28    1
    67    15    16   ar
    68    15    19    1
    69    16    23    1
    70    28    29   ar
    71    56    68    1
    72    56    54   ar
    73    23    24    1
    74    72    68   ar
    75    72    71   ar
    76    80    87    1
    77    80    79   ar
    78    53    54   ar
    79    53    61    1
    80    24    25    1
    81    24    26    1
    82    87    86    3
    83     1     5   ar
    84     1     6    1
    85    30    29   ar
    86    30    37    1
    87    78    71    1
    88    78    79   ar
    89    68    69   ar
    90    84    83    1
    91    54    57    1
    92    71    70   ar
    93    29    34    1
    94    79    83    1
    95    37    38    1
    96    37    40    1
    97    61    62    1
    98    61    64    1
    99    69    70   ar
   100    69    74    1
   101    70    76    1
   102    83    85    1
   103    34    35    3
   104    74    75    1
   105    77    76    1
   106    35    36    1
