@<TRIPOS>MOLECULE
mol_data/opt/cam/geoms/mol2/12hf4ha-4ia13ie-4ff-12ai-6fa-12df.out
 91 98 0 0 0
SMALL
GASTEIGER

@<TRIPOS>ATOM
      1 C           2.7505    2.2030    2.4548 C.ar    1  LIG1        0.1169
      2 C           3.0452    1.7990    1.1925 C.ar    1  LIG1        0.1056
      3 C           2.6065    2.8607    0.3365 C.ar    1  LIG1        0.1838
      4 C           2.0596    3.8317    1.1356 C.ar    1  LIG1        0.1796
      5 O           2.1507    3.4280    2.4414 O.2     1  LIG1       -0.4572
      6 H           2.8877    1.7497    3.4229 H       1  LIG1        0.1050
      7 N           3.6987    0.6603    0.7237 N.pl3   1  LIG1       -0.3527
      8 H           3.4984   -0.1805    1.2463 H       1  LIG1        0.1425
      9 H           3.5385    0.5235   -0.2658 H       1  LIG1        0.1425
     10 O           2.7809    2.8037   -0.9991 O.3     1  LIG1       -0.5020
     11 H           2.1863    3.4800   -1.4026 H       1  LIG1        0.2924
     12 C           0.9275    5.5233   -0.3217 C.ar    1  LIG1        0.0360
     13 C           0.5315    6.8343   -0.5547 C.ar    1  LIG1       -0.0326
     14 C           1.5476    5.1728    0.8900 C.ar    1  LIG1        0.0416
     15 C           0.6978    7.8296    0.4088 C.ar    1  LIG1       -0.0159
     16 H           0.0417    7.0762   -1.4936 H       1  LIG1        0.0642
     17 C           1.6725    6.1646    1.8681 C.ar    1  LIG1       -0.0486
     18 C           1.2558    7.4645    1.6370 C.ar    1  LIG1       -0.0532
     19 H           2.1324    5.8989    2.8127 H       1  LIG1        0.0625
     20 N           0.7106    4.5141   -1.3055 N.pl3   1  LIG1       -0.3574
     21 H           0.1531    3.7527   -0.9241 H       1  LIG1        0.1423
     22 H           0.2395    4.8819   -2.1242 H       1  LIG1        0.1423
     23 H           1.3926    8.2182    2.4053 H       1  LIG1        0.0624
     24 C           0.6442    9.9881   -0.9346 C.ar    1  LIG1       -0.0421
     25 C           0.1663   11.2902   -1.0663 C.ar    1  LIG1       -0.0491
     26 C           0.2401    9.2249    0.1758 C.ar    1  LIG1       -0.0149
     27 C          -0.6889   11.8765   -0.1307 C.ar    1  LIG1       -0.0011
     28 H           0.4653   11.8658   -1.9356 H       1  LIG1        0.0627
     29 C          -0.6122    9.8116    1.1159 C.ar    1  LIG1       -0.0532
     30 C          -1.0693   11.1105    0.9755 C.ar    1  LIG1       -0.0520
     31 H          -0.9205    9.2261    1.9762 H       1  LIG1        0.0624
     32 C           1.5919    9.4570   -1.9818 C.3     1  LIG1       -0.0391
     33 H           2.0977   10.2806   -2.4901 H       1  LIG1        0.0278
     34 H           1.0692    8.8768   -2.7492 H       1  LIG1        0.0278
     35 H           2.3506    8.8041   -1.5465 H       1  LIG1        0.0278
     36 H          -1.7005   11.5408    1.7471 H       1  LIG1        0.0624
     37 C          -1.1761   13.2480   -0.3007 C.ar    1  LIG1        0.0511
     38 C          -0.5770   14.3852   -0.8052 C.ar    1  LIG1       -0.0092
     39 C          -1.5180   15.4529   -0.6635 C.ar    1  LIG1        0.0535
     40 C          -2.6658   14.9356   -0.0787 C.ar    1  LIG1        0.0664
     41 N          -2.4361   13.6048    0.1259 N.ar    1  LIG1       -0.3529
     42 H          -3.0936   12.9748    0.5556 H       1  LIG1        0.1659
     43 C           0.8014   14.5346   -1.3661 C.3     1  LIG1       -0.0365
     44 H           1.1719   15.5466   -1.1888 H       1  LIG1        0.0279
     45 H           0.8241   14.3717   -2.4495 H       1  LIG1        0.0279
     46 H           1.4984   13.8277   -0.9102 H       1  LIG1        0.0279
     47 C          -1.3079   16.7859   -1.1086 C.1     1  LIG1       -0.0673
     48 C          -1.0938   17.8989   -1.5172 C.1     1  LIG1       -0.1138
     49 H          -0.9138   18.8852   -1.8766 H       1  LIG1        0.1232
     50 C          -4.0853   16.7304    0.9511 C.ar    1  LIG1        0.1269
     51 C          -5.3414   17.2530    1.2186 C.ar    1  LIG1       -0.0053
     52 C          -3.9680   15.5292    0.2361 C.ar    1  LIG1        0.0444
     53 C          -6.5172   16.6088    0.8233 C.ar    1  LIG1        0.0621
     54 H          -5.4204   18.1956    1.7527 H       1  LIG1        0.0662
     55 C          -5.1430   14.8843   -0.1554 C.ar    1  LIG1       -0.0068
     56 C          -6.4012   15.3963    0.1282 C.ar    1  LIG1        0.1283
     57 H          -5.0655   13.9639   -0.7290 H       1  LIG1        0.0662
     58 O          -2.9445   17.3284    1.3799 O.3     1  LIG1       -0.5061
     59 H          -3.1484   18.1978    1.7424 H       1  LIG1        0.2922
     60 O          -7.5393   14.7381   -0.2499 O.3     1  LIG1       -0.5060
     61 H          -7.3059   13.9365   -0.7316 H       1  LIG1        0.2922
     62 C          -7.8047   17.1935    1.1749 C.ar    1  LIG1        0.1396
     63 C          -8.2176   18.0165    2.1788 C.ar    1  LIG1       -0.0122
     64 C          -9.6224   18.2239    2.0205 C.ar    1  LIG1       -0.0039
     65 C          -9.9800   17.5102    0.9073 C.ar    1  LIG1        0.1437
     66 O          -8.8741   16.8957    0.3916 O.2     1  LIG1       -0.4543
     67 H          -7.6054   18.4049    2.9798 H       1  LIG1        0.0658
     68 C         -10.4964   19.0199    2.9379 C.3     1  LIG1       -0.0361
     69 H         -11.4905   18.5762    3.0301 H       1  LIG1        0.0279
     70 H         -10.6244   20.0509    2.5911 H       1  LIG1        0.0279
     71 H         -10.0575   19.0665    3.9371 H       1  LIG1        0.0279
     72 C         -11.4422   16.0559   -0.5496 C.ar    1  LIG1        0.2239
     73 C         -11.2325   17.2378    0.2182 C.ar    1  LIG1        0.0788
     74 C         -12.3072   18.1183    0.3050 C.ar    1  LIG1       -0.0438
     75 C         -13.5215   17.8269   -0.2953 C.ar    1  LIG1       -0.0317
     76 C         -13.6211   16.6255   -0.9918 C.ar    1  LIG1        0.1112
     77 N         -12.5996   15.7739   -1.1168 N.ar    1  LIG1       -0.2093
     78 H         -12.1873   19.0534    0.8387 H       1  LIG1        0.0627
     79 O         -10.4960   15.1307   -0.7519 O.3     1  LIG1       -0.4919
     80 H          -9.6304   15.4113   -0.4087 H       1  LIG1        0.2938
     81 H         -14.3513   18.5167   -0.2247 H       1  LIG1        0.0640
     82 C         -14.8685   16.2207   -1.6462 C.ar    1  LIG1        0.1740
     83 C         -16.1276   16.7788   -1.7172 C.ar    1  LIG1        0.1402
     84 C         -16.9150   15.8867   -2.5157 C.ar    1  LIG1        0.1729
     85 C         -16.0941   14.8662   -2.8678 C.ar    1  LIG1        0.1353
     86 O         -14.8552   15.0729   -2.3388 O.2     1  LIG1       -0.4563
     87 H         -16.2256   13.9719   -3.4540 H       1  LIG1        0.1068
     88 N         -16.9718   18.9674   -0.6538 N.1     1  LIG1       -0.1906
     89 C         -16.5943   17.9830   -1.1321 C.1     1  LIG1        0.1067
     90 O         -18.2136   16.1220   -2.7950 O.3     1  LIG1       -0.5028
     91 H         -18.5661   15.4103   -3.3417 H       1  LIG1        0.2923
@<TRIPOS>BOND
     1    87    85    1
     2    91    90    1
     3    85    84   ar
     4    85    86   ar
     5    90    84    1
     6    34    32    1
     7    84    83   ar
     8    33    32    1
     9    45    43    1
    10    86    82   ar
    11    22    20    1
    12    32    35    1
    13    32    24    1
    14    28    25    1
    15    49    48    1
    16    83    82   ar
    17    83    89    1
    18    82    76    1
    19    48    47    3
    20    16    13    1
    21    11    10    1
    22    43    44    1
    23    43    46    1
    24    43    38    1
    25    20    21    1
    26    20    12    1
    27    89    88    3
    28    77    76   ar
    29    77    72   ar
    30    47    39    1
    31    25    24   ar
    32    25    27   ar
    33    10     3    1
    34    76    75   ar
    35    24    26   ar
    36    38    39   ar
    37    38    37   ar
    38    79    72    1
    39    79    80    1
    40    61    60    1
    41    57    55    1
    42    39    40   ar
    43    13    12   ar
    44    13    15   ar
    45    72    73   ar
    46    12    14   ar
    47    37    27    1
    48    37    41   ar
    49    75    81    1
    50    75    74   ar
    51     9     7    1
    52    60    56    1
    53    55    56   ar
    54    55    52   ar
    55    27    30   ar
    56    40    41   ar
    57    40    52    1
    58    41    42    1
    59    56    53   ar
    60    26    15    1
    61    26    29   ar
    62    73    74   ar
    63    73    65    1
    64    52    50   ar
    65    74    78    1
    66     3     4   ar
    67     3     2   ar
    68    66    65   ar
    69    66    62   ar
    70    15    18   ar
    71     7     2    1
    72     7     8    1
    73    53    62    1
    74    53    51   ar
    75    14     4    1
    76    14    17   ar
    77    65    64   ar
    78    50    51   ar
    79    50    58    1
    80    30    29   ar
    81    30    36    1
    82    29    31    1
    83     4     5   ar
    84    62    63   ar
    85     2     1   ar
    86    51    54    1
    87    58    59    1
    88    18    17   ar
    89    18    23    1
    90    17    19    1
    91    64    63   ar
    92    64    68    1
    93    63    67    1
    94     5     1   ar
    95     1     6    1
    96    70    68    1
    97    68    69    1
    98    68    71    1
