@<TRIPOS>MOLECULE
mol_data/opt/cam/geoms/mol2/12hf4hh-6dd13hh.out
 49 52 0 0 0
SMALL
GASTEIGER

@<TRIPOS>ATOM
      1 C           0.5415    1.5774   -0.7777 C.ar    1  LIG1        0.1169
      2 C           1.4070    1.5192    0.2664 C.ar    1  LIG1        0.1056
      3 C           1.6343    2.8794    0.6552 C.ar    1  LIG1        0.1838
      4 C           0.9017    3.6747   -0.1896 C.ar    1  LIG1        0.1797
      5 O           0.2253    2.8702   -1.0713 O.2     1  LIG1       -0.4572
      6 H           0.0860    0.8224   -1.3976 H       1  LIG1        0.1050
      7 N           1.9592    0.4319    0.9413 N.pl3   1  LIG1       -0.3527
      8 H           2.1911   -0.3531    0.3494 H       1  LIG1        0.1425
      9 H           2.7510    0.7125    1.5052 H       1  LIG1        0.1425
     10 O           2.4320    3.1845    1.6929 O.3     1  LIG1       -0.5020
     11 H           2.6299    4.1540    1.6270 H       1  LIG1        0.2924
     12 C           1.5163    6.0711    0.2282 C.ar    1  LIG1        0.0361
     13 C           1.1545    7.4077    0.1892 C.ar    1  LIG1       -0.0308
     14 C           0.6203    5.1012   -0.2578 C.ar    1  LIG1        0.0433
     15 C          -0.0663    7.8339   -0.3314 C.ar    1  LIG1        0.0073
     16 H           1.8425    8.1542    0.5782 H       1  LIG1        0.0643
     17 C          -0.5748    5.5330   -0.8344 C.ar    1  LIG1       -0.0279
     18 C          -0.9358    6.8780   -0.8866 C.ar    1  LIG1        0.0332
     19 H          -1.2498    4.7852   -1.2355 H       1  LIG1        0.0644
     20 N           2.7908    5.6663    0.7493 N.pl3   1  LIG1       -0.3574
     21 H           3.3924    5.3239    0.0026 H       1  LIG1        0.1423
     22 H           3.2646    6.4422    1.1990 H       1  LIG1        0.1423
     23 N          -2.1551    7.2583   -1.4338 N.pl3   1  LIG1       -0.3575
     24 H          -2.1834    8.1697   -1.8654 H       1  LIG1        0.1423
     25 H          -2.6191    6.5517   -1.9838 H       1  LIG1        0.1423
     26 C          -1.4401    9.8353    0.4340 C.ar    1  LIG1        0.1486
     27 C          -0.4018    9.2794   -0.3359 C.ar    1  LIG1        0.0211
     28 C           0.2934   10.1897   -1.1211 C.ar    1  LIG1       -0.0317
     29 C          -0.0156   11.5495   -1.1048 C.ar    1  LIG1        0.0798
     30 C          -1.0213   12.0257   -0.2237 C.ar    1  LIG1        0.1077
     31 N          -1.7313   11.1264    0.4896 N.ar    1  LIG1       -0.2329
     32 H           1.0705    9.8328   -1.7885 H       1  LIG1        0.0638
     33 N          -2.9198    8.3546    1.9805 N.1     1  LIG1       -0.1893
     34 C          -2.2617    8.9939    1.2788 C.1     1  LIG1        0.1197
     35 N           1.1230   13.0252   -2.8951 N.1     1  LIG1       -0.1908
     36 C           0.6220   12.3809   -2.0729 C.1     1  LIG1        0.1014
     37 C          -1.4037   13.3941   -0.0017 C.ar    1  LIG1        0.0890
     38 C          -0.8173   14.6614   -0.1616 C.ar    1  LIG1        0.0727
     39 C          -1.7128   15.6085    0.4134 C.ar    1  LIG1        0.0637
     40 C          -2.7929   14.9126    0.9143 C.ar    1  LIG1        0.0249
     41 N          -2.6107   13.6030    0.6623 N.ar    1  LIG1       -0.3563
     42 H          -3.1725   12.8266    0.9737 H       1  LIG1        0.1655
     43 H          -3.6770   15.2751    1.4188 H       1  LIG1        0.0826
     44 N           0.4115   15.0578   -0.6281 N.pl3   1  LIG1       -0.3549
     45 H           0.7951   14.5970   -1.4397 H       1  LIG1        0.1424
     46 H           0.4630   16.0694   -0.6668 H       1  LIG1        0.1424
     47 N          -1.4226   16.9994    0.4105 N.pl3   1  LIG1       -0.3554
     48 H          -2.1468   17.5481   -0.0380 H       1  LIG1        0.1424
     49 H          -1.2705   17.3689    1.3421 H       1  LIG1        0.1424
@<TRIPOS>BOND
     1    35    36    3
     2    36    29    1
     3    25    23    1
     4    24    23    1
     5    32    28    1
     6    45    44    1
     7    23    18    1
     8     6     1    1
     9    19    17    1
    10    28    29   ar
    11    28    27   ar
    12    29    30   ar
    13     5     1   ar
    14     5     4   ar
    15    18    17   ar
    16    18    15   ar
    17    17    14   ar
    18     1     2   ar
    19    46    44    1
    20    44    38    1
    21    27    15    1
    22    27    26   ar
    23    15    13   ar
    24    14     4    1
    25    14    12   ar
    26    30    37    1
    27    30    31   ar
    28     4     3   ar
    29    38    37   ar
    30    38    39   ar
    31    48    47    1
    32    37    41   ar
    33    21    20    1
    34    13    12   ar
    35    13    16    1
    36    12    20    1
    37     2     3   ar
    38     2     7    1
    39     8     7    1
    40    47    39    1
    41    47    49    1
    42    39    40   ar
    43    26    31   ar
    44    26    34    1
    45     3    10    1
    46    41    40   ar
    47    41    42    1
    48    20    22    1
    49    40    43    1
    50     7     9    1
    51    34    33    3
    52    11    10    1
