@<TRIPOS>MOLECULE
mol_data/opt/cam/geoms/mol2/12hf13ed6ia13ha6if13hl-12di-6fd.out
 94 101 0 0 0
SMALL
GASTEIGER

@<TRIPOS>ATOM
      1 C           1.2407    2.6629   -2.8800 C.ar    1  LIG1        0.1170
      2 C           2.4937    2.4488   -2.4029 C.ar    1  LIG1        0.1057
      3 C           2.6528    3.3544   -1.3032 C.ar    1  LIG1        0.1853
      4 C           1.4840    4.0541   -1.1851 C.ar    1  LIG1        0.1952
      5 O           0.6101    3.6349   -2.1541 O.2     1  LIG1       -0.4557
      6 H           0.6728    2.2228   -3.6827 H       1  LIG1        0.1050
      7 N           3.4697    1.5342   -2.7806 N.pl3   1  LIG1       -0.3527
      8 H           3.4924    1.3226   -3.7676 H       1  LIG1        0.1425
      9 H           4.3849    1.7884   -2.4338 H       1  LIG1        0.1425
     10 O           3.8169    3.4085   -0.6289 O.3     1  LIG1       -0.5020
     11 H           3.7557    4.0218    0.1236 H       1  LIG1        0.2924
     12 C           0.9960    5.1035   -0.3314 C.ar    1  LIG1        0.1031
     13 C           1.5178    5.7432    0.7824 C.ar    1  LIG1        0.0710
     14 C           0.5501    6.7270    1.1819 C.ar    1  LIG1        0.0931
     15 C          -0.5260    6.6554    0.3122 C.ar    1  LIG1        0.0675
     16 N          -0.2242    5.6668   -0.5856 N.ar    1  LIG1       -0.3496
     17 H          -0.7918    5.3946   -1.3726 H       1  LIG1        0.1661
     18 C           2.7471    5.4762    1.4347 C.1     1  LIG1       -0.0661
     19 C           3.7866    5.2674    2.0116 C.1     1  LIG1       -0.1138
     20 H           4.6919    5.0940    2.5479 H       1  LIG1        0.1232
     21 N           0.7903    8.3099    3.2011 N.1     1  LIG1       -0.1908
     22 C           0.6764    7.5952    2.2971 C.1     1  LIG1        0.1025
     23 C          -3.0174    6.9069   -0.0573 C.ar    1  LIG1        0.0481
     24 C          -1.7560    7.4499    0.2561 C.ar    1  LIG1        0.0207
     25 C          -1.7032    8.8175    0.5522 C.ar    1  LIG1       -0.0488
     26 C          -2.8424    9.5916    0.4997 C.ar    1  LIG1       -0.0336
     27 C          -4.0464    8.9793    0.1311 C.ar    1  LIG1        0.0892
     28 N          -4.1124    7.6602   -0.1210 N.ar    1  LIG1       -0.2497
     29 H          -0.7574    9.2691    0.8294 H       1  LIG1        0.0625
     30 C          -3.2391    5.4404   -0.3267 C.3     1  LIG1       -0.0217
     31 H          -2.5990    4.8037    0.2865 H       1  LIG1        0.0293
     32 H          -3.0579    5.1920   -1.3793 H       1  LIG1        0.0293
     33 H          -4.2828    5.2032   -0.1221 H       1  LIG1        0.0293
     34 H          -2.8189   10.6391    0.7707 H       1  LIG1        0.0640
     35 C          -5.2996    9.6958    0.0246 C.ar    1  LIG1        0.0863
     36 C          -5.6434   11.0445    0.0741 C.ar    1  LIG1        0.0523
     37 C          -7.0456   11.1194   -0.0593 C.ar    1  LIG1       -0.0150
     38 C          -7.5355    9.8265   -0.1958 C.ar    1  LIG1        0.0506
     39 N          -6.4660    8.9887   -0.1474 N.ar    1  LIG1       -0.3514
     40 H          -6.4445    7.9897   -0.2777 H       1  LIG1        0.1660
     41 N          -4.7649   12.1209    0.2629 N.pl3   1  LIG1       -0.3563
     42 H          -3.9731   12.1046   -0.3680 H       1  LIG1        0.1424
     43 H          -5.2341   13.0137    0.1873 H       1  LIG1        0.1424
     44 H          -7.6424   12.0200   -0.0302 H       1  LIG1        0.0657
     45 C          -9.4453    8.1576    0.0457 C.ar    1  LIG1        0.0483
     46 C          -8.9217    9.3969   -0.3947 C.ar    1  LIG1        0.0229
     47 C          -9.7964   10.2659   -1.0349 C.ar    1  LIG1       -0.0072
     48 C         -11.1385    9.9482   -1.2329 C.ar    1  LIG1        0.1449
     49 C         -11.5713    8.7008   -0.7539 C.ar    1  LIG1        0.1305
     50 N         -10.7211    7.8587   -0.1453 N.ar    1  LIG1       -0.2460
     51 H          -9.4459   11.2156   -1.4215 H       1  LIG1        0.0662
     52 C          -8.6320    7.1120    0.7627 C.3     1  LIG1       -0.0217
     53 H          -7.9657    7.5502    1.5089 H       1  LIG1        0.0293
     54 H          -8.0184    6.5252    0.0685 H       1  LIG1        0.0293
     55 H          -9.3096    6.4158    1.2568 H       1  LIG1        0.0293
     56 O         -11.8930   10.8442   -1.8775 O.3     1  LIG1       -0.5045
     57 H         -12.8439   10.5546   -1.9610 H       1  LIG1        0.2922
     58 C         -12.9364    8.1686   -0.8626 C.ar    1  LIG1        0.0937
     59 C         -14.1640    8.6438   -1.3169 C.ar    1  LIG1        0.0948
     60 C         -15.1031    7.5993   -1.1643 C.ar    1  LIG1        0.1695
     61 C         -14.4443    6.5092   -0.6107 C.ar    1  LIG1        0.1279
     62 N         -13.1374    6.8939   -0.4402 N.ar    1  LIG1       -0.3460
     63 H         -12.3590    6.3556   -0.0839 H       1  LIG1        0.1662
     64 N         -14.4119    9.9336   -1.8756 N.pl3   1  LIG1       -0.3534
     65 H         -14.9251    9.8550   -2.7495 H       1  LIG1        0.1425
     66 H         -14.9607   10.5199   -1.2519 H       1  LIG1        0.1425
     67 O         -16.3982    7.6186   -1.5676 O.3     1  LIG1       -0.4910
     68 C         -17.2967    8.3387   -0.7280 C.3     1  LIG1        0.0790
     69 H         -18.2994    8.1129   -1.0874 H       1  LIG1        0.0660
     70 H         -17.2088    8.0120    0.3124 H       1  LIG1        0.0660
     71 H         -17.1157    9.4184   -0.7848 H       1  LIG1        0.0660
     72 C         -14.8852    5.1939   -0.2599 C.ar    1  LIG1        0.1730
     73 C         -16.0767    4.5077   -0.2649 C.ar    1  LIG1        0.1025
     74 C         -15.8143    3.1781    0.2303 C.ar    1  LIG1        0.0135
     75 C         -14.4832    3.1329    0.4963 C.ar    1  LIG1        0.1451
     76 O         -13.9153    4.3621    0.2048 O.2     1  LIG1       -0.4515
     77 N         -18.4641    5.2781   -0.8447 N.1     1  LIG1       -0.1907
     78 C         -17.3717    4.9724   -0.6121 C.1     1  LIG1        0.1033
     79 C         -16.8485    2.1172    0.4189 C.3     1  LIG1       -0.0349
     80 H         -16.5628    1.4189    1.2078 H       1  LIG1        0.0279
     81 H         -17.0077    1.5444   -0.5003 H       1  LIG1        0.0279
     82 H         -17.8074    2.5658    0.6870 H       1  LIG1        0.0279
     83 C         -12.4647    2.4149    1.8310 C.ar    1  LIG1        0.2233
     84 C         -13.5850    2.1063    1.0133 C.ar    1  LIG1        0.0801
     85 C         -13.8097    0.7642    0.7431 C.ar    1  LIG1       -0.0271
     86 C         -12.9745   -0.2094    1.2941 C.ar    1  LIG1        0.0707
     87 C         -11.9161    0.2170    2.0961 C.ar    1  LIG1        0.0488
     88 N         -11.6684    1.4937    2.3489 N.ar    1  LIG1       -0.2196
     89 H         -14.6250    0.4695    0.0936 H       1  LIG1        0.0640
     90 H         -11.2439   -0.5092    2.5450 H       1  LIG1        0.0844
     91 O         -12.1313    3.6722    2.1449 O.3     1  LIG1       -0.4919
     92 H         -12.7158    4.2933    1.6879 H       1  LIG1        0.2937
     93 N         -13.3594   -2.7253    0.8275 N.1     1  LIG1       -0.1908
     94 C         -13.1864   -1.6006    1.0357 C.1     1  LIG1        0.1007
@<TRIPOS>BOND
     1     8     7    1
     2     6     1    1
     3     1     2   ar
     4     1     5   ar
     5     7     9    1
     6     7     2    1
     7    65    64    1
     8     2     3   ar
     9     5     4   ar
    10    57    56    1
    11    56    48    1
    12    64    59    1
    13    64    66    1
    14    67    60    1
    15    67    68    1
    16    51    47    1
    17    32    30    1
    18    17    16    1
    19    59    60   ar
    20    59    58   ar
    21     3     4   ar
    22     3    10    1
    23    48    47   ar
    24    48    49   ar
    25     4    12    1
    26    60    61   ar
    27    69    68    1
    28    47    46   ar
    29    58    49    1
    30    58    62   ar
    31    77    78    3
    32    71    68    1
    33    49    50   ar
    34    68    70    1
    35    10    11    1
    36    78    73    1
    37    61    62   ar
    38    61    72    1
    39    16    12   ar
    40    16    15   ar
    41    81    79    1
    42    62    63    1
    43    46    38    1
    44    46    45   ar
    45    42    41    1
    46    12    13   ar
    47    30    33    1
    48    30    23    1
    49    30    31    1
    50    40    39    1
    51    73    72   ar
    52    73    74   ar
    53    72    76   ar
    54    38    39   ar
    55    38    37   ar
    56    39    35   ar
    57    50    45   ar
    58    28    23   ar
    59    28    27   ar
    60    37    44    1
    61    37    36   ar
    62    23    24   ar
    63    35    36   ar
    64    35    27    1
    65    45    52    1
    66    54    52    1
    67    36    41    1
    68    89    85    1
    69    27    26   ar
    70    43    41    1
    71    76    75   ar
    72    74    79    1
    73    74    75   ar
    74    24    15    1
    75    24    25   ar
    76    15    14   ar
    77    79    82    1
    78    79    80    1
    79    75    84    1
    80    26    25   ar
    81    26    34    1
    82    25    29    1
    83    85    84   ar
    84    85    86   ar
    85    52    55    1
    86    52    53    1
    87    13    14   ar
    88    13    18    1
    89    93    94    3
    90    84    83   ar
    91    94    86    1
    92    14    22    1
    93    86    87   ar
    94    18    19    3
    95    92    91    1
    96    83    91    1
    97    83    88   ar
    98    19    20    1
    99    87    88   ar
   100    87    90    1
   101    22    21    3
