@<TRIPOS>MOLECULE
mol_data/opt/cam/geoms/mol2/12hf12de-12da6ea12le-4hd-4ah6fi.out
 92 99 0 0 0
SMALL
GASTEIGER

@<TRIPOS>ATOM
      1 C           1.4174    2.3851   -0.3134 C.ar    1  LIG1        0.1171
      2 C           2.6291    2.5936   -0.8910 C.ar    1  LIG1        0.1057
      3 C           2.7498    4.0119   -1.0346 C.ar    1  LIG1        0.1870
      4 C           1.5935    4.5673   -0.5320 C.ar    1  LIG1        0.2140
      5 O           0.7743    3.5628   -0.0889 O.2     1  LIG1       -0.4541
      6 H           0.8959    1.4925   -0.0086 H       1  LIG1        0.1050
      7 N           3.6348    1.7059   -1.2459 N.pl3   1  LIG1       -0.3527
      8 H           3.3139    0.8083   -1.5783 H       1  LIG1        0.1425
      9 H           4.3105    2.1201   -1.8736 H       1  LIG1        0.1425
     10 O           3.8457    4.5138   -1.6228 O.3     1  LIG1       -0.5019
     11 H           3.9259    5.4782   -1.5519 H       1  LIG1        0.2924
     12 C           1.0893    5.9002   -0.4047 C.ar    1  LIG1        0.1929
     13 C           1.6328    7.1527   -0.6005 C.ar    1  LIG1        0.1167
     14 C           0.5913    8.1115   -0.3328 C.ar    1  LIG1        0.0916
     15 C          -0.4984    7.3690    0.0313 C.ar    1  LIG1        0.1886
     16 O          -0.1934    6.0361   -0.0215 O.2     1  LIG1       -0.4458
     17 N           4.0685    7.5598   -1.3136 N.1     1  LIG1       -0.1907
     18 C           2.9636    7.4189   -0.9899 C.1     1  LIG1        0.1043
     19 C           0.6928    9.5167   -0.4663 C.1     1  LIG1       -0.0644
     20 C           0.7884   10.7088   -0.5902 C.1     1  LIG1       -0.1138
     21 H           0.8605   11.7693   -0.6754 H       1  LIG1        0.1232
     22 C          -1.8466    7.6785    0.4244 C.ar    1  LIG1        0.1891
     23 C          -2.4693    8.7343    1.0512 C.ar    1  LIG1        0.1011
     24 C          -3.8457    8.3690    1.1733 C.ar    1  LIG1        0.0024
     25 C          -3.9678    7.1255    0.6295 C.ar    1  LIG1        0.1398
     26 O          -2.7572    6.7196    0.1654 O.2     1  LIG1       -0.4503
     27 N          -1.4422   10.8885    2.0237 N.1     1  LIG1       -0.1907
     28 C          -1.8819    9.9186    1.5717 C.1     1  LIG1        0.1031
     29 H          -4.6158    8.9537    1.6516 H       1  LIG1        0.0668
     30 C          -4.9940    4.8200    0.3995 C.ar    1  LIG1        0.1246
     31 C          -5.1059    6.2260    0.4837 C.ar    1  LIG1        0.0511
     32 C          -6.3958    6.7634    0.4525 C.ar    1  LIG1       -0.0463
     33 C          -7.4955    5.9397    0.3475 C.ar    1  LIG1       -0.0318
     34 C          -7.2782    4.5587    0.2574 C.ar    1  LIG1        0.1111
     35 N          -6.0589    4.0217    0.2845 N.ar    1  LIG1       -0.2345
     36 H          -6.5272    7.8393    0.4999 H       1  LIG1        0.0626
     37 C          -3.7200    4.1595    0.4412 C.1     1  LIG1       -0.0491
     38 C          -2.6407    3.6308    0.4730 C.1     1  LIG1       -0.1124
     39 H          -1.6485    3.2372    0.4786 H       1  LIG1        0.1232
     40 H          -8.5031    6.3340    0.3277 H       1  LIG1        0.0640
     41 C          -8.3962    3.6341    0.1205 C.ar    1  LIG1        0.1964
     42 C          -9.7300    3.8032   -0.1124 C.ar    1  LIG1        0.1832
     43 C         -10.3229    2.4930   -0.1535 C.ar    1  LIG1        0.1127
     44 C          -9.2897    1.6102    0.0786 C.ar    1  LIG1        0.1566
     45 O          -8.1413    2.3016    0.2402 O.2     1  LIG1       -0.4482
     46 O         -10.3680    4.9910   -0.2463 O.3     1  LIG1       -0.4901
     47 C         -10.9232    5.2370   -1.5393 C.3     1  LIG1        0.0790
     48 H         -11.4026    6.2140   -1.4842 H       1  LIG1        0.0660
     49 H         -10.1356    5.2549   -2.2996 H       1  LIG1        0.0660
     50 H         -11.6670    4.4803   -1.7999 H       1  LIG1        0.0660
     51 C         -11.6861    2.2080   -0.4238 C.1     1  LIG1       -0.0622
     52 C         -12.8486    1.9750   -0.6416 C.1     1  LIG1       -0.1137
     53 H         -13.8737    1.7715   -0.8527 H       1  LIG1        0.1232
     54 C         -10.0780   -0.7165    0.7397 C.ar    1  LIG1        0.0360
     55 C          -9.7936   -2.0922    0.7520 C.ar    1  LIG1       -0.0314
     56 C          -9.1436    0.1557    0.1318 C.ar    1  LIG1        0.0405
     57 C          -8.6349   -2.6327    0.2221 C.ar    1  LIG1        0.0013
     58 H         -10.5011   -2.7568    1.2375 H       1  LIG1        0.0643
     59 C          -7.9696   -0.3855   -0.3898 C.ar    1  LIG1       -0.0313
     60 C          -7.6988   -1.7494   -0.3610 C.ar    1  LIG1        0.0602
     61 H          -7.2450    0.2850   -0.8364 H       1  LIG1        0.0638
     62 N         -11.1988   -0.2710    1.3854 N.pl3   1  LIG1       -0.3574
     63 H         -11.6099    0.6105    1.1222 H       1  LIG1        0.1423
     64 H         -11.8637   -0.9721    1.6705 H       1  LIG1        0.1423
     65 N          -5.4928   -2.5570   -1.4519 N.1     1  LIG1       -0.1908
     66 C          -6.4846   -2.2111   -0.9650 C.1     1  LIG1        0.0998
     67 C          -9.4664   -4.9712   -0.0597 C.ar    1  LIG1       -0.0533
     68 C          -9.2797   -6.3413    0.0181 C.ar    1  LIG1       -0.0515
     69 C          -8.4279   -4.1008    0.2782 C.ar    1  LIG1       -0.0148
     70 C          -8.0691   -6.9026    0.4322 C.ar    1  LIG1        0.0079
     71 H         -10.1012   -7.0067   -0.2256 H       1  LIG1        0.0624
     72 C          -7.2100   -4.6445    0.6790 C.ar    1  LIG1       -0.0327
     73 C          -7.0216   -6.0210    0.7453 C.ar    1  LIG1        0.0331
     74 H          -6.3846   -3.9907    0.9393 H       1  LIG1        0.0642
     75 H         -10.4176   -4.5725   -0.3943 H       1  LIG1        0.0624
     76 N          -5.7869   -6.5457    1.1918 N.pl3   1  LIG1       -0.3575
     77 H          -5.4383   -7.2898    0.5953 H       1  LIG1        0.1423
     78 H          -5.0730   -5.8366    1.3052 H       1  LIG1        0.1423
     79 C          -7.4635   -9.0762    1.6472 C.ar    1  LIG1        0.2203
     80 C          -7.9390   -8.3818    0.5054 C.ar    1  LIG1        0.0455
     81 C          -8.4041   -9.1627   -0.5496 C.ar    1  LIG1       -0.0445
     82 C          -8.4263  -10.5523   -0.4758 C.ar    1  LIG1       -0.0315
     83 C          -7.9710  -11.1024    0.7166 C.ar    1  LIG1        0.0343
     84 N          -7.4970  -10.3977    1.7394 N.ar    1  LIG1       -0.2207
     85 H          -8.7604   -8.6650   -1.4481 H       1  LIG1        0.0628
     86 H          -7.9825  -12.1833    0.8517 H       1  LIG1        0.0833
     87 O          -6.9840   -8.4444    2.7310 O.3     1  LIG1       -0.4920
     88 H          -6.5268   -7.6201    2.4548 H       1  LIG1        0.2937
     89 C          -8.9130  -11.4084   -1.6123 C.3     1  LIG1       -0.0383
     90 H          -8.9423  -12.4616   -1.3237 H       1  LIG1        0.0278
     91 H          -8.2613  -11.3241   -2.4878 H       1  LIG1        0.0278
     92 H          -9.9205  -11.1224   -1.9290 H       1  LIG1        0.0278
@<TRIPOS>BOND
     1    91    89    1
     2    49    47    1
     3    92    89    1
     4     9     7    1
     5    50    47    1
     6    10    11    1
     7    10     3    1
     8    89    90    1
     9    89    82    1
    10     8     7    1
    11    47    48    1
    12    47    46    1
    13    65    66    3
    14    85    81    1
    15    17    18    3
    16     7     2    1
    17     3     2   ar
    18     3     4   ar
    19    18    13    1
    20    66    60    1
    21     2     1   ar
    22    53    52    1
    23    61    59    1
    24    21    20    1
    25    52    51    3
    26    13    12   ar
    27    13    14   ar
    28    20    19    3
    29    81    82   ar
    30    81    80   ar
    31     4    12    1
    32     4     5   ar
    33    82    83   ar
    34    19    14    1
    35    51    43    1
    36    12    16   ar
    37    75    67    1
    38    59    60   ar
    39    59    56   ar
    40    60    57   ar
    41    14    15   ar
    42     1     5   ar
    43     1     6    1
    44    46    42    1
    45    71    68    1
    46    43    42   ar
    47    43    44   ar
    48    42    41   ar
    49    67    68   ar
    50    67    69   ar
    51    16    15   ar
    52    68    70   ar
    53    15    22    1
    54    44    56    1
    55    44    45   ar
    56    41    45   ar
    57    41    34    1
    58    56    54   ar
    59    26    22   ar
    60    26    25   ar
    61    57    69    1
    62    57    55   ar
    63    34    35   ar
    64    34    33   ar
    65    69    72   ar
    66    35    30   ar
    67    40    33    1
    68    33    32   ar
    69    30    37    1
    70    30    31   ar
    71    22    23   ar
    72    70    80    1
    73    70    73   ar
    74    37    38    3
    75    32    31   ar
    76    32    36    1
    77    38    39    1
    78    31    25    1
    79    80    79   ar
    80    77    76    1
    81    25    24   ar
    82    72    73   ar
    83    72    74    1
    84    83    86    1
    85    83    84   ar
    86    54    55   ar
    87    54    62    1
    88    73    76    1
    89    55    58    1
    90    23    24   ar
    91    23    28    1
    92    63    62    1
    93    24    29    1
    94    76    78    1
    95    62    64    1
    96    28    27    3
    97    79    84   ar
    98    79    87    1
    99    88    87    1
