@<TRIPOS>MOLECULE
mol_data/opt/cam/geoms/mol2/12hg12hg12hg12hg-.out
 42 45 0 0 0
SMALL
GASTEIGER

@<TRIPOS>ATOM
      1 C           1.0492    1.4863   -0.0130 C.ar    1  LIG1        0.1144
      2 C           2.3123    1.8321    0.3520 C.ar    1  LIG1        0.0769
      3 C           2.3485    3.2678    0.3311 C.ar    1  LIG1        0.0745
      4 C           1.1030    3.6752   -0.0616 C.ar    1  LIG1        0.1865
      5 O           0.3044    2.5994   -0.2766 O.2     1  LIG1       -0.4567
      6 H           0.5453    0.5395   -0.1167 H       1  LIG1        0.1049
      7 N           3.3740    1.0273    0.7575 N.pl3   1  LIG1       -0.3547
      8 H           3.3144    0.0726    0.4327 H       1  LIG1        0.1424
      9 H           4.2745    1.4319    0.5325 H       1  LIG1        0.1424
     10 S           3.7510    4.2165    0.8191 S.3     1  LIG1       -0.1371
     11 H           3.5304    5.2446   -0.0457 H       1  LIG1        0.1073
     12 C           0.5528    4.9850   -0.3060 C.ar    1  LIG1        0.1934
     13 C           1.0893    6.1221   -0.8450 C.ar    1  LIG1        0.0882
     14 C           0.0582    7.1150   -0.8110 C.ar    1  LIG1        0.0752
     15 C          -1.0340    6.5044   -0.2578 C.ar    1  LIG1        0.1875
     16 O          -0.7441    5.2119    0.0480 O.2     1  LIG1       -0.4455
     17 N           2.3919    6.2800   -1.3575 N.pl3   1  LIG1       -0.3541
     18 H           2.5464    5.7368   -2.2004 H       1  LIG1        0.1425
     19 H           2.5947    7.2560   -1.5462 H       1  LIG1        0.1425
     20 S           0.2189    8.7282   -1.5000 S.3     1  LIG1       -0.1371
     21 H          -0.5977    9.3450   -0.5983 H       1  LIG1        0.1073
     22 C          -2.3482    6.9996    0.0595 C.ar    1  LIG1        0.1935
     23 C          -2.7798    8.2139    0.5190 C.ar    1  LIG1        0.0882
     24 C          -4.2045    8.1227    0.6294 C.ar    1  LIG1        0.0752
     25 C          -4.5326    6.8549    0.2344 C.ar    1  LIG1        0.1875
     26 O          -3.4129    6.1662   -0.1125 O.2     1  LIG1       -0.4455
     27 N          -1.9774    9.3242    0.8466 N.pl3   1  LIG1       -0.3541
     28 H          -2.5446   10.1485    1.0155 H       1  LIG1        0.1425
     29 H          -1.3884    9.1523    1.6551 H       1  LIG1        0.1425
     30 S          -5.2270    9.3943    1.2948 S.3     1  LIG1       -0.1371
     31 H          -6.3045    9.1503    0.5008 H       1  LIG1        0.1073
     32 C          -5.8109    6.2080    0.0940 C.ar    1  LIG1        0.1924
     33 C          -7.0192    6.6725   -0.3425 C.ar    1  LIG1        0.0874
     34 C          -7.9412    5.5802   -0.1998 C.ar    1  LIG1        0.0640
     35 C          -7.2169    4.5429    0.2969 C.ar    1  LIG1        0.1077
     36 O          -5.9328    4.8952    0.4687 O.2     1  LIG1       -0.4568
     37 H          -7.4833    3.5306    0.5571 H       1  LIG1        0.1041
     38 N          -7.3081    7.9562   -0.8260 N.pl3   1  LIG1       -0.3541
     39 H          -6.7381    8.2135   -1.6245 H       1  LIG1        0.1425
     40 H          -8.2918    8.0484   -1.0570 H       1  LIG1        0.1425
     41 S          -9.6707    5.6162   -0.5519 S.3     1  LIG1       -0.1378
     42 H          -9.6077    5.2562   -1.8482 H       1  LIG1        0.1073
@<TRIPOS>BOND
     1    18    17    1
     2    42    41    1
     3    39    38    1
     4    19    17    1
     5    20    14    1
     6    20    21    1
     7    17    13    1
     8    40    38    1
     9    13    14   ar
    10    13    12   ar
    11    38    33    1
    12    14    15   ar
    13    41    34    1
    14    33    34   ar
    15    33    32   ar
    16    12     4    1
    17    12    16   ar
    18     5     4   ar
    19     5     1   ar
    20    15    16   ar
    21    15    22    1
    22    34    35   ar
    23     6     1    1
    24    26    22   ar
    25    26    25   ar
    26     4     3   ar
    27    11    10    1
    28     1     2   ar
    29    22    23   ar
    30    32    25    1
    31    32    36   ar
    32    25    24   ar
    33    35    36   ar
    34    35    37    1
    35     3     2   ar
    36     3    10    1
    37     2     7    1
    38     8     7    1
    39    31    30    1
    40    23    24   ar
    41    23    27    1
    42     9     7    1
    43    24    30    1
    44    27    28    1
    45    27    29    1
