@<TRIPOS>MOLECULE
mol_data/opt/cam/geoms/mol2/12hg12hg.out
 22 23 0 0 0
SMALL
GASTEIGER

@<TRIPOS>ATOM
      1 C           0.2140    1.7915   -0.5955 C.ar    1  LIG1        0.1144
      2 C           1.4912    1.8010   -0.1295 C.ar    1  LIG1        0.0769
      3 C           1.7510    3.1553    0.2741 C.ar    1  LIG1        0.0745
      4 C           0.6109    3.8604    0.0050 C.ar    1  LIG1        0.1865
      5 O          -0.3303    3.0427   -0.5303 O.2     1  LIG1       -0.4567
      6 H          -0.4255    1.0123   -0.9763 H       1  LIG1        0.1049
      7 N           2.3865    0.7483    0.0355 N.pl3   1  LIG1       -0.3547
      8 H           2.2000   -0.0506   -0.5537 H       1  LIG1        0.1424
      9 H           3.3521    1.0422   -0.0415 H       1  LIG1        0.1424
     10 S           3.2493    3.6775    1.0435 S.3     1  LIG1       -0.1371
     11 H           3.2783    4.9179    0.4919 H       1  LIG1        0.1073
     12 C           0.3080    5.2632    0.1400 C.ar    1  LIG1        0.1924
     13 C           1.0530    6.3832   -0.0952 C.ar    1  LIG1        0.0874
     14 C           0.2277    7.4986    0.2777 C.ar    1  LIG1        0.0640
     15 C          -0.9514    6.9677    0.6956 C.ar    1  LIG1        0.1077
     16 O          -0.9290    5.6282    0.6096 O.2     1  LIG1       -0.4568
     17 H          -1.8610    7.4183    1.0601 H       1  LIG1        0.1041
     18 N           2.3625    6.4413   -0.5900 N.pl3   1  LIG1       -0.3541
     19 H           2.4705    5.9644   -1.4780 H       1  LIG1        0.1425
     20 H           2.6879    7.3990   -0.6635 H       1  LIG1        0.1425
     21 S           0.6883    9.2026    0.2444 S.3     1  LIG1       -0.1378
     22 H           0.3103    9.4780   -1.0188 H       1  LIG1        0.1073
@<TRIPOS>BOND
     1    19    18    1
     2    22    21    1
     3     6     1    1
     4    20    18    1
     5     1     5   ar
     6     1     2   ar
     7    18    13    1
     8     8     7    1
     9     5     4   ar
    10     2     7    1
    11     2     3   ar
    12    13    12   ar
    13    13    14   ar
    14     9     7    1
    15     4    12    1
    16     4     3   ar
    17    12    16   ar
    18    21    14    1
    19     3    10    1
    20    14    15   ar
    21    11    10    1
    22    16    15   ar
    23    15    17    1
