@<TRIPOS>MOLECULE
mol_data/opt/cam/geoms/mol2/12hg12hg-12hg.out
 32 34 0 0 0
SMALL
GASTEIGER

@<TRIPOS>ATOM
      1 C           0.5763    1.7385   -1.1225 C.ar    1  LIG1        0.1144
      2 C           1.6921    1.7304   -0.3456 C.ar    1  LIG1        0.0769
      3 C           1.7849    3.0478    0.2205 C.ar    1  LIG1        0.0745
      4 C           0.7214    3.7531   -0.2734 C.ar    1  LIG1        0.1865
      5 O          -0.0180    2.9679   -1.0972 O.2     1  LIG1       -0.4567
      6 H           0.0872    0.9840   -1.7163 H       1  LIG1        0.1049
      7 N           2.5579    0.6835   -0.0428 N.pl3   1  LIG1       -0.3547
      8 H           2.5604   -0.0623   -0.7240 H       1  LIG1        0.1424
      9 H           3.4984    1.0004    0.1564 H       1  LIG1        0.1424
     10 S           3.0090    3.5162    1.4008 S.3     1  LIG1       -0.1371
     11 H           3.1424    4.8031    0.9920 H       1  LIG1        0.1073
     12 C           0.3414    5.1323   -0.1082 C.ar    1  LIG1        0.1934
     13 C           1.0949    6.2721   -0.0599 C.ar    1  LIG1        0.0882
     14 C           0.1893    7.3460    0.2144 C.ar    1  LIG1        0.0752
     15 C          -1.0576    6.7837    0.2626 C.ar    1  LIG1        0.1875
     16 O          -0.9798    5.4444    0.0545 O.2     1  LIG1       -0.4455
     17 N           2.4834    6.3742   -0.2222 N.pl3   1  LIG1       -0.3541
     18 H           2.8119    5.8647   -1.0353 H       1  LIG1        0.1425
     19 H           2.7819    7.3417   -0.2806 H       1  LIG1        0.1425
     20 S           0.6830    9.0152    0.4932 S.3     1  LIG1       -0.1371
     21 H          -0.3729    9.5929   -0.1389 H       1  LIG1        0.1073
     22 C          -2.3575    7.3846    0.4159 C.ar    1  LIG1        0.1924
     23 C          -2.8870    8.5419   -0.0800 C.ar    1  LIG1        0.0874
     24 C          -4.2103    8.6438    0.4695 C.ar    1  LIG1        0.0640
     25 C          -4.3798    7.5373    1.2406 C.ar    1  LIG1        0.1077
     26 O          -3.2851    6.7619    1.2120 O.2     1  LIG1       -0.4568
     27 H          -5.2084    7.1892    1.8371 H       1  LIG1        0.1041
     28 N          -2.2679    9.4532   -0.9458 N.pl3   1  LIG1       -0.3541
     29 H          -1.9552    9.0248   -1.8100 H       1  LIG1        0.1425
     30 H          -2.8747   10.2411   -1.1463 H       1  LIG1        0.1425
     31 S          -5.3486    9.9706    0.2232 S.3     1  LIG1       -0.1378
     32 H          -5.9637    9.4918   -0.8753 H       1  LIG1        0.1073
@<TRIPOS>BOND
     1    29    28    1
     2     6     1    1
     3    30    28    1
     4     1     5   ar
     5     1     2   ar
     6     5     4   ar
     7    18    17    1
     8    28    23    1
     9    32    31    1
    10     8     7    1
    11     2     7    1
    12     2     3   ar
    13    19    17    1
    14     4    12    1
    15     4     3   ar
    16    17    13    1
    17    21    20    1
    18    12    13   ar
    19    12    16   ar
    20    23    22   ar
    21    23    24   ar
    22    13    14   ar
    23     7     9    1
    24    16    15   ar
    25    14    15   ar
    26    14    20    1
    27     3    10    1
    28    31    24    1
    29    15    22    1
    30    22    26   ar
    31    24    25   ar
    32    11    10    1
    33    26    25   ar
    34    25    27    1
