@<TRIPOS>MOLECULE
mol_data/opt/cam/geoms/mol2/12hg12hg-12hg12hg.out
 42 45 0 0 0
SMALL
GASTEIGER

@<TRIPOS>ATOM
      1 C           1.0506    1.4873   -0.0095 C.ar    1  LIG1        0.1144
      2 C           2.3173    1.8336    0.3424 C.ar    1  LIG1        0.0769
      3 C           2.3528    3.2693    0.3203 C.ar    1  LIG1        0.0745
      4 C           1.1033    3.6762   -0.0598 C.ar    1  LIG1        0.1865
      5 O           0.3028    2.6001   -0.2661 O.2     1  LIG1       -0.4567
      6 H           0.5459    0.5403   -0.1075 H       1  LIG1        0.1049
      7 N           3.3833    1.0293    0.7375 N.pl3   1  LIG1       -0.3547
      8 H           3.3205    0.0744    0.4138 H       1  LIG1        0.1424
      9 H           4.2813    1.4340    0.5030 H       1  LIG1        0.1424
     10 S           3.7601    4.2187    0.7934 S.3     1  LIG1       -0.1371
     11 H           3.5303    5.2462   -0.0696 H       1  LIG1        0.1073
     12 C           0.5502    4.9858   -0.2993 C.ar    1  LIG1        0.1934
     13 C           1.0809    6.1226   -0.8444 C.ar    1  LIG1        0.0882
     14 C           0.0500    7.1153   -0.8004 C.ar    1  LIG1        0.0752
     15 C          -1.0364    6.5047   -0.2357 C.ar    1  LIG1        0.1875
     16 O          -0.7430    5.2125    0.0678 O.2     1  LIG1       -0.4455
     17 N           2.3782    6.2806   -1.3703 N.pl3   1  LIG1       -0.3541
     18 H           2.5242    5.7370   -2.2144 H       1  LIG1        0.1425
     19 H           2.5787    7.2566   -1.5616 H       1  LIG1        0.1425
     20 S           0.2032    8.7281   -1.4919 S.3     1  LIG1       -0.1371
     21 H          -0.6043    9.3452   -0.5822 H       1  LIG1        0.1073
     22 C          -2.3474    6.9998    0.0948 C.ar    1  LIG1        0.1935
     23 C          -2.7745    8.2142    0.5580 C.ar    1  LIG1        0.0882
     24 C          -4.1980    8.1227    0.6830 C.ar    1  LIG1        0.0752
     25 C          -4.5298    6.8546    0.2921 C.ar    1  LIG1        0.1875
     26 O          -3.4135    6.1660   -0.0659 O.2     1  LIG1       -0.4455
     27 N          -1.9691    9.3249    0.8767 N.pl3   1  LIG1       -0.3541
     28 H          -2.5348   10.1491    1.0510 H       1  LIG1        0.1425
     29 H          -1.3719    9.1536    1.6793 H       1  LIG1        0.1425
     30 S          -5.2140    9.3944    1.3582 S.3     1  LIG1       -0.1371
     31 H          -6.2995    9.1496    0.5754 H       1  LIG1        0.1073
     32 C          -5.8093    6.2073    0.1651 C.ar    1  LIG1        0.1924
     33 C          -7.0221    6.6713   -0.2592 C.ar    1  LIG1        0.0874
     34 C          -7.9423    5.5788   -0.1065 C.ar    1  LIG1        0.0640
     35 C          -7.2127    4.5419    0.3832 C.ar    1  LIG1        0.1077
     36 O          -5.9270    4.8946    0.5417 O.2     1  LIG1       -0.4568
     37 H          -7.4762    3.5297    0.6467 H       1  LIG1        0.1041
     38 N          -7.3164    7.9546   -0.7405 N.pl3   1  LIG1       -0.3541
     39 H          -6.7546    8.2116   -1.5449 H       1  LIG1        0.1425
     40 H          -8.3024    8.0464   -0.9614 H       1  LIG1        0.1425
     41 S          -9.6754    5.6140   -0.4409 S.3     1  LIG1       -0.1378
     42 H          -9.6256    5.2535   -1.7377 H       1  LIG1        0.1073
@<TRIPOS>BOND
     1    18    17    1
     2    42    41    1
     3    19    17    1
     4    39    38    1
     5    20    14    1
     6    20    21    1
     7    17    13    1
     8    40    38    1
     9    13    14   ar
    10    13    12   ar
    11    14    15   ar
    12    38    33    1
    13    41    34    1
    14    12     4    1
    15    12    16   ar
    16     5     4   ar
    17     5     1   ar
    18    33    34   ar
    19    33    32   ar
    20    15    16   ar
    21    15    22    1
    22     6     1    1
    23    34    35   ar
    24    11    10    1
    25    26    22   ar
    26    26    25   ar
    27     4     3   ar
    28     1     2   ar
    29    22    23   ar
    30    32    25    1
    31    32    36   ar
    32    25    24   ar
    33     3     2   ar
    34     3    10    1
    35     2     7    1
    36    35    36   ar
    37    35    37    1
    38     8     7    1
    39     9     7    1
    40    23    24   ar
    41    23    27    1
    42    31    30    1
    43    24    30    1
    44    27    28    1
    45    27    29    1
