@<TRIPOS>MOLECULE
mol_data/opt/cam/geoms/mol2/12hg12hg-12hg-12hg-.out
 42 45 0 0 0
SMALL
GASTEIGER

@<TRIPOS>ATOM
      1 C           1.0501    1.4871   -0.0076 C.ar    1  LIG1        0.1144
      2 C           2.3117    1.8313    0.3638 C.ar    1  LIG1        0.0769
      3 C           2.3474    3.2671    0.3511 C.ar    1  LIG1        0.0745
      4 C           1.1032    3.6762   -0.0436 C.ar    1  LIG1        0.1865
      5 O           0.3057    2.6015   -0.2675 O.2     1  LIG1       -0.4567
      6 H           0.5468    0.5407   -0.1184 H       1  LIG1        0.1049
      7 N           3.3723    1.0245    0.7684 N.pl3   1  LIG1       -0.3547
      8 H           3.3141    0.0717    0.4380 H       1  LIG1        0.1424
      9 H           4.2734    1.4307    0.5488 H       1  LIG1        0.1424
     10 S           3.7480    4.2135    0.8493 S.3     1  LIG1       -0.1371
     11 H           3.5299    5.2464   -0.0104 H       1  LIG1        0.1073
     12 C           0.5533    4.9873   -0.2824 C.ar    1  LIG1        0.1934
     13 C           1.0913    6.1276   -0.8131 C.ar    1  LIG1        0.0882
     14 C           0.0597    7.1199   -0.7771 C.ar    1  LIG1        0.0752
     15 C          -1.0342    6.5058   -0.2311 C.ar    1  LIG1        0.1875
     16 O          -0.7449    5.2117    0.0683 O.2     1  LIG1       -0.4455
     17 N           2.3956    6.2888   -1.3202 N.pl3   1  LIG1       -0.3541
     18 H           2.5533    5.7505   -2.1656 H       1  LIG1        0.1425
     19 H           2.5987    7.2660   -1.5027 H       1  LIG1        0.1425
     20 S           0.2222    8.7370   -1.4563 S.3     1  LIG1       -0.1371
     21 H          -0.5977    9.3484   -0.5540 H       1  LIG1        0.1073
     22 C          -2.3497    6.9987    0.0844 C.ar    1  LIG1        0.1935
     23 C          -2.7832    8.2102    0.5493 C.ar    1  LIG1        0.0882
     24 C          -4.2083    8.1179    0.6542 C.ar    1  LIG1        0.0752
     25 C          -4.5345    6.8523    0.2508 C.ar    1  LIG1        0.1875
     26 O          -3.4134    6.1659   -0.0961 O.2     1  LIG1       -0.4455
     27 N          -1.9824    9.3189    0.8859 N.pl3   1  LIG1       -0.3541
     28 H          -2.5505   10.1421    1.0576 H       1  LIG1        0.1425
     29 H          -1.3962    9.1427    1.6955 H       1  LIG1        0.1425
     30 S          -5.2336    9.3853    1.3232 S.3     1  LIG1       -0.1371
     31 H          -6.3082    9.1455    0.5241 H       1  LIG1        0.1073
     32 C          -5.8121    6.2057    0.1023 C.ar    1  LIG1        0.1924
     33 C          -7.0191    6.6723   -0.3358 C.ar    1  LIG1        0.0874
     34 C          -7.9411    5.5789   -0.2026 C.ar    1  LIG1        0.0640
     35 C          -7.2183    4.5390    0.2908 C.ar    1  LIG1        0.1077
     36 O          -5.9349    4.8908    0.4690 O.2     1  LIG1       -0.4568
     37 H          -7.4852    3.5251    0.5443 H       1  LIG1        0.1041
     38 N          -7.3068    7.9586   -0.8130 N.pl3   1  LIG1       -0.3541
     39 H          -6.7341    8.2207   -1.6080 H       1  LIG1        0.1425
     40 H          -8.2897    8.0518   -1.0469 H       1  LIG1        0.1425
     41 S          -9.6695    5.6162   -0.5605 S.3     1  LIG1       -0.1378
     42 H          -9.6018    5.2637   -1.8586 H       1  LIG1        0.1073
@<TRIPOS>BOND
     1    18    17    1
     2    42    41    1
     3    39    38    1
     4    19    17    1
     5    20    14    1
     6    20    21    1
     7    17    13    1
     8    40    38    1
     9    13    14   ar
    10    13    12   ar
    11    38    33    1
    12    14    15   ar
    13    41    34    1
    14    33    34   ar
    15    33    32   ar
    16    12     4    1
    17    12    16   ar
    18     5     4   ar
    19     5     1   ar
    20    15    16   ar
    21    15    22    1
    22    34    35   ar
    23     6     1    1
    24    26    22   ar
    25    26    25   ar
    26     4     3   ar
    27    11    10    1
    28     1     2   ar
    29    22    23   ar
    30    32    25    1
    31    32    36   ar
    32    25    24   ar
    33    35    36   ar
    34    35    37    1
    35     3     2   ar
    36     3    10    1
    37     2     7    1
    38     8     7    1
    39    31    30    1
    40     9     7    1
    41    23    24   ar
    42    23    27    1
    43    24    30    1
    44    27    28    1
    45    27    29    1
