@<TRIPOS>MOLECULE
mol_data/opt/cam/geoms/mol2/12hg12hg-.out
 22 23 0 0 0
SMALL
GASTEIGER

@<TRIPOS>ATOM
      1 C           0.2101    1.7899   -0.5852 C.ar    1  LIG1        0.1144
      2 C           1.4910    1.8009   -0.1295 C.ar    1  LIG1        0.0769
      3 C           1.7536    3.1563    0.2686 C.ar    1  LIG1        0.0745
      4 C           0.6112    3.8604    0.0068 C.ar    1  LIG1        0.1865
      5 O          -0.3340    3.0411   -0.5189 O.2     1  LIG1       -0.4567
      6 H          -0.4322    1.0096   -0.9589 H       1  LIG1        0.1049
      7 N           2.3879    0.7489    0.0310 N.pl3   1  LIG1       -0.3547
      8 H           2.1969   -0.0515   -0.5546 H       1  LIG1        0.1424
      9 H           3.3528    1.0428   -0.0544 H       1  LIG1        0.1424
     10 S           3.2579    3.6809    1.0246 S.3     1  LIG1       -0.1371
     11 H           3.2821    4.9199    0.4696 H       1  LIG1        0.1073
     12 C           0.3090    5.2635    0.1406 C.ar    1  LIG1        0.1924
     13 C           1.0518    6.3831   -0.1034 C.ar    1  LIG1        0.0874
     14 C           0.2292    7.4992    0.2732 C.ar    1  LIG1        0.0640
     15 C          -0.9464    6.9690    0.7019 C.ar    1  LIG1        0.1077
     16 O          -0.9244    5.6294    0.6191 O.2     1  LIG1       -0.4568
     17 H          -1.8533    7.4203    1.0725 H       1  LIG1        0.1041
     18 N           2.3573    6.4403   -0.6088 N.pl3   1  LIG1       -0.3541
     19 H           2.4583    5.9612   -1.4964 H       1  LIG1        0.1425
     20 H           2.6818    7.3979   -0.6873 H       1  LIG1        0.1425
     21 S           0.6890    9.2033    0.2319 S.3     1  LIG1       -0.1378
     22 H           0.3008    9.4753   -1.0290 H       1  LIG1        0.1073
@<TRIPOS>BOND
     1    19    18    1
     2    22    21    1
     3     6     1    1
     4    20    18    1
     5    18    13    1
     6     1     5   ar
     7     1     2   ar
     8     8     7    1
     9     5     4   ar
    10     2     7    1
    11     2     3   ar
    12    13    12   ar
    13    13    14   ar
    14     9     7    1
    15     4    12    1
    16     4     3   ar
    17    12    16   ar
    18    21    14    1
    19     3    10    1
    20    14    15   ar
    21    11    10    1
    22    16    15   ar
    23    15    17    1
