@<TRIPOS>MOLECULE
mol_data/opt/cam/geoms/mol2/12hg12hg12hg-.out
 32 34 0 0 0
SMALL
GASTEIGER

@<TRIPOS>ATOM
      1 C           0.5853    1.7416   -1.1368 C.ar    1  LIG1        0.1144
      2 C           1.6934    1.7307   -0.3491 C.ar    1  LIG1        0.0769
      3 C           1.7813    3.0464    0.2217 C.ar    1  LIG1        0.0745
      4 C           0.7230    3.7536   -0.2805 C.ar    1  LIG1        0.1865
      5 O          -0.0087    2.9711   -1.1137 O.2     1  LIG1       -0.4567
      6 H           0.1017    0.9890   -1.7376 H       1  LIG1        0.1049
      7 N           2.5558    0.6825   -0.0410 N.pl3   1  LIG1       -0.3547
      8 H           2.5646   -0.0613   -0.7242 H       1  LIG1        0.1424
      9 H           3.4944    0.9984    0.1684 H       1  LIG1        0.1424
     10 S           2.9941    3.5108    1.4152 S.3     1  LIG1       -0.1371
     11 H           3.1320    4.7988    1.0114 H       1  LIG1        0.1073
     12 C           0.3420    5.1325   -0.1150 C.ar    1  LIG1        0.1934
     13 C           1.0955    6.2718   -0.0560 C.ar    1  LIG1        0.0882
     14 C           0.1878    7.3453    0.2126 C.ar    1  LIG1        0.0752
     15 C          -1.0598    6.7835    0.2470 C.ar    1  LIG1        0.1875
     16 O          -0.9806    5.4447    0.0358 O.2     1  LIG1       -0.4455
     17 N           2.4855    6.3737   -0.2046 N.pl3   1  LIG1       -0.3541
     18 H           2.8217    5.8665   -1.0158 H       1  LIG1        0.1425
     19 H           2.7850    7.3413   -0.2573 H       1  LIG1        0.1425
     20 S           0.6794    9.0135    0.5010 S.3     1  LIG1       -0.1371
     21 H          -0.3700    9.5935   -0.1396 H       1  LIG1        0.1073
     22 C          -2.3609    7.3845    0.3894 C.ar    1  LIG1        0.1924
     23 C          -2.8851    8.5435   -0.1082 C.ar    1  LIG1        0.0874
     24 C          -4.2136    8.6444    0.4286 C.ar    1  LIG1        0.0640
     25 C          -4.3911    7.5358    1.1949 C.ar    1  LIG1        0.1077
     26 O          -3.2965    6.7599    1.1747 O.2     1  LIG1       -0.4568
     27 H          -5.2256    7.1864    1.7823 H       1  LIG1        0.1041
     28 N          -2.2572    9.4570   -0.9654 N.pl3   1  LIG1       -0.3541
     29 H          -1.9363    9.0309   -1.8277 H       1  LIG1        0.1425
     30 H          -2.8617   10.2457   -1.1695 H       1  LIG1        0.1425
     31 S          -5.3489    9.9725    0.1751 S.3     1  LIG1       -0.1378
     32 H          -5.9534    9.4971   -0.9307 H       1  LIG1        0.1073
@<TRIPOS>BOND
     1    29    28    1
     2     6     1    1
     3    30    28    1
     4     1     5   ar
     5     1     2   ar
     6     5     4   ar
     7    18    17    1
     8    28    23    1
     9    32    31    1
    10     8     7    1
    11     2     7    1
    12     2     3   ar
    13     4    12    1
    14     4     3   ar
    15    19    17    1
    16    17    13    1
    17    21    20    1
    18    12    13   ar
    19    12    16   ar
    20    23    22   ar
    21    23    24   ar
    22    13    14   ar
    23     7     9    1
    24    16    15   ar
    25    31    24    1
    26    14    15   ar
    27    14    20    1
    28     3    10    1
    29    15    22    1
    30    22    26   ar
    31    24    25   ar
    32    11    10    1
    33    26    25   ar
    34    25    27    1
