@<TRIPOS>MOLECULE
mol_data/opt/cam/geoms/mol2/12hg12hg-12hg12hg-.out
 42 45 0 0 0
SMALL
GASTEIGER

@<TRIPOS>ATOM
      1 C           1.0504    1.4863   -0.0342 C.ar    1  LIG1        0.1144
      2 C           2.3178    1.8313    0.3162 C.ar    1  LIG1        0.0769
      3 C           2.3535    3.2670    0.2994 C.ar    1  LIG1        0.0745
      4 C           1.1033    3.6754   -0.0766 C.ar    1  LIG1        0.1865
      5 O           0.3021    2.6002   -0.2851 O.2     1  LIG1       -0.4567
      6 H           0.5453    0.5398   -0.1346 H       1  LIG1        0.1049
      7 N           3.3846    1.0253    0.7060 N.pl3   1  LIG1       -0.3547
      8 H           3.3210    0.0717    0.3789 H       1  LIG1        0.1424
      9 H           4.2821    1.4308    0.4711 H       1  LIG1        0.1424
     10 S           3.7619    4.2145    0.7729 S.3     1  LIG1       -0.1371
     11 H           3.5304    5.2452   -0.0859 H       1  LIG1        0.1073
     12 C           0.5498    4.9859   -0.3100 C.ar    1  LIG1        0.1934
     13 C           1.0794    6.1247   -0.8521 C.ar    1  LIG1        0.0882
     14 C           0.0487    7.1173   -0.8022 C.ar    1  LIG1        0.0752
     15 C          -1.0364    6.5048   -0.2373 C.ar    1  LIG1        0.1875
     16 O          -0.7426    5.2115    0.0608 O.2     1  LIG1       -0.4455
     17 N           2.3756    6.2844   -1.3802 N.pl3   1  LIG1       -0.3541
     18 H           2.5197    5.7440   -2.2267 H       1  LIG1        0.1425
     19 H           2.5758    7.2611   -1.5684 H       1  LIG1        0.1425
     20 S           0.2007    8.7327   -1.4880 S.3     1  LIG1       -0.1371
     21 H          -0.6047    9.3466   -0.5743 H       1  LIG1        0.1073
     22 C          -2.3466    6.9988    0.0978 C.ar    1  LIG1        0.1935
     23 C          -2.7726    8.2116    0.5664 C.ar    1  LIG1        0.0882
     24 C          -4.1958    8.1198    0.6942 C.ar    1  LIG1        0.0752
     25 C          -4.5286    6.8533    0.2993 C.ar    1  LIG1        0.1875
     26 O          -3.4133    6.1658   -0.0636 O.2     1  LIG1       -0.4455
     27 N          -1.9663    9.3210    0.8875 N.pl3   1  LIG1       -0.3541
     28 H          -2.5316   10.1447    1.0659 H       1  LIG1        0.1425
     29 H          -1.3674    9.1467    1.6882 H       1  LIG1        0.1425
     30 S          -5.2101    9.3891    1.3762 S.3     1  LIG1       -0.1371
     31 H          -6.2974    9.1475    0.5949 H       1  LIG1        0.1073
     32 C          -5.8085    6.2066    0.1728 C.ar    1  LIG1        0.1924
     33 C          -7.0222    6.6722   -0.2472 C.ar    1  LIG1        0.0874
     34 C          -7.9422    5.5794   -0.0965 C.ar    1  LIG1        0.0640
     35 C          -7.2117    4.5406    0.3880 C.ar    1  LIG1        0.1077
     36 O          -5.9256    4.8926    0.5449 O.2     1  LIG1       -0.4568
     37 H          -7.4747    3.5275    0.6484 H       1  LIG1        0.1041
     38 N          -7.3173    7.9573   -0.7231 N.pl3   1  LIG1       -0.3541
     39 H          -6.7572    8.2172   -1.5278 H       1  LIG1        0.1425
     40 H          -8.3037    8.0501   -0.9416 H       1  LIG1        0.1425
     41 S          -9.6760    5.6161   -0.4269 S.3     1  LIG1       -0.1378
     42 H          -9.6290    5.2602   -1.7251 H       1  LIG1        0.1073
@<TRIPOS>BOND
     1    18    17    1
     2    42    41    1
     3    19    17    1
     4    39    38    1
     5    20    14    1
     6    20    21    1
     7    17    13    1
     8    40    38    1
     9    13    14   ar
    10    13    12   ar
    11    14    15   ar
    12    38    33    1
    13    41    34    1
    14    12     4    1
    15    12    16   ar
    16     5     4   ar
    17     5     1   ar
    18    33    34   ar
    19    33    32   ar
    20    15    16   ar
    21    15    22    1
    22     6     1    1
    23    34    35   ar
    24    11    10    1
    25     4     3   ar
    26    26    22   ar
    27    26    25   ar
    28     1     2   ar
    29    22    23   ar
    30    32    25    1
    31    32    36   ar
    32    25    24   ar
    33     3     2   ar
    34     3    10    1
    35     2     7    1
    36     8     7    1
    37    35    36   ar
    38    35    37    1
    39     9     7    1
    40    23    24   ar
    41    23    27    1
    42    31    30    1
    43    24    30    1
    44    27    28    1
    45    27    29    1
