@<TRIPOS>MOLECULE
mol_data/opt/cam/geoms/mol2/12hg12hg12hg.out
 32 34 0 0 0
SMALL
GASTEIGER

@<TRIPOS>ATOM
      1 C           0.5827    1.7391   -1.1333 C.ar    1  LIG1        0.1144
      2 C           1.6918    1.7293   -0.3470 C.ar    1  LIG1        0.0769
      3 C           1.7806    3.0459    0.2215 C.ar    1  LIG1        0.0745
      4 C           0.7219    3.7525   -0.2807 C.ar    1  LIG1        0.1865
      5 O          -0.0111    2.9688   -1.1117 O.2     1  LIG1       -0.4567
      6 H           0.0981    0.9855   -1.7321 H       1  LIG1        0.1049
      7 N           2.5543    0.6816   -0.0382 N.pl3   1  LIG1       -0.3547
      8 H           2.5621   -0.0636   -0.7199 H       1  LIG1        0.1424
      9 H           3.4933    0.9976    0.1696 H       1  LIG1        0.1424
     10 S           2.9949    3.5123    1.4127 S.3     1  LIG1       -0.1371
     11 H           3.1333    4.7993    1.0057 H       1  LIG1        0.1073
     12 C           0.3416    5.1319   -0.1172 C.ar    1  LIG1        0.1934
     13 C           1.0954    6.2711   -0.0617 C.ar    1  LIG1        0.0882
     14 C           0.1885    7.3454    0.2060 C.ar    1  LIG1        0.0752
     15 C          -1.0592    6.7840    0.2435 C.ar    1  LIG1        0.1875
     16 O          -0.9807    5.4448    0.0350 O.2     1  LIG1       -0.4455
     17 N           2.4853    6.3722   -0.2126 N.pl3   1  LIG1       -0.3541
     18 H           2.8201    5.8633   -1.0233 H       1  LIG1        0.1425
     19 H           2.7850    7.3396   -0.2676 H       1  LIG1        0.1425
     20 S           0.6809    9.0141    0.4901 S.3     1  LIG1       -0.1371
     21 H          -0.3691    9.5930   -0.1506 H       1  LIG1        0.1073
     22 C          -2.3598    7.3858    0.3868 C.ar    1  LIG1        0.1924
     23 C          -2.8845    8.5436   -0.1129 C.ar    1  LIG1        0.0874
     24 C          -4.2121    8.6463    0.4258 C.ar    1  LIG1        0.0640
     25 C          -4.3888    7.5394    1.1948 C.ar    1  LIG1        0.1077
     26 O          -3.2944    6.7634    1.1751 O.2     1  LIG1       -0.4568
     27 H          -5.2226    7.1916    1.7842 H       1  LIG1        0.1041
     28 N          -2.2577    9.4548   -0.9733 N.pl3   1  LIG1       -0.3541
     29 H          -1.9384    9.0266   -1.8351 H       1  LIG1        0.1425
     30 H          -2.8622   10.2434   -1.1782 H       1  LIG1        0.1425
     31 S          -5.3474    9.9741    0.1711 S.3     1  LIG1       -0.1378
     32 H          -5.9537    9.4964   -0.9327 H       1  LIG1        0.1073
@<TRIPOS>BOND
     1    29    28    1
     2     6     1    1
     3    30    28    1
     4     1     5   ar
     5     1     2   ar
     6     5     4   ar
     7    18    17    1
     8    28    23    1
     9    32    31    1
    10     8     7    1
    11     2     7    1
    12     2     3   ar
    13     4    12    1
    14     4     3   ar
    15    19    17    1
    16    17    13    1
    17    21    20    1
    18    12    13   ar
    19    12    16   ar
    20    23    22   ar
    21    23    24   ar
    22    13    14   ar
    23     7     9    1
    24    16    15   ar
    25    31    24    1
    26    14    15   ar
    27    14    20    1
    28     3    10    1
    29    15    22    1
    30    22    26   ar
    31    24    25   ar
    32    11    10    1
    33    26    25   ar
    34    25    27    1
