@<TRIPOS>MOLECULE
mol_data/opt/cam/geoms/mol2/12hg12hg-12hg-12hg.out
 42 45 0 0 0
SMALL
GASTEIGER

@<TRIPOS>ATOM
      1 C           1.0516    1.4886   -0.0023 C.ar    1  LIG1        0.1144
      2 C           2.3118    1.8328    0.3742 C.ar    1  LIG1        0.0769
      3 C           2.3468    3.2686    0.3643 C.ar    1  LIG1        0.0745
      4 C           1.1038    3.6779   -0.0341 C.ar    1  LIG1        0.1865
      5 O           0.3076    2.6031   -0.2628 O.2     1  LIG1       -0.4567
      6 H           0.5492    0.5422   -0.1165 H       1  LIG1        0.1049
      7 N           3.3713    1.0258    0.7812 N.pl3   1  LIG1       -0.3547
      8 H           3.3147    0.0735    0.4488 H       1  LIG1        0.1424
      9 H           4.2729    1.4327    0.5655 H       1  LIG1        0.1424
     10 S           3.7451    4.2148    0.8692 S.3     1  LIG1       -0.1371
     11 H           3.5296    5.2491    0.0106 H       1  LIG1        0.1073
     12 C           0.5541    4.9891   -0.2726 C.ar    1  LIG1        0.1934
     13 C           1.0934    6.1306   -0.7992 C.ar    1  LIG1        0.0882
     14 C           0.0613    7.1223   -0.7651 C.ar    1  LIG1        0.0752
     15 C          -1.0343    6.5067   -0.2241 C.ar    1  LIG1        0.1875
     16 O          -0.7454    5.2123    0.0740 O.2     1  LIG1       -0.4455
     17 N           2.3995    6.2933   -1.3014 N.pl3   1  LIG1       -0.3541
     18 H           2.5604    5.7566   -2.1472 H       1  LIG1        0.1425
     19 H           2.6027    7.2710   -1.4814 H       1  LIG1        0.1425
     20 S           0.2254    8.7408   -1.4408 S.3     1  LIG1       -0.1371
     21 H          -0.5980    9.3502   -0.5403 H       1  LIG1        0.1073
     22 C          -2.3511    6.9985    0.0876 C.ar    1  LIG1        0.1935
     23 C          -2.7869    8.2090    0.5531 C.ar    1  LIG1        0.0882
     24 C          -4.2123    8.1158    0.6528 C.ar    1  LIG1        0.0752
     25 C          -4.5365    6.8507    0.2460 C.ar    1  LIG1        0.1875
     26 O          -3.4138    6.1655   -0.0982 O.2     1  LIG1       -0.4455
     27 N          -1.9878    9.3174    0.8946 N.pl3   1  LIG1       -0.3541
     28 H          -2.5569   10.1400    1.0657 H       1  LIG1        0.1425
     29 H          -1.4044    9.1400    1.7060 H       1  LIG1        0.1425
     30 S          -5.2405    9.3815    1.3205 S.3     1  LIG1       -0.1371
     31 H          -6.3122    9.1426    0.5171 H       1  LIG1        0.1073
     32 C          -5.8132    6.2038    0.0918 C.ar    1  LIG1        0.1924
     33 C          -7.0188    6.6707   -0.3497 C.ar    1  LIG1        0.0874
     34 C          -7.9408    5.5766   -0.2218 C.ar    1  LIG1        0.0640
     35 C          -7.2192    4.5361    0.2722 C.ar    1  LIG1        0.1077
     36 O          -5.9366    4.8882    0.4557 O.2     1  LIG1       -0.4568
     37 H          -7.4865    3.5217    0.5230 H       1  LIG1        0.1041
     38 N          -7.3055    7.9577   -0.8257 N.pl3   1  LIG1       -0.3541
     39 H          -6.7301    8.2214   -1.6182 H       1  LIG1        0.1425
     40 H          -8.2876    8.0508   -1.0629 H       1  LIG1        0.1425
     41 S          -9.6679    5.6137   -0.5857 S.3     1  LIG1       -0.1378
     42 H          -9.5955    5.2636   -1.8843 H       1  LIG1        0.1073
@<TRIPOS>BOND
     1    18    17    1
     2    42    41    1
     3    39    38    1
     4    19    17    1
     5    20    14    1
     6    20    21    1
     7    17    13    1
     8    40    38    1
     9    38    33    1
    10    13    14   ar
    11    13    12   ar
    12    14    15   ar
    13    41    34    1
    14    33    34   ar
    15    33    32   ar
    16    12     4    1
    17    12    16   ar
    18     5     4   ar
    19     5     1   ar
    20    15    16   ar
    21    15    22    1
    22    34    35   ar
    23     6     1    1
    24    26    22   ar
    25    26    25   ar
    26     4     3   ar
    27     1     2   ar
    28    11    10    1
    29    22    23   ar
    30    32    25    1
    31    32    36   ar
    32    25    24   ar
    33    35    36   ar
    34    35    37    1
    35     3     2   ar
    36     3    10    1
    37     2     7    1
    38     8     7    1
    39    31    30    1
    40    23    24   ar
    41    23    27    1
    42     9     7    1
    43    24    30    1
    44    27    28    1
    45    27    29    1
