@<TRIPOS>MOLECULE
mol_data/opt/cam/geoms/mol2/12hg12hg12hg-12hg.out
 42 45 0 0 0
SMALL
GASTEIGER

@<TRIPOS>ATOM
      1 C           1.2683    1.9957   -1.9480 C.ar    1  LIG1        0.1144
      2 C           2.1806    1.8372   -0.9526 C.ar    1  LIG1        0.0769
      3 C           2.0465    2.9935   -0.1103 C.ar    1  LIG1        0.0745
      4 C           1.0702    3.7682   -0.6751 C.ar    1  LIG1        0.1865
      5 O           0.5932    3.1735   -1.7982 O.2     1  LIG1       -0.4567
      6 H           0.9815    1.3846   -2.7880 H       1  LIG1        0.1049
      7 N           3.0332    0.7690   -0.6890 N.pl3   1  LIG1       -0.3547
      8 H           3.2462    0.2002   -1.4960 H       1  LIG1        0.1424
      9 H           3.8777    1.0539   -0.2090 H       1  LIG1        0.1424
     10 S           2.9390    3.2100    1.3955 S.3     1  LIG1       -0.1371
     11 H           3.0611    4.5591    1.3163 H       1  LIG1        0.1073
     12 C           0.5612    5.0651   -0.3106 C.ar    1  LIG1        0.1934
     13 C           1.1977    6.1810    0.1574 C.ar    1  LIG1        0.0882
     14 C           0.1765    7.1448    0.4340 C.ar    1  LIG1        0.0752
     15 C          -1.0050    6.5587    0.0647 C.ar    1  LIG1        0.1875
     16 O          -0.7821    5.3027   -0.4012 O.2     1  LIG1       -0.4455
     17 N           2.5757    6.3475    0.3537 N.pl3   1  LIG1       -0.3541
     18 H           3.1158    6.0484   -0.4509 H       1  LIG1        0.1425
     19 H           2.8060    7.3084    0.5827 H       1  LIG1        0.1425
     20 S           0.4722    8.7118    1.1865 S.3     1  LIG1       -0.1371
     21 H          -0.4418    9.4108    0.4636 H       1  LIG1        0.1073
     22 C          -2.3441    7.0838    0.0298 C.ar    1  LIG1        0.1935
     23 C          -2.8136    8.3182   -0.3255 C.ar    1  LIG1        0.0882
     24 C          -4.2220    8.3047   -0.0722 C.ar    1  LIG1        0.0752
     25 C          -4.5116    7.0423    0.3710 C.ar    1  LIG1        0.1875
     26 O          -3.3841    6.2889    0.4229 O.2     1  LIG1       -0.4455
     27 N          -2.0648    9.3936   -0.8242 N.pl3   1  LIG1       -0.3541
     28 H          -1.4651    9.1168   -1.5939 H       1  LIG1        0.1425
     29 H          -2.6629   10.1587   -1.1173 H       1  LIG1        0.1425
     30 S          -5.2788    9.7038   -0.2531 S.3     1  LIG1       -0.1371
     31 H          -6.3520    9.0207   -0.7338 H       1  LIG1        0.1073
     32 C          -5.7712    6.4228    0.6931 C.ar    1  LIG1        0.1924
     33 C          -7.0028    6.5137    0.1098 C.ar    1  LIG1        0.0874
     34 C          -7.8851    5.7137    0.9127 C.ar    1  LIG1        0.0640
     35 C          -7.1163    5.1938    1.9060 C.ar    1  LIG1        0.1077
     36 O          -5.8420    5.5965    1.7854 O.2     1  LIG1       -0.4568
     37 H          -7.3438    4.5375    2.7312 H       1  LIG1        0.1041
     38 N          -7.3443    7.2421   -1.0376 N.pl3   1  LIG1       -0.3541
     39 H          -6.7961    6.9779   -1.8487 H       1  LIG1        0.1425
     40 H          -8.3341    7.1590   -1.2442 H       1  LIG1        0.1425
     41 S          -9.6213    5.5045    0.6707 S.3     1  LIG1       -0.1378
     42 H          -9.5710    4.4330   -0.1437 H       1  LIG1        0.1073
@<TRIPOS>BOND
     1     6     1    1
     2     1     5   ar
     3     1     2   ar
     4    39    38    1
     5     5     4   ar
     6    28    27    1
     7     8     7    1
     8    40    38    1
     9    29    27    1
    10    38    33    1
    11     2     7    1
    12     2     3   ar
    13    27    23    1
    14    31    30    1
    15     7     9    1
    16     4    12    1
    17     4     3   ar
    18    18    17    1
    19    16    12   ar
    20    16    15   ar
    21    23    24   ar
    22    23    22   ar
    23    12    13   ar
    24    30    24    1
    25    42    41    1
    26     3    10    1
    27    24    25   ar
    28    22    15    1
    29    22    26   ar
    30    15    14   ar
    31    33    32   ar
    32    33    34   ar
    33    13    17    1
    34    13    14   ar
    35    17    19    1
    36    25    26   ar
    37    25    32    1
    38    14    20    1
    39    21    20    1
    40    41    34    1
    41    32    36   ar
    42    34    35   ar
    43    11    10    1
    44    36    35   ar
    45    35    37    1
