@<TRIPOS>MOLECULE
mol_data/opt/cam/geoms/mol2/12hg12hg12hg-12hg-.out
 42 45 0 0 0
SMALL
GASTEIGER

@<TRIPOS>ATOM
      1 C           1.0479    1.4851   -0.0429 C.ar    1  LIG1        0.1144
      2 C           2.3097    1.8280    0.3293 C.ar    1  LIG1        0.0769
      3 C           2.3464    3.2638    0.3186 C.ar    1  LIG1        0.0745
      4 C           1.1025    3.6742   -0.0759 C.ar    1  LIG1        0.1865
      5 O           0.3043    2.6002   -0.3014 O.2     1  LIG1       -0.4567
      6 H           0.5441    0.5391   -0.1550 H       1  LIG1        0.1049
      7 N           3.3697    1.0200    0.7332 N.pl3   1  LIG1       -0.3547
      8 H           3.3109    0.0676    0.4015 H       1  LIG1        0.1424
      9 H           4.2711    1.4258    0.5143 H       1  LIG1        0.1424
     10 S           3.7473    4.2086    0.8185 S.3     1  LIG1       -0.1371
     11 H           3.5302    5.2428   -0.0400 H       1  LIG1        0.1073
     12 C           0.5535    4.9859   -0.3132 C.ar    1  LIG1        0.1934
     13 C           1.0924    6.1266   -0.8422 C.ar    1  LIG1        0.0882
     14 C           0.0614    7.1195   -0.8051 C.ar    1  LIG1        0.0752
     15 C          -1.0330    6.5054   -0.2603 C.ar    1  LIG1        0.1875
     16 O          -0.7446    5.2108    0.0375 O.2     1  LIG1       -0.4455
     17 N           2.3969    6.2876   -1.3487 N.pl3   1  LIG1       -0.3541
     18 H           2.5545    5.7504   -2.1948 H       1  LIG1        0.1425
     19 H           2.6007    7.2649   -1.5298 H       1  LIG1        0.1425
     20 S           0.2252    8.7374   -1.4822 S.3     1  LIG1       -0.1371
     21 H          -0.5946    9.3482   -0.5793 H       1  LIG1        0.1073
     22 C          -2.3483    6.9988    0.0555 C.ar    1  LIG1        0.1935
     23 C          -2.7812    8.2099    0.5219 C.ar    1  LIG1        0.0882
     24 C          -4.2063    8.1184    0.6263 C.ar    1  LIG1        0.0752
     25 C          -4.5333    6.8535    0.2212 C.ar    1  LIG1        0.1875
     26 O          -3.4125    6.1669   -0.1263 O.2     1  LIG1       -0.4455
     27 N          -1.9797    9.3177    0.8602 N.pl3   1  LIG1       -0.3541
     28 H          -2.5474   10.1410    1.0328 H       1  LIG1        0.1425
     29 H          -1.3938    9.1400    1.6698 H       1  LIG1        0.1425
     30 S          -5.2310    9.3856    1.2967 S.3     1  LIG1       -0.1371
     31 H          -6.3055    9.1475    0.4970 H       1  LIG1        0.1073
     32 C          -5.8112    6.2080    0.0715 C.ar    1  LIG1        0.1924
     33 C          -7.0178    6.6759   -0.3663 C.ar    1  LIG1        0.0874
     34 C          -7.9406    5.5829   -0.2348 C.ar    1  LIG1        0.0640
     35 C          -7.2185    4.5419    0.2574 C.ar    1  LIG1        0.1077
     36 O          -5.9349    4.8926    0.4364 O.2     1  LIG1       -0.4568
     37 H          -7.4861    3.5279    0.5095 H       1  LIG1        0.1041
     38 N          -7.3046    7.9630   -0.8419 N.pl3   1  LIG1       -0.3541
     39 H          -6.7315    8.2258   -1.6364 H       1  LIG1        0.1425
     40 H          -8.2873    8.0572   -1.0759 H       1  LIG1        0.1425
     41 S          -9.6688    5.6218   -0.5931 S.3     1  LIG1       -0.1378
     42 H          -9.6010    5.2710   -1.8917 H       1  LIG1        0.1073
@<TRIPOS>BOND
     1    18    17    1
     2    42    41    1
     3    39    38    1
     4    19    17    1
     5    20    14    1
     6    20    21    1
     7    17    13    1
     8    40    38    1
     9    13    14   ar
    10    13    12   ar
    11    38    33    1
    12    14    15   ar
    13    41    34    1
    14    33    34   ar
    15    33    32   ar
    16    12     4    1
    17    12    16   ar
    18     5     4   ar
    19     5     1   ar
    20    15    16   ar
    21    15    22    1
    22    34    35   ar
    23     6     1    1
    24    26    22   ar
    25    26    25   ar
    26     4     3   ar
    27     1     2   ar
    28    11    10    1
    29    22    23   ar
    30    32    25    1
    31    32    36   ar
    32    25    24   ar
    33    35    36   ar
    34    35    37    1
    35     3     2   ar
    36     3    10    1
    37     2     7    1
    38     8     7    1
    39    31    30    1
    40     9     7    1
    41    23    24   ar
    42    23    27    1
    43    24    30    1
    44    27    28    1
    45    27    29    1
