@<TRIPOS>MOLECULE
mol_data/opt/cam/geoms/mol2/12hg12hg-12hg-.out
 32 34 0 0 0
SMALL
GASTEIGER

@<TRIPOS>ATOM
      1 C           0.5792    1.7440   -1.1373 C.ar    1  LIG1        0.1144
      2 C           1.6934    1.7324   -0.3583 C.ar    1  LIG1        0.0769
      3 C           1.7849    3.0471    0.2142 C.ar    1  LIG1        0.0745
      4 C           0.7223    3.7545   -0.2784 C.ar    1  LIG1        0.1865
      5 O          -0.0154    2.9731   -1.1073 O.2     1  LIG1       -0.4567
      6 H           0.0913    0.9922   -1.7356 H       1  LIG1        0.1049
      7 N           2.5588    0.6842   -0.0588 N.pl3   1  LIG1       -0.3547
      8 H           2.5628   -0.0584   -0.7435 H       1  LIG1        0.1424
      9 H           3.4989    1.0003    0.1438 H       1  LIG1        0.1424
     10 S           3.0067    3.5101    1.3990 S.3     1  LIG1       -0.1371
     11 H           3.1407    4.7989    0.9965 H       1  LIG1        0.1073
     12 C           0.3418    5.1329   -0.1074 C.ar    1  LIG1        0.1934
     13 C           1.0950    6.2726   -0.0523 C.ar    1  LIG1        0.0882
     14 C           0.1887    7.3450    0.2254 C.ar    1  LIG1        0.0752
     15 C          -1.0582    6.7823    0.2686 C.ar    1  LIG1        0.1875
     16 O          -0.9798    5.4440    0.0543 O.2     1  LIG1       -0.4455
     17 N           2.4837    6.3756   -0.2115 N.pl3   1  LIG1       -0.3541
     18 H           2.8139    5.8701   -1.0263 H       1  LIG1        0.1425
     19 H           2.7822    7.3435   -0.2648 H       1  LIG1        0.1425
     20 S           0.6816    9.0130    0.5130 S.3     1  LIG1       -0.1371
     21 H          -0.3732    9.5935   -0.1183 H       1  LIG1        0.1073
     22 C          -2.3585    7.3823    0.4223 C.ar    1  LIG1        0.1924
     23 C          -2.8873    8.5418   -0.0691 C.ar    1  LIG1        0.0874
     24 C          -4.2116    8.6409    0.4784 C.ar    1  LIG1        0.0640
     25 C          -4.3824    7.5308    1.2440 C.ar    1  LIG1        0.1077
     26 O          -3.2875    6.7557    1.2138 O.2     1  LIG1       -0.4568
     27 H          -5.2121    7.1798    1.8372 H       1  LIG1        0.1041
     28 N          -2.2667    9.4573   -0.9295 N.pl3   1  LIG1       -0.3541
     29 H          -1.9523    9.0330   -1.7951 H       1  LIG1        0.1425
     30 H          -2.8732   10.2460   -1.1274 H       1  LIG1        0.1425
     31 S          -5.3497    9.9687    0.2361 S.3     1  LIG1       -0.1378
     32 H          -5.9626    9.4950   -0.8658 H       1  LIG1        0.1073
@<TRIPOS>BOND
     1    29    28    1
     2     6     1    1
     3     1     5   ar
     4     1     2   ar
     5    30    28    1
     6     5     4   ar
     7    18    17    1
     8    28    23    1
     9    32    31    1
    10     8     7    1
    11     2     7    1
    12     2     3   ar
    13     4    12    1
    14     4     3   ar
    15    19    17    1
    16    17    13    1
    17    21    20    1
    18    12    13   ar
    19    12    16   ar
    20    23    22   ar
    21    23    24   ar
    22     7     9    1
    23    13    14   ar
    24    16    15   ar
    25     3    10    1
    26    14    15   ar
    27    14    20    1
    28    31    24    1
    29    15    22    1
    30    22    26   ar
    31    24    25   ar
    32    11    10    1
    33    26    25   ar
    34    25    27    1
