@<TRIPOS>MOLECULE
mol_data/opt/cam/geoms/mol2/12hg12hg12hg12hg.out
 42 45 0 0 0
SMALL
GASTEIGER

@<TRIPOS>ATOM
      1 C           1.0508    1.4879   -0.0063 C.ar    1  LIG1        0.1144
      2 C           2.3130    1.8342    0.3615 C.ar    1  LIG1        0.0769
      3 C           2.3485    3.2699    0.3413 C.ar    1  LIG1        0.0745
      4 C           1.1037    3.6768   -0.0538 C.ar    1  LIG1        0.1865
      5 O           0.3060    2.6008   -0.2710 O.2     1  LIG1       -0.4567
      6 H           0.5476    0.5409   -0.1114 H       1  LIG1        0.1049
      7 N           3.3743    1.0297    0.7689 N.pl3   1  LIG1       -0.3547
      8 H           3.3157    0.0751    0.4436 H       1  LIG1        0.1424
      9 H           4.2750    1.4348    0.5459 H       1  LIG1        0.1424
     10 S           3.7496    4.2191    0.8326 S.3     1  LIG1       -0.1371
     11 H           3.5303    5.2474   -0.0322 H       1  LIG1        0.1073
     12 C           0.5533    4.9866   -0.2988 C.ar    1  LIG1        0.1934
     13 C           1.0904    6.1241   -0.8362 C.ar    1  LIG1        0.0882
     14 C           0.0588    7.1165   -0.8039 C.ar    1  LIG1        0.0752
     15 C          -1.0343    6.5052   -0.2532 C.ar    1  LIG1        0.1875
     16 O          -0.7444    5.2127    0.0526 O.2     1  LIG1       -0.4455
     17 N           2.3940    6.2828   -1.3459 N.pl3   1  LIG1       -0.3541
     18 H           2.5506    5.7401   -2.1888 H       1  LIG1        0.1425
     19 H           2.5967    7.2590   -1.5338 H       1  LIG1        0.1425
     20 S           0.2202    8.7300   -1.4919 S.3     1  LIG1       -0.1371
     21 H          -0.5985    9.3461   -0.5916 H       1  LIG1        0.1073
     22 C          -2.3493    6.9996    0.0616 C.ar    1  LIG1        0.1935
     23 C          -2.7824    8.2135    0.5207 C.ar    1  LIG1        0.0882
     24 C          -4.2073    8.1216    0.6281 C.ar    1  LIG1        0.0752
     25 C          -4.5340    6.8539    0.2318 C.ar    1  LIG1        0.1875
     26 O          -3.4133    6.1658   -0.1130 O.2     1  LIG1       -0.4455
     27 N          -1.9812    9.3241    0.8504 N.pl3   1  LIG1       -0.3541
     28 H          -2.5491   10.1481    1.0184 H       1  LIG1        0.1425
     29 H          -1.3938    9.1521    1.6601 H       1  LIG1        0.1425
     30 S          -5.2317    9.3925    1.2919 S.3     1  LIG1       -0.1371
     31 H          -6.3075    9.1483    0.4956 H       1  LIG1        0.1073
     32 C          -5.8117    6.2064    0.0885 C.ar    1  LIG1        0.1924
     33 C          -7.0193    6.6706   -0.3503 C.ar    1  LIG1        0.0874
     34 C          -7.9411    5.5778   -0.2101 C.ar    1  LIG1        0.0640
     35 C          -7.2174    4.5405    0.2877 C.ar    1  LIG1        0.1077
     36 O          -5.9338    4.8934    0.4623 O.2     1  LIG1       -0.4568
     37 H          -7.4838    3.5280    0.5469 H       1  LIG1        0.1041
     38 N          -7.3079    7.9544   -0.8339 N.pl3   1  LIG1       -0.3541
     39 H          -6.7363    8.2123   -1.6311 H       1  LIG1        0.1425
     40 H          -8.2911    8.0462   -1.0668 H       1  LIG1        0.1425
     41 S          -9.6699    5.6131   -0.5657 S.3     1  LIG1       -0.1378
     42 H          -9.6040    5.2538   -1.8621 H       1  LIG1        0.1073
@<TRIPOS>BOND
     1    18    17    1
     2    42    41    1
     3    39    38    1
     4    19    17    1
     5    20    14    1
     6    20    21    1
     7    17    13    1
     8    40    38    1
     9    13    14   ar
    10    13    12   ar
    11    38    33    1
    12    14    15   ar
    13    41    34    1
    14    33    34   ar
    15    33    32   ar
    16    12     4    1
    17    12    16   ar
    18     5     4   ar
    19     5     1   ar
    20    15    16   ar
    21    15    22    1
    22    34    35   ar
    23    26    22   ar
    24    26    25   ar
    25     6     1    1
    26     4     3   ar
    27    11    10    1
    28     1     2   ar
    29    22    23   ar
    30    32    25    1
    31    32    36   ar
    32    25    24   ar
    33    35    36   ar
    34    35    37    1
    35     3     2   ar
    36     3    10    1
    37     2     7    1
    38     8     7    1
    39    31    30    1
    40    23    24   ar
    41    23    27    1
    42     9     7    1
    43    24    30    1
    44    27    28    1
    45    27    29    1
