@<TRIPOS>MOLECULE
mol_data/opt/cam/geoms/mol2/12hh12hh-12hh12hh-.out
 46 49 0 0 0
SMALL
GASTEIGER

@<TRIPOS>ATOM
      1 C           0.0643    1.7440   -0.0028 C.ar    1  LIG1        0.1152
      2 C           1.4064    1.7447    0.2007 C.ar    1  LIG1        0.0846
      3 C           1.8255    3.1190    0.1288 C.ar    1  LIG1        0.0951
      4 C           0.6947    3.8486   -0.1098 C.ar    1  LIG1        0.1939
      5 O          -0.3875    3.0228   -0.1952 O.2     1  LIG1       -0.4560
      6 H          -0.6797    0.9656   -0.0267 H       1  LIG1        0.1049
      7 N           2.2559    0.6758    0.4957 N.pl3   1  LIG1       -0.3541
      8 H           2.2391   -0.0820   -0.1716 H       1  LIG1        0.1425
      9 H           3.1999    0.9890    0.6788 H       1  LIG1        0.1425
     10 N           3.1499    3.5386    0.3490 N.pl3   1  LIG1       -0.3535
     11 H           3.7676    3.2712   -0.4105 H       1  LIG1        0.1425
     12 H           3.2197    4.5400    0.4931 H       1  LIG1        0.1425
     13 C           0.4629    5.2570   -0.2462 C.ar    1  LIG1        0.1950
     14 C          -0.6645    6.0255   -0.3381 C.ar    1  LIG1        0.0959
     15 C          -0.2247    7.3882   -0.3860 C.ar    1  LIG1        0.0959
     16 C           1.1418    7.3538   -0.3289 C.ar    1  LIG1        0.1950
     17 O           1.5710    6.0546   -0.2466 O.2     1  LIG1       -0.4447
     18 N          -2.0181    5.6369   -0.3346 N.pl3   1  LIG1       -0.3535
     19 H          -2.4428    5.7543   -1.2497 H       1  LIG1        0.1425
     20 H          -2.1126    4.6631   -0.0694 H       1  LIG1        0.1425
     21 N          -1.0603    8.5056   -0.4183 N.pl3   1  LIG1       -0.3535
     22 H          -0.7983    9.2028   -1.1009 H       1  LIG1        0.1425
     23 H          -2.0364    8.2511   -0.4831 H       1  LIG1        0.1425
     24 C           2.1487    8.3655   -0.3289 C.ar    1  LIG1        0.1950
     25 C           3.5152    8.3310   -0.3860 C.ar    1  LIG1        0.0959
     26 C           3.9550    9.6938   -0.3382 C.ar    1  LIG1        0.0959
     27 C           2.8276   10.4623   -0.2463 C.ar    1  LIG1        0.1950
     28 O           1.7195    9.6647   -0.2467 O.2     1  LIG1       -0.4447
     29 N           4.3508    7.2137   -0.4183 N.pl3   1  LIG1       -0.3535
     30 H           4.0888    6.5165   -1.1009 H       1  LIG1        0.1425
     31 H           5.3269    7.4682   -0.4832 H       1  LIG1        0.1425
     32 N           5.3086   10.0824   -0.3347 N.pl3   1  LIG1       -0.3535
     33 H           5.7333    9.9650   -1.2498 H       1  LIG1        0.1425
     34 H           5.4031   11.0562   -0.0694 H       1  LIG1        0.1425
     35 C           2.5958   11.8707   -0.1099 C.ar    1  LIG1        0.1939
     36 C           1.4650   12.6003    0.1286 C.ar    1  LIG1        0.0951
     37 C           1.8841   13.9746    0.2005 C.ar    1  LIG1        0.0846
     38 C           3.2261   13.9753   -0.0030 C.ar    1  LIG1        0.1152
     39 O           3.6780   12.6964   -0.1954 O.2     1  LIG1       -0.4560
     40 H           3.9702   14.7537   -0.0268 H       1  LIG1        0.1049
     41 N           0.1406   12.1807    0.3487 N.pl3   1  LIG1       -0.3535
     42 H          -0.4771   12.4481   -0.4108 H       1  LIG1        0.1425
     43 H           0.0707   11.1793    0.4928 H       1  LIG1        0.1425
     44 N           1.0345   15.0435    0.4955 N.pl3   1  LIG1       -0.3541
     45 H           1.0514   15.8013   -0.1718 H       1  LIG1        0.1425
     46 H           0.0906   14.7303    0.6786 H       1  LIG1        0.1425
@<TRIPOS>BOND
     1    33    32    1
     2    19    18    1
     3    30    29    1
     4    22    21    1
     5    31    29    1
     6    23    21    1
     7    29    25    1
     8    21    15    1
     9    42    41    1
    10    11    10    1
    11    25    26   ar
    12    25    24   ar
    13    15    14   ar
    14    15    16   ar
    15    26    32    1
    16    26    27   ar
    17    14    18    1
    18    14    13   ar
    19    32    34    1
    20    18    20    1
    21    24    16    1
    22    24    28   ar
    23    16    17   ar
    24    28    27   ar
    25    17    13   ar
    26    27    35    1
    27    13     4    1
    28    39    35   ar
    29    39    38   ar
    30     5     4   ar
    31     5     1   ar
    32    45    44    1
    33     8     7    1
    34    35    36   ar
    35     4     3   ar
    36    40    38    1
    37     6     1    1
    38    38    37   ar
    39     1     2   ar
    40    36    37   ar
    41    36    41    1
    42     3     2   ar
    43     3    10    1
    44    37    44    1
    45     2     7    1
    46    41    43    1
    47    10    12    1
    48    44    46    1
    49     7     9    1
