@<TRIPOS>MOLECULE
mol_data/opt/cam/geoms/mol2/12hh12hh-12hh.out
 35 37 0 0 0
SMALL
GASTEIGER

@<TRIPOS>ATOM
      1 C           0.2118    1.7629   -0.4500 C.ar    1  LIG1        0.1152
      2 C           1.5351    1.7758   -0.1474 C.ar    1  LIG1        0.0846
      3 C           1.8928    3.1496    0.0525 C.ar    1  LIG1        0.0951
      4 C           0.7556    3.8736   -0.1583 C.ar    1  LIG1        0.1939
      5 O          -0.2840    3.0376   -0.4609 O.2     1  LIG1       -0.4560
      6 H          -0.4923    0.9725   -0.6523 H       1  LIG1        0.1049
      7 N           2.4455    0.7252    0.0421 N.pl3   1  LIG1       -0.3541
      8 H           2.0491   -0.1833   -0.1607 H       1  LIG1        0.1425
      9 H           3.2852    0.8567   -0.5115 H       1  LIG1        0.1425
     10 N           3.1862    3.5888    0.3676 N.pl3   1  LIG1       -0.3535
     11 H           3.1805    4.5401    0.7146 H       1  LIG1        0.1425
     12 H           3.6185    2.9744    1.0497 H       1  LIG1        0.1425
     13 C           0.4941    5.2803   -0.1284 C.ar    1  LIG1        0.1950
     14 C          -0.6499    6.0268   -0.0978 C.ar    1  LIG1        0.0959
     15 C          -0.2354    7.4004   -0.0917 C.ar    1  LIG1        0.0959
     16 C           1.1307    7.3947   -0.0962 C.ar    1  LIG1        0.1950
     17 O           1.5947    6.1095   -0.1106 O.2     1  LIG1       -0.4447
     18 N          -1.9583    5.5838   -0.0101 N.pl3   1  LIG1       -0.3535
     19 H          -2.6571    6.2838   -0.2027 H       1  LIG1        0.1425
     20 H          -2.1406    4.6837   -0.4270 H       1  LIG1        0.1425
     21 N          -1.1211    8.4933   -0.0427 N.pl3   1  LIG1       -0.3535
     22 H          -0.6217    9.3537    0.1506 H       1  LIG1        0.1425
     23 H          -1.6277    8.6064   -0.9155 H       1  LIG1        0.1425
     24 C           2.1207    8.4323   -0.0921 C.ar    1  LIG1        0.1939
     25 C           3.4705    8.4188   -0.3001 C.ar    1  LIG1        0.0951
     26 C           3.9055    9.7827   -0.1938 C.ar    1  LIG1        0.0846
     27 C           2.7976   10.5208    0.0684 C.ar    1  LIG1        0.1152
     28 O           1.6936    9.7106    0.1317 O.2     1  LIG1       -0.4560
     29 H           2.6287   11.5717    0.2351 H       1  LIG1        0.1049
     30 N           4.3281    7.3685   -0.6530 N.pl3   1  LIG1       -0.3535
     31 H           5.1026    7.2701   -0.0058 H       1  LIG1        0.1425
     32 H           3.8447    6.4851   -0.7581 H       1  LIG1        0.1425
     33 N           5.2488   10.1480   -0.3097 N.pl3   1  LIG1       -0.3541
     34 H           5.7049    9.6227   -1.0476 H       1  LIG1        0.1425
     35 H           5.3895   11.1396   -0.4481 H       1  LIG1        0.1425
@<TRIPOS>BOND
     1    34    33    1
     2    23    21    1
     3    32    30    1
     4    30    25    1
     5    30    31    1
     6     6     1    1
     7     9     7    1
     8     5     1   ar
     9     5     4   ar
    10     1     2   ar
    11    35    33    1
    12    20    18    1
    13    33    26    1
    14    25    26   ar
    15    25    24   ar
    16    19    18    1
    17    26    27   ar
    18     8     7    1
    19     4    13    1
    20     4     3   ar
    21     2     7    1
    22     2     3   ar
    23    13    17   ar
    24    13    14   ar
    25    17    16   ar
    26    14    15   ar
    27    14    18    1
    28    16    24    1
    29    16    15   ar
    30    24    28   ar
    31    15    21    1
    32    21    22    1
    33     3    10    1
    34    27    28   ar
    35    27    29    1
    36    10    11    1
    37    10    12    1
