@<TRIPOS>MOLECULE
mol_data/opt/cam/geoms/mol2/12hh12hh-.out
 24 25 0 0 0
SMALL
GASTEIGER

@<TRIPOS>ATOM
      1 C           0.1284    1.8166   -0.0212 C.ar    1  LIG1        0.1152
      2 C           1.4851    1.7821   -0.0522 C.ar    1  LIG1        0.0846
      3 C           1.9213    3.1519   -0.0911 C.ar    1  LIG1        0.0951
      4 C           0.7897    3.9147   -0.0691 C.ar    1  LIG1        0.1939
      5 O          -0.3128    3.1142   -0.0292 O.2     1  LIG1       -0.4560
      6 H          -0.6312    1.0543    0.0225 H       1  LIG1        0.1049
      7 N           2.3461    0.6848    0.0060 N.pl3   1  LIG1       -0.3541
      8 H           2.1696   -0.0363   -0.6784 H       1  LIG1        0.1425
      9 H           3.3162    0.9696    0.0066 H       1  LIG1        0.1425
     10 N           3.2754    3.5405   -0.0964 N.pl3   1  LIG1       -0.3535
     11 H           3.7109    3.3666   -0.9973 H       1  LIG1        0.1425
     12 H           3.3688    4.5274    0.1141 H       1  LIG1        0.1425
     13 C           0.5685    5.3353   -0.0691 C.ar    1  LIG1        0.1939
     14 C          -0.5631    6.0981   -0.0912 C.ar    1  LIG1        0.0951
     15 C          -0.1268    7.4679   -0.0523 C.ar    1  LIG1        0.0846
     16 C           1.2298    7.4334   -0.0214 C.ar    1  LIG1        0.1152
     17 O           1.6710    6.1358   -0.0293 O.2     1  LIG1       -0.4560
     18 H           1.9894    8.1957    0.0223 H       1  LIG1        0.1049
     19 N          -1.9172    5.7095   -0.0965 N.pl3   1  LIG1       -0.3535
     20 H          -2.3526    5.8833   -0.9975 H       1  LIG1        0.1425
     21 H          -2.0106    4.7226    0.1140 H       1  LIG1        0.1425
     22 N          -0.9878    8.5651    0.0059 N.pl3   1  LIG1       -0.3541
     23 H          -0.8114    9.2862   -0.6785 H       1  LIG1        0.1425
     24 H          -1.9580    8.2804    0.0065 H       1  LIG1        0.1425
@<TRIPOS>BOND
     1    20    19    1
     2    11    10    1
     3    23    22    1
     4     8     7    1
     5    19    14    1
     6    19    21    1
     7    10     3    1
     8    10    12    1
     9    14    13   ar
    10    14    15   ar
    11     3     4   ar
    12     3     2   ar
    13    13     4    1
    14    13    17   ar
    15     4     5   ar
    16    15    16   ar
    17    15    22    1
    18     2     1   ar
    19     2     7    1
    20    17    16   ar
    21     5     1   ar
    22    16    18    1
    23     1     6    1
    24    22    24    1
    25     7     9    1
