@<TRIPOS>MOLECULE
mol_data/opt/cam/geoms/mol2/12hh12hh12hh-12hh.out
 46 49 0 0 0
SMALL
GASTEIGER

@<TRIPOS>ATOM
      1 C           0.3830    1.7249   -0.9972 C.ar    1  LIG1        0.1152
      2 C           1.6437    1.7186   -0.4948 C.ar    1  LIG1        0.0846
      3 C           1.9384    3.0727   -0.1229 C.ar    1  LIG1        0.0951
      4 C           0.8240    3.8019   -0.4401 C.ar    1  LIG1        0.1939
      5 O          -0.1338    2.9835   -0.9818 O.2     1  LIG1       -0.4560
      6 H          -0.2534    0.9500   -1.3937 H       1  LIG1        0.1049
      7 N           2.5796    0.6813   -0.3558 N.pl3   1  LIG1       -0.3541
      8 H           2.9415    0.6409    0.5915 H       1  LIG1        0.1425
      9 H           2.2030   -0.2239   -0.6065 H       1  LIG1        0.1425
     10 N           3.1132    3.4596    0.5107 N.pl3   1  LIG1       -0.3535
     11 H           3.9192    2.9770    0.1304 H       1  LIG1        0.1425
     12 H           3.2431    4.4717    0.5138 H       1  LIG1        0.1425
     13 C           0.5155    5.1979   -0.3034 C.ar    1  LIG1        0.1950
     14 C           1.2861    6.3169   -0.1586 C.ar    1  LIG1        0.0959
     15 C           0.3918    7.4236    0.0049 C.ar    1  LIG1        0.0959
     16 C          -0.8718    6.9073   -0.0729 C.ar    1  LIG1        0.1950
     17 O          -0.8043    5.5549   -0.2602 O.2     1  LIG1       -0.4447
     18 N           2.7009    6.3886   -0.1283 N.pl3   1  LIG1       -0.3535
     19 H           3.0976    6.4011   -1.0636 H       1  LIG1        0.1425
     20 H           2.9725    7.2498    0.3389 H       1  LIG1        0.1425
     21 N           0.8245    8.7415    0.2699 N.pl3   1  LIG1       -0.3535
     22 H           1.1244    9.2274   -0.5695 H       1  LIG1        0.1425
     23 H           0.0993    9.2902    0.7169 H       1  LIG1        0.1425
     24 C          -2.1867    7.4603    0.0132 C.ar    1  LIG1        0.1950
     25 C          -3.4185    6.8774    0.1447 C.ar    1  LIG1        0.0959
     26 C          -4.3708    7.9498    0.1658 C.ar    1  LIG1        0.0959
     27 C          -3.6535    9.1084    0.0684 C.ar    1  LIG1        0.1950
     28 O          -2.3171    8.8331   -0.0169 O.2     1  LIG1       -0.4447
     29 N          -3.7188    5.5435    0.2998 N.pl3   1  LIG1       -0.3535
     30 H          -4.6894    5.2922    0.2163 H       1  LIG1        0.1425
     31 H          -3.0510    4.8798   -0.0599 H       1  LIG1        0.1425
     32 N          -5.7585    7.7691    0.3111 N.pl3   1  LIG1       -0.3535
     33 H          -6.2229    8.6487    0.5031 H       1  LIG1        0.1425
     34 H          -6.1753    7.3573   -0.5181 H       1  LIG1        0.1425
     35 C          -4.0255   10.4929    0.0333 C.ar    1  LIG1        0.1939
     36 C          -3.3259   11.6246   -0.2745 C.ar    1  LIG1        0.0951
     37 C          -4.2428   12.7201   -0.1175 C.ar    1  LIG1        0.0846
     38 C          -5.4268   12.1716    0.2577 C.ar    1  LIG1        0.1152
     39 O          -5.3149   10.8141    0.3524 O.2     1  LIG1       -0.4560
     40 H          -6.3907   12.5921    0.4913 H       1  LIG1        0.1049
     41 N          -1.9758   11.7642   -0.6332 N.pl3   1  LIG1       -0.3535
     42 H          -1.5175   10.8624   -0.6839 H       1  LIG1        0.1425
     43 H          -1.8708   12.2422   -1.5221 H       1  LIG1        0.1425
     44 N          -3.9261   14.0753   -0.2882 N.pl3   1  LIG1       -0.3541
     45 H          -2.9304   14.2218   -0.3868 H       1  LIG1        0.1425
     46 H          -4.4325   14.5350   -1.0324 H       1  LIG1        0.1425
@<TRIPOS>BOND
     1    43    41    1
     2     6     1    1
     3    19    18    1
     4    46    44    1
     5     1     5   ar
     6     1     2   ar
     7     5     4   ar
     8    42    41    1
     9    41    36    1
    10     9     7    1
    11    22    21    1
    12    34    32    1
    13     2     7    1
    14     2     3   ar
    15     4    13    1
    16     4     3   ar
    17    45    44    1
    18     7     8    1
    19    13    17   ar
    20    13    14   ar
    21    44    37    1
    22    36    37   ar
    23    36    35   ar
    24    17    16   ar
    25    14    18    1
    26    14    15   ar
    27    18    20    1
    28     3    10    1
    29    37    38   ar
    30    16    15   ar
    31    16    24    1
    32    31    29    1
    33    28    24   ar
    34    28    27   ar
    35    15    21    1
    36    24    25   ar
    37    35    27    1
    38    35    39   ar
    39    27    26   ar
    40    11    10    1
    41    25    26   ar
    42    25    29    1
    43    26    32    1
    44    30    29    1
    45    38    39   ar
    46    38    40    1
    47    21    23    1
    48    32    33    1
    49    10    12    1
