@<TRIPOS>MOLECULE
mol_data/opt/cam/geoms/mol2/12hh6aa4ia-4ll-.out
 49 52 0 0 0
SMALL
GASTEIGER

@<TRIPOS>ATOM
      1 C           1.5807    5.8317   -4.7617 C.ar    1  LIG1        0.1145
      2 C           2.8979    5.7032   -4.4363 C.ar    1  LIG1        0.0811
      3 C           2.9520    5.8466   -2.9963 C.ar    1  LIG1        0.1180
      4 C           1.6505    6.0378   -2.5466 C.ar    1  LIG1        0.1558
      5 O           0.8289    6.0298   -3.6245 O.2     1  LIG1       -0.4597
      6 H           1.0353    5.7858   -5.6895 H       1  LIG1        0.1049
      7 N           3.9919    5.4267   -5.2452 N.pl3   1  LIG1       -0.3545
      8 H           3.8894    5.7124   -6.2094 H       1  LIG1        0.1424
      9 H           4.8778    5.7301   -4.8610 H       1  LIG1        0.1424
     10 N           5.1750    5.8986   -1.6901 N.1     1  LIG1       -0.1907
     11 C           4.1577    5.8841   -2.2614 C.1     1  LIG1        0.1048
     12 C           1.4165    5.7106   -0.0322 C.ar    1  LIG1        0.0362
     13 C           0.6555    6.0123    1.1132 C.ar    1  LIG1       -0.0291
     14 C           1.0086    6.2897   -1.2593 C.ar    1  LIG1        0.0427
     15 C          -0.4653    6.8371    1.1013 C.ar    1  LIG1        0.0268
     16 H           0.9514    5.5529    2.0510 H       1  LIG1        0.0643
     17 C          -0.1311    7.1262   -1.2774 C.ar    1  LIG1       -0.0069
     18 C          -0.8642    7.4050   -0.1350 C.ar    1  LIG1        0.1286
     19 H          -0.4167    7.5596   -2.2259 H       1  LIG1        0.0662
     20 N           2.4428    4.7805    0.0869 N.pl3   1  LIG1       -0.3574
     21 H           3.2463    4.8844   -0.5152 H       1  LIG1        0.1423
     22 H           2.7319    4.6143    1.0414 H       1  LIG1        0.1423
     23 O          -1.9570    8.2306   -0.1086 O.3     1  LIG1       -0.4945
     24 C          -2.3471    8.8686   -1.3137 C.3     1  LIG1        0.0788
     25 H          -3.2118    9.4834   -1.0603 H       1  LIG1        0.0660
     26 H          -1.5486    9.5110   -1.7063 H       1  LIG1        0.0660
     27 H          -2.6338    8.1418   -2.0847 H       1  LIG1        0.0660
     28 C          -0.5772    7.4773    3.5613 C.ar    1  LIG1        0.0603
     29 C          -1.3215    7.6754    4.7304 C.ar    1  LIG1       -0.0319
     30 C          -1.2175    7.0946    2.3563 C.ar    1  LIG1        0.0042
     31 C          -2.7082    7.4924    4.7722 C.ar    1  LIG1        0.0340
     32 H          -0.8043    8.0072    5.6232 H       1  LIG1        0.0638
     33 C          -2.6038    6.9305    2.3999 C.ar    1  LIG1       -0.0366
     34 C          -3.3622    7.1070    3.5692 C.ar    1  LIG1        0.0360
     35 H          -3.1240    6.6388    1.4969 H       1  LIG1        0.0636
     36 N           1.9735    7.9355    3.7453 N.1     1  LIG1       -0.1908
     37 C           0.8346    7.7252    3.6320 C.1     1  LIG1        0.0998
     38 C          -4.7629    6.8398    3.4854 C.1     1  LIG1       -0.0689
     39 C          -5.9332    6.5755    3.3293 C.1     1  LIG1       -0.1139
     40 H          -6.9694    6.3526    3.2223 H       1  LIG1        0.1232
     41 C          -3.3892    7.6956    6.0462 C.ar    1  LIG1        0.1396
     42 C          -2.9393    7.5962    7.3403 C.ar    1  LIG1        0.0258
     43 C          -4.0450    7.9357    8.1734 C.ar    1  LIG1        0.1550
     44 C          -5.0939    8.2198    7.3416 C.ar    1  LIG1        0.1338
     45 O          -4.6987    8.0744    6.0402 O.2     1  LIG1       -0.4592
     46 H          -6.1163    8.5217    7.5032 H       1  LIG1        0.1068
     47 H          -1.9590    7.2919    7.6744 H       1  LIG1        0.0692
     48 O          -3.9762    7.9415    9.5322 O.3     1  LIG1       -0.5036
     49 H          -4.8384    8.1825    9.8948 H       1  LIG1        0.2923
@<TRIPOS>BOND
     1     8     7    1
     2     6     1    1
     3     7     9    1
     4     7     2    1
     5     1     2   ar
     6     1     5   ar
     7     2     3   ar
     8     5     4   ar
     9     3     4   ar
    10     3    11    1
    11     4    14    1
    12    11    10    3
    13    19    17    1
    14    27    24    1
    15    26    24    1
    16    24    25    1
    17    24    23    1
    18    17    14   ar
    19    17    18   ar
    20    14    12   ar
    21    21    20    1
    22    18    23    1
    23    18    15   ar
    24    12    20    1
    25    12    13   ar
    26    20    22    1
    27    15    13   ar
    28    15    30    1
    29    13    16    1
    30    35    33    1
    31    30    33   ar
    32    30    28   ar
    33    33    34   ar
    34    40    39    1
    35    39    38    3
    36    38    34    1
    37    28    37    1
    38    28    29   ar
    39    34    31   ar
    40    37    36    3
    41    29    31   ar
    42    29    32    1
    43    31    41    1
    44    45    41   ar
    45    45    44   ar
    46    41    42   ar
    47    42    47    1
    48    42    43   ar
    49    44    46    1
    50    44    43   ar
    51    43    48    1
    52    48    49    1
