@<TRIPOS>MOLECULE
mol_data/opt/cam/geoms/mol2/12hh6ae13da-4fh-12ha4hi-13fa-6lh.out
 94 101 0 0 0
SMALL
GASTEIGER

@<TRIPOS>ATOM
      1 C           0.8377    1.9612   -1.1462 C.ar    1  LIG1        0.1150
      2 C           2.1775    1.9200   -0.9330 C.ar    1  LIG1        0.0845
      3 C           2.5680    3.2567   -0.5893 C.ar    1  LIG1        0.0920
      4 C           1.4252    4.0097   -0.6017 C.ar    1  LIG1        0.1587
      5 O           0.3643    3.2171   -0.9668 O.2     1  LIG1       -0.4591
      6 H           0.1179    1.2125   -1.4374 H       1  LIG1        0.1049
      7 N           3.1115    0.8747   -1.0684 N.pl3   1  LIG1       -0.3541
      8 H           3.4846    0.5801   -0.1716 H       1  LIG1        0.1425
      9 H           2.7274    0.0675   -1.5430 H       1  LIG1        0.1425
     10 N           3.8834    3.6108   -0.3075 N.pl3   1  LIG1       -0.3536
     11 H           4.5285    2.9604   -0.7433 H       1  LIG1        0.1425
     12 H           4.1167    4.5629   -0.5585 H       1  LIG1        0.1425
     13 C          -0.0341    6.0161   -0.7656 C.ar    1  LIG1        0.0391
     14 C           1.1580    5.4079   -0.3440 C.ar    1  LIG1        0.0384
     15 C           2.0458    6.2140    0.3641 C.ar    1  LIG1       -0.0320
     16 C           1.7743    7.5685    0.5703 C.ar    1  LIG1        0.0528
     17 C           0.5921    8.0977    0.0157 C.ar    1  LIG1        0.1037
     18 N          -0.3005    7.2987   -0.5945 N.ar    1  LIG1       -0.2515
     19 H           2.9357    5.7908    0.8161 H       1  LIG1        0.0638
     20 H          -0.7942    5.4216   -1.2635 H       1  LIG1        0.0837
     21 C           2.6572    8.3214    1.4017 C.1     1  LIG1       -0.0674
     22 C           3.4161    8.9019    2.1324 C.1     1  LIG1       -0.1138
     23 H           4.0817    9.4672    2.7433 H       1  LIG1        0.1232
     24 C           0.1704    9.4985    0.0919 C.ar    1  LIG1        0.0842
     25 C           0.7987   10.7436    0.1540 C.ar    1  LIG1        0.0791
     26 C          -0.2163   11.7364    0.1637 C.ar    1  LIG1       -0.0182
     27 C          -1.4348   11.0951    0.0889 C.ar    1  LIG1        0.0518
     28 N          -1.1665    9.7515    0.0425 N.ar    1  LIG1       -0.3518
     29 H          -1.8303    8.9963   -0.0379 H       1  LIG1        0.1660
     30 N           3.2910   11.3749   -0.0336 N.1     1  LIG1       -0.1908
     31 C           2.1834   11.0531    0.0697 C.1     1  LIG1        0.1013
     32 H          -0.0633   12.8013    0.2023 H       1  LIG1        0.0652
     33 C          -3.1403   12.8840    0.4900 C.ar    1  LIG1        0.1267
     34 C          -4.4522   13.3194    0.4234 C.ar    1  LIG1       -0.0070
     35 C          -2.8042   11.6040    0.0254 C.ar    1  LIG1        0.0415
     36 C          -5.4825   12.5323   -0.1099 C.ar    1  LIG1        0.0432
     37 H          -4.7015   14.2979    0.8250 H       1  LIG1        0.0662
     38 C          -3.8360   10.8151   -0.4861 C.ar    1  LIG1       -0.0277
     39 C          -5.1641   11.2326   -0.5619 C.ar    1  LIG1        0.0362
     40 H          -3.6041    9.8273   -0.8741 H       1  LIG1        0.0644
     41 O          -2.1508   13.6702    1.0120 O.3     1  LIG1       -0.5061
     42 H          -2.5456   14.4726    1.3718 H       1  LIG1        0.2922
     43 N          -6.1236   10.3515   -1.0513 N.pl3   1  LIG1       -0.3574
     44 H          -7.0296   10.7455   -1.2497 H       1  LIG1        0.1423
     45 H          -5.7945    9.7045   -1.7510 H       1  LIG1        0.1423
     46 C          -6.8110   13.1163   -0.2177 C.ar    1  LIG1        0.1581
     47 C          -7.2431   14.4093   -0.3598 C.ar    1  LIG1        0.0716
     48 C          -8.6695   14.3662   -0.3956 C.ar    1  LIG1        0.0056
     49 C          -9.0332   13.0535   -0.2838 C.ar    1  LIG1        0.1393
     50 O          -7.9143   12.2889   -0.1821 O.2     1  LIG1       -0.4528
     51 N          -6.4663   15.5695   -0.4265 N.pl3   1  LIG1       -0.3550
     52 H          -5.5663   15.4185   -0.8652 H       1  LIG1        0.1424
     53 H          -6.9502   16.3345   -0.8773 H       1  LIG1        0.1424
     54 H          -9.3401   15.2112   -0.4300 H       1  LIG1        0.0674
     55 C         -11.4942   12.8918   -0.7405 C.ar    1  LIG1        0.0360
     56 C         -12.6738   12.1640   -0.6169 C.ar    1  LIG1       -0.0309
     57 C         -10.3064   12.3487   -0.2172 C.ar    1  LIG1        0.0382
     58 C         -12.7316   10.9157    0.0085 C.ar    1  LIG1        0.0066
     59 H         -13.5863   12.5837   -1.0242 H       1  LIG1        0.0643
     60 C         -10.3687   11.0930    0.3936 C.ar    1  LIG1       -0.0458
     61 C         -11.5390   10.3615    0.5286 C.ar    1  LIG1       -0.0404
     62 H          -9.4495   10.6860    0.8020 H       1  LIG1        0.0628
     63 N         -11.5100   14.1428   -1.3609 N.pl3   1  LIG1       -0.3574
     64 H         -10.6715   14.3516   -1.8870 H       1  LIG1        0.1423
     65 H         -12.3431   14.3073   -1.9087 H       1  LIG1        0.1423
     66 C         -11.4769    9.0414    1.2574 C.3     1  LIG1       -0.0391
     67 H         -10.5497    8.9735    1.8299 H       1  LIG1        0.0278
     68 H         -11.4838    8.1811    0.5757 H       1  LIG1        0.0278
     69 H         -12.3091    8.9159    1.9543 H       1  LIG1        0.0278
     70 C         -14.0364   10.2572    0.0852 C.ar    1  LIG1        0.0892
     71 C         -15.3158   10.8032    0.0928 C.ar    1  LIG1        0.1426
     72 C         -16.2558    9.7607    0.1571 C.ar    1  LIG1        0.0060
     73 C         -15.5422    8.5690    0.1804 C.ar    1  LIG1        0.0557
     74 N         -14.2202    8.8946    0.1387 N.ar    1  LIG1       -0.3511
     75 H         -13.5020    8.1893    0.1131 H       1  LIG1        0.1660
     76 O         -15.5745   12.1433    0.0466 O.3     1  LIG1       -0.5046
     77 H         -16.5079   12.2807    0.2406 H       1  LIG1        0.2922
     78 H         -17.3301    9.8725    0.1907 H       1  LIG1        0.0675
     79 C         -15.1859    6.0581    0.3022 C.ar    1  LIG1        0.2239
     80 C         -16.0272    7.1932    0.2322 C.ar    1  LIG1        0.0616
     81 C         -17.3918    6.9263    0.2176 C.ar    1  LIG1       -0.0253
     82 C         -17.8821    5.6200    0.2710 C.ar    1  LIG1        0.0438
     83 C         -16.9429    4.5978    0.3394 C.ar    1  LIG1        0.0520
     84 N         -15.6280    4.8243    0.3543 N.ar    1  LIG1       -0.2189
     85 H         -18.0941    7.7521    0.1671 H       1  LIG1        0.0645
     86 H         -17.2583    3.5576    0.3863 H       1  LIG1        0.0849
     87 O         -13.8359    6.2616    0.3132 O.3     1  LIG1       -0.4792
     88 C         -13.0139    5.1044    0.4047 C.3     1  LIG1        0.0804
     89 H         -11.9883    5.4733    0.4142 H       1  LIG1        0.0660
     90 H         -13.2249    4.5463    1.3194 H       1  LIG1        0.0660
     91 H         -13.1723    4.4419   -0.4491 H       1  LIG1        0.0660
     92 N         -19.2530    5.3598    0.3114 N.pl3   1  LIG1       -0.3568
     93 H         -19.8263    6.0473   -0.1557 H       1  LIG1        0.1424
     94 H         -19.5082    4.4222    0.0360 H       1  LIG1        0.1424
@<TRIPOS>BOND
     1    65    63    1
     2    64    63    1
     3    45    43    1
     4     9     7    1
     5     6     1    1
     6    63    55    1
     7    20    13    1
     8    44    43    1
     9     1     5   ar
    10     1     2   ar
    11     7     2    1
    12     7     8    1
    13    43    39    1
    14    59    56    1
    15     5     4   ar
    16     2     3   ar
    17    53    51    1
    18    40    38    1
    19    52    51    1
    20    13    18   ar
    21    13    14   ar
    22    11    10    1
    23    55    56   ar
    24    55    57   ar
    25    56    58   ar
    26     4     3   ar
    27     4    14    1
    28    18    17   ar
    29     3    10    1
    30    39    38   ar
    31    39    36   ar
    32    12    10    1
    33    38    35   ar
    34    91    88    1
    35    54    48    1
    36    51    47    1
    37    48    47   ar
    38    48    49   ar
    39    47    46   ar
    40    14    15   ar
    41    49    57    1
    42    49    50   ar
    43    46    50   ar
    44    46    36    1
    45    57    60   ar
    46    93    92    1
    47    36    34   ar
    48    29    28    1
    49    30    31    3
    50    58    70    1
    51    58    61   ar
    52    17    24    1
    53    17    16   ar
    54    35    27    1
    55    35    33   ar
    56    94    92    1
    57    28    27   ar
    58    28    24   ar
    59    76    71    1
    60    76    77    1
    61    31    25    1
    62    70    71   ar
    63    70    74   ar
    64    27    26   ar
    65    24    25   ar
    66    71    72   ar
    67    75    74    1
    68    74    73   ar
    69    25    26   ar
    70    72    73   ar
    71    72    78    1
    72    26    32    1
    73    85    81    1
    74    73    80    1
    75    81    80   ar
    76    81    82   ar
    77    80    79   ar
    78    82    92    1
    79    82    83   ar
    80    79    87    1
    81    79    84   ar
    82    87    88    1
    83    83    84   ar
    84    83    86    1
    85    15    16   ar
    86    15    19    1
    87    60    61   ar
    88    60    62    1
    89    88    89    1
    90    88    90    1
    91    34    33   ar
    92    34    37    1
    93    33    41    1
    94    61    66    1
    95    16    21    1
    96    68    66    1
    97    41    42    1
    98    66    67    1
    99    66    69    1
   100    21    22    3
   101    22    23    1
