@<TRIPOS>MOLECULE
mol_data/opt/cam/geoms/mol2/12hh12ed13hh-12ef.out
 45 48 0 0 0
SMALL
GASTEIGER

@<TRIPOS>ATOM
      1 C           0.1900    1.8114   -0.5479 C.ar    1  LIG1        0.1152
      2 C           1.4819    1.7538   -0.1382 C.ar    1  LIG1        0.0846
      3 C           1.9069    3.1119    0.0527 C.ar    1  LIG1        0.0951
      4 C           0.8237    3.8934   -0.2641 C.ar    1  LIG1        0.1933
      5 O          -0.2300    3.0942   -0.6417 O.2     1  LIG1       -0.4560
      6 H          -0.5266    1.0514   -0.8172 H       1  LIG1        0.1049
      7 N           2.3531    0.6657    0.0488 N.pl3   1  LIG1       -0.3541
      8 H           2.6262    0.5653    1.0213 H       1  LIG1        0.1425
      9 H           1.9616   -0.2095   -0.2750 H       1  LIG1        0.1425
     10 N           3.1563    3.4306    0.5452 N.pl3   1  LIG1       -0.3535
     11 H           3.8489    2.7385    0.2862 H       1  LIG1        0.1425
     12 H           3.4695    4.3751    0.3603 H       1  LIG1        0.1425
     13 C           0.5800    5.3058   -0.2643 C.ar    1  LIG1        0.1891
     14 C           1.3749    6.4178   -0.3411 C.ar    1  LIG1        0.0916
     15 C           0.4825    7.5549   -0.2487 C.ar    1  LIG1        0.1150
     16 C          -0.7930    7.0533   -0.1323 C.ar    1  LIG1        0.1723
     17 O          -0.7239    5.6937   -0.1393 O.2     1  LIG1       -0.4475
     18 C           2.7740    6.4823   -0.5492 C.1     1  LIG1       -0.0644
     19 C           3.9626    6.5655   -0.7327 C.1     1  LIG1       -0.1138
     20 H           5.0071    6.6627   -0.9222 H       1  LIG1        0.1232
     21 N           1.1654   10.0256   -0.4636 N.1     1  LIG1       -0.1907
     22 C           0.8658    8.9102   -0.3595 C.1     1  LIG1        0.1043
     23 C          -2.1145    7.5844   -0.0262 C.ar    1  LIG1        0.1067
     24 C          -2.6336    8.8593    0.2069 C.ar    1  LIG1        0.0750
     25 C          -4.0482    8.7412    0.2196 C.ar    1  LIG1        0.0750
     26 C          -4.3618    7.4055   -0.0077 C.ar    1  LIG1        0.1067
     27 N          -3.1888    6.7231   -0.1545 N.ar    1  LIG1       -0.3463
     28 H          -3.1112    5.7371   -0.3404 H       1  LIG1        0.1662
     29 N          -2.0145   10.0580    0.4876 N.pl3   1  LIG1       -0.3548
     30 H          -1.0736   10.1969    0.1483 H       1  LIG1        0.1424
     31 H          -2.6283   10.8413    0.2989 H       1  LIG1        0.1424
     32 N          -4.8633    9.8636    0.4571 N.pl3   1  LIG1       -0.3548
     33 H          -5.8120    9.7501    0.1224 H       1  LIG1        0.1424
     34 H          -4.8788   10.1213    1.4388 H       1  LIG1        0.1424
     35 C          -5.6078    6.6861   -0.0782 C.ar    1  LIG1        0.1717
     36 C          -6.9258    7.0236   -0.2908 C.ar    1  LIG1        0.1133
     37 C          -7.6552    5.7849   -0.2293 C.ar    1  LIG1        0.1709
     38 C          -6.7549    4.7999   -0.0042 C.ar    1  LIG1        0.1352
     39 O          -5.5016    5.3456    0.0906 O.2     1  LIG1       -0.4564
     40 H          -6.8269    3.7314    0.1112 H       1  LIG1        0.1068
     41 C          -7.4979    8.2830   -0.5975 C.1     1  LIG1       -0.0621
     42 C          -8.0196    9.3340   -0.8737 C.1     1  LIG1       -0.1137
     43 H          -8.4837   10.2561   -1.1387 H       1  LIG1        0.1232
     44 O          -8.9950    5.7344   -0.3929 O.3     1  LIG1       -0.5028
     45 H          -9.2941    4.8194   -0.3401 H       1  LIG1        0.2923
@<TRIPOS>BOND
     1    43    42    1
     2    20    19    1
     3    42    41    3
     4     6     1    1
     5    19    18    3
     6     5     1   ar
     7     5     4   ar
     8    41    36    1
     9    18    14    1
    10     1     2   ar
    11    21    22    3
    12    44    45    1
    13    44    37    1
    14    22    15    1
    15    14    13   ar
    16    14    15   ar
    17    28    27    1
    18    36    37   ar
    19    36    35   ar
    20     9     7    1
    21    13     4    1
    22    13    17   ar
    23     4     3   ar
    24    15    16   ar
    25    37    38   ar
    26    27    23   ar
    27    27    26   ar
    28    17    16   ar
    29     2     7    1
    30     2     3   ar
    31    16    23    1
    32    35    26    1
    33    35    39   ar
    34    23    24   ar
    35    26    25   ar
    36    38    39   ar
    37    38    40    1
    38     7     8    1
    39     3    10    1
    40    33    32    1
    41    30    29    1
    42    24    25   ar
    43    24    29    1
    44    25    32    1
    45    11    10    1
    46    31    29    1
    47    12    10    1
    48    32    34    1
