@<TRIPOS>MOLECULE
mol_data/opt/cam/geoms/mol2/12hh12hh.out
 24 25 0 0 0
SMALL
GASTEIGER

@<TRIPOS>ATOM
      1 C           0.2074    1.8039    0.1771 C.ar    1  LIG1        0.1152
      2 C           1.5503    1.8490   -0.0068 C.ar    1  LIG1        0.0846
      3 C           1.8779    3.2321   -0.2102 C.ar    1  LIG1        0.0951
      4 C           0.7023    3.9259   -0.1200 C.ar    1  LIG1        0.1939
      5 O          -0.3179    3.0623    0.1140 O.2     1  LIG1       -0.4560
      6 H          -0.4908    1.0040    0.3635 H       1  LIG1        0.1049
      7 N           2.5146    0.8264    0.0445 N.pl3   1  LIG1       -0.3541
      8 H           2.1138   -0.0722    0.2819 H       1  LIG1        0.1425
      9 H           3.0216    0.7362   -0.8292 H       1  LIG1        0.1425
     10 N           3.1747    3.7648   -0.4422 N.pl3   1  LIG1       -0.3535
     11 H           3.8693    3.1846    0.0197 H       1  LIG1        0.1425
     12 H           3.4020    3.7959   -1.4322 H       1  LIG1        0.1425
     13 C           0.3868    5.3287   -0.1998 C.ar    1  LIG1        0.1939
     14 C           1.1489    6.4562   -0.0483 C.ar    1  LIG1        0.0951
     15 C           0.2575    7.5638   -0.2410 C.ar    1  LIG1        0.0846
     16 C          -0.9659    7.0309   -0.4879 C.ar    1  LIG1        0.1152
     17 O          -0.9105    5.6746   -0.4762 O.2     1  LIG1       -0.4560
     18 H          -1.9300    7.4695   -0.6911 H       1  LIG1        0.1049
     19 N           2.4855    6.5980    0.2996 N.pl3   1  LIG1       -0.3535
     20 H           3.0167    5.7379    0.1591 H       1  LIG1        0.1425
     21 H           2.9091    7.3900   -0.1697 H       1  LIG1        0.1425
     22 N           0.6976    8.8980   -0.2052 N.pl3   1  LIG1       -0.3541
     23 H          -0.0541    9.5612   -0.3439 H       1  LIG1        0.1425
     24 H           1.1651    9.1061    0.6713 H       1  LIG1        0.1425
@<TRIPOS>BOND
     1    12    10    1
     2     9     7    1
     3    18    16    1
     4    16    17   ar
     5    16    15   ar
     6    17    13   ar
     7    10     3    1
     8    10    11    1
     9    23    22    1
    10    15    22    1
    11    15    14   ar
    12     3     4   ar
    13     3     2   ar
    14    22    24    1
    15    13     4    1
    16    13    14   ar
    17    21    19    1
    18     4     5   ar
    19    14    19    1
    20     2     7    1
    21     2     1   ar
    22     7     8    1
    23     5     1   ar
    24    20    19    1
    25     1     6    1
