@<TRIPOS>MOLECULE
mol_data/opt/cam/geoms/mol2/12hh12hh12hh-12hh-.out
 46 49 0 0 0
SMALL
GASTEIGER

@<TRIPOS>ATOM
      1 C           0.3134    1.6364   -0.4491 C.ar    1  LIG1        0.1152
      2 C           1.6169    1.6782   -0.0742 C.ar    1  LIG1        0.0846
      3 C           1.9522    3.0654    0.0727 C.ar    1  LIG1        0.0951
      4 C           0.8138    3.7630   -0.2335 C.ar    1  LIG1        0.1939
      5 O          -0.1951    2.8927   -0.5590 O.2     1  LIG1       -0.4560
      6 H          -0.3609    0.8251   -0.6724 H       1  LIG1        0.1049
      7 N           2.5591    0.6552    0.1158 N.pl3   1  LIG1       -0.3541
      8 H           3.0134    0.7397    1.0193 H       1  LIG1        0.1425
      9 H           2.1586   -0.2700    0.0295 H       1  LIG1        0.1425
     10 N           3.1871    3.5122    0.5230 N.pl3   1  LIG1       -0.3535
     11 H           3.9475    2.9684    0.1320 H       1  LIG1        0.1425
     12 H           3.3146    4.5145    0.3787 H       1  LIG1        0.1425
     13 C           0.5088    5.1666   -0.2646 C.ar    1  LIG1        0.1950
     14 C           1.2756    6.3002   -0.2863 C.ar    1  LIG1        0.0959
     15 C           0.3748    7.4149   -0.2738 C.ar    1  LIG1        0.0959
     16 C          -0.8829    6.8837   -0.2593 C.ar    1  LIG1        0.1950
     17 O          -0.8081    5.5142   -0.2508 O.2     1  LIG1       -0.4447
     18 N           2.6955    6.3680   -0.3018 N.pl3   1  LIG1       -0.3535
     19 H           3.0589    6.4483   -1.2476 H       1  LIG1        0.1425
     20 H           3.0023    7.1861    0.2175 H       1  LIG1        0.1425
     21 N           0.7704    8.7569   -0.2160 N.pl3   1  LIG1       -0.3535
     22 H           1.3821    9.0142   -0.9823 H       1  LIG1        0.1425
     23 H          -0.0255    9.3840   -0.1915 H       1  LIG1        0.1425
     24 C          -2.1926    7.4582   -0.2593 C.ar    1  LIG1        0.1950
     25 C          -3.4504    6.9270   -0.2738 C.ar    1  LIG1        0.0959
     26 C          -4.3512    8.0417   -0.2863 C.ar    1  LIG1        0.0959
     27 C          -3.5844    9.1753   -0.2645 C.ar    1  LIG1        0.1950
     28 O          -2.2675    8.8277   -0.2507 O.2     1  LIG1       -0.4447
     29 N          -3.8459    5.5851   -0.2162 N.pl3   1  LIG1       -0.3535
     30 H          -4.4578    5.3278   -0.9823 H       1  LIG1        0.1425
     31 H          -3.0501    4.9580   -0.1919 H       1  LIG1        0.1425
     32 N          -5.7711    7.9739   -0.3020 N.pl3   1  LIG1       -0.3535
     33 H          -6.1344    7.8934   -1.2478 H       1  LIG1        0.1425
     34 H          -6.0779    7.1560    0.2175 H       1  LIG1        0.1425
     35 C          -3.8894   10.5789   -0.2334 C.ar    1  LIG1        0.1939
     36 C          -5.0278   11.2766    0.0726 C.ar    1  LIG1        0.0951
     37 C          -4.6924   12.6638   -0.0742 C.ar    1  LIG1        0.0846
     38 C          -3.3888   12.7055   -0.4489 C.ar    1  LIG1        0.1152
     39 O          -2.8803   11.4492   -0.5587 O.2     1  LIG1       -0.4560
     40 H          -2.7143   13.5168   -0.6720 H       1  LIG1        0.1049
     41 N          -6.2628   10.8299    0.5225 N.pl3   1  LIG1       -0.3535
     42 H          -7.0231   11.3738    0.1314 H       1  LIG1        0.1425
     43 H          -6.3903    9.8276    0.3781 H       1  LIG1        0.1425
     44 N          -5.6345   13.6869    0.1158 N.pl3   1  LIG1       -0.3541
     45 H          -6.0889   13.6023    1.0192 H       1  LIG1        0.1425
     46 H          -5.2339   14.6121    0.0296 H       1  LIG1        0.1425
@<TRIPOS>BOND
     1    33    32    1
     2    19    18    1
     3    30    29    1
     4    22    21    1
     5     6     1    1
     6    40    38    1
     7     5     1   ar
     8     5     4   ar
     9    39    38   ar
    10    39    35   ar
    11     1     2   ar
    12    38    37   ar
    13    32    26    1
    14    32    34    1
    15    18    14    1
    16    18    20    1
    17    26    25   ar
    18    26    27   ar
    19    14    15   ar
    20    14    13   ar
    21    25    24   ar
    22    25    29    1
    23    15    16   ar
    24    15    21    1
    25    13    17   ar
    26    13     4    1
    27    27    28   ar
    28    27    35    1
    29    16    24    1
    30    16    17   ar
    31    24    28   ar
    32     4     3   ar
    33    35    36   ar
    34    29    31    1
    35    21    23    1
    36     2     3   ar
    37     2     7    1
    38    37    36   ar
    39    37    44    1
    40     9     7    1
    41    46    44    1
    42    36    41    1
    43     3    10    1
    44    44    45    1
    45     7     8    1
    46    42    41    1
    47    11    10    1
    48    43    41    1
    49    12    10    1
