@<TRIPOS>MOLECULE
mol_data/opt/cam/geoms/mol2/12hh12hh12hh12hh.out
 46 49 0 0 0
SMALL
GASTEIGER

@<TRIPOS>ATOM
      1 C           0.7319    1.7092    0.5324 C.ar    1  LIG1        0.1152
      2 C           1.9899    1.8175    0.0374 C.ar    1  LIG1        0.0846
      3 C           2.1682    3.2018   -0.2969 C.ar    1  LIG1        0.0951
      4 C           1.0008    3.8351    0.0374 C.ar    1  LIG1        0.1939
      5 O           0.1241    2.9313    0.5407 O.2     1  LIG1       -0.4560
      6 H           0.1500    0.8848    0.9113 H       1  LIG1        0.1049
      7 N           3.0062    0.8530   -0.0934 N.pl3   1  LIG1       -0.3541
      8 H           2.7326   -0.0477    0.2787 H       1  LIG1        0.1425
      9 H           3.2942    0.7312   -1.0582 H       1  LIG1        0.1425
     10 N           3.3381    3.7918   -0.8520 N.pl3   1  LIG1       -0.3535
     11 H           4.1589    3.2971   -0.5133 H       1  LIG1        0.1425
     12 H           3.3433    3.7368   -1.8672 H       1  LIG1        0.1425
     13 C           0.5854    5.2093   -0.0216 C.ar    1  LIG1        0.1950
     14 C           1.2794    6.3878   -0.1013 C.ar    1  LIG1        0.0959
     15 C           0.2941    7.4262   -0.1154 C.ar    1  LIG1        0.0959
     16 C          -0.9312    6.8116   -0.0228 C.ar    1  LIG1        0.1950
     17 O          -0.7631    5.4731    0.0272 O.2     1  LIG1       -0.4447
     18 N           2.6494    6.5942   -0.0830 N.pl3   1  LIG1       -0.3535
     19 H           3.1792    5.7581   -0.3352 H       1  LIG1        0.1425
     20 H           2.9366    7.4109   -0.6054 H       1  LIG1        0.1425
     21 N           0.5516    8.8258   -0.1815 N.pl3   1  LIG1       -0.3535
     22 H           1.2450    9.0959    0.5109 H       1  LIG1        0.1425
     23 H           0.9018    9.1034   -1.0944 H       1  LIG1        0.1425
     24 C          -2.2888    7.2888    0.0247 C.ar    1  LIG1        0.1950
     25 C          -2.8486    8.5397    0.1279 C.ar    1  LIG1        0.0959
     26 C          -4.2672    8.3410    0.1591 C.ar    1  LIG1        0.0959
     27 C          -4.4637    6.9885    0.0487 C.ar    1  LIG1        0.1950
     28 O          -3.2653    6.3372   -0.0224 O.2     1  LIG1       -0.4447
     29 N          -2.2351    9.7843    0.2684 N.pl3   1  LIG1       -0.3535
     30 H          -1.2222    9.7184    0.1568 H       1  LIG1        0.1425
     31 H          -2.6187   10.4744   -0.3675 H       1  LIG1        0.1425
     32 N          -5.2166    9.3237    0.3555 N.pl3   1  LIG1       -0.3535
     33 H          -4.8860   10.2709    0.2679 H       1  LIG1        0.1425
     34 H          -6.1255    9.1286   -0.0604 H       1  LIG1        0.1425
     35 C          -5.6713    6.2118    0.0093 C.ar    1  LIG1        0.1939
     36 C          -6.9486    6.5212   -0.3729 C.ar    1  LIG1        0.0951
     37 C          -7.7402    5.3488   -0.1329 C.ar    1  LIG1        0.0846
     38 C          -6.8877    4.4149    0.3590 C.ar    1  LIG1        0.1152
     39 O          -5.6294    4.9280    0.4531 O.2     1  LIG1       -0.4560
     40 H          -7.0124    3.3938    0.6819 H       1  LIG1        0.1049
     41 N          -7.4162    7.7543   -0.8999 N.pl3   1  LIG1       -0.3535
     42 H          -7.2894    7.8087   -1.9067 H       1  LIG1        0.1425
     43 H          -8.4085    7.8480   -0.7025 H       1  LIG1        0.1425
     44 N          -9.1331    5.3001   -0.3443 N.pl3   1  LIG1       -0.3541
     45 H          -9.3690    5.3494   -1.3299 H       1  LIG1        0.1425
     46 H          -9.5501    4.4629    0.0431 H       1  LIG1        0.1425
@<TRIPOS>BOND
     1    42    41    1
     2    12    10    1
     3    45    44    1
     4    23    21    1
     5     9     7    1
     6    41    43    1
     7    41    36    1
     8    10    11    1
     9    10     3    1
    10    20    18    1
    11    36    37   ar
    12    36    35   ar
    13    31    29    1
    14    44    37    1
    15    44    46    1
    16    19    18    1
    17     3     4   ar
    18     3     2   ar
    19    21    15    1
    20    21    22    1
    21    37    38   ar
    22    15    14   ar
    23    15    16   ar
    24    14    18    1
    25    14    13   ar
    26     7     2    1
    27     7     8    1
    28    34    32    1
    29    16    24    1
    30    16    17   ar
    31    28    24   ar
    32    28    27   ar
    33    13    17   ar
    34    13     4    1
    35    35    27    1
    36    35    39   ar
    37    24    25   ar
    38     4     5   ar
    39     2     1   ar
    40    27    26   ar
    41    25    26   ar
    42    25    29    1
    43    30    29    1
    44    26    32    1
    45    33    32    1
    46    38    39   ar
    47    38    40    1
    48     1     5   ar
    49     1     6    1
