@<TRIPOS>MOLECULE
mol_data/opt/cam/geoms/mol2/12hh4lh13ed13ll-.out
 56 59 0 0 0
SMALL
GASTEIGER

@<TRIPOS>ATOM
      1 C           0.0659    1.5007    0.3218 C.ar    1  LIG1        0.1150
      2 C           1.3879    1.3616    0.0584 C.ar    1  LIG1        0.0845
      3 C           1.8955    2.6844   -0.1789 C.ar    1  LIG1        0.0920
      4 C           0.8320    3.5405   -0.0320 C.ar    1  LIG1        0.1607
      5 O          -0.2943    2.8067    0.2753 O.2     1  LIG1       -0.4590
      6 H          -0.7106    0.7955    0.5734 H       1  LIG1        0.1049
      7 N           2.2188    0.2291    0.0412 N.pl3   1  LIG1       -0.3541
      8 H           1.7235   -0.6252    0.2620 H       1  LIG1        0.1425
      9 H           2.6809    0.1227   -0.8562 H       1  LIG1        0.1425
     10 N           3.2043    2.9043   -0.5750 N.pl3   1  LIG1       -0.3536
     11 H           3.8456    2.2533   -0.1380 H       1  LIG1        0.1425
     12 H           3.4929    3.8710   -0.4703 H       1  LIG1        0.1425
     13 C           1.6164    5.9355   -0.0699 C.ar    1  LIG1        0.1315
     14 C           1.3518    7.2766   -0.2790 C.ar    1  LIG1       -0.0083
     15 C           0.6137    4.9673   -0.2162 C.ar    1  LIG1        0.0625
     16 C           0.0782    7.7332   -0.6249 C.ar    1  LIG1        0.0237
     17 H           2.1615    7.9822   -0.1420 H       1  LIG1        0.0661
     18 C          -0.6604    5.4272   -0.5705 C.ar    1  LIG1       -0.0262
     19 C          -0.9409    6.7697   -0.7760 C.ar    1  LIG1        0.0347
     20 H          -1.4487    4.6945   -0.7064 H       1  LIG1        0.0644
     21 O           2.8983    5.5787    0.3115 O.3     1  LIG1       -0.4944
     22 C           3.0657    5.4834    1.7229 C.3     1  LIG1        0.0788
     23 H           4.1040    5.1985    1.8986 H       1  LIG1        0.0660
     24 H           2.8686    6.4487    2.2005 H       1  LIG1        0.0660
     25 H           2.4010    4.7245    2.1481 H       1  LIG1        0.0660
     26 N          -2.2613    7.1702   -1.1213 N.pl3   1  LIG1       -0.3574
     27 H          -2.2753    7.6838   -1.9977 H       1  LIG1        0.1423
     28 H          -2.8729    6.3673   -1.2097 H       1  LIG1        0.1423
     29 C          -0.1733    9.1709   -0.7523 C.ar    1  LIG1        0.0657
     30 C           0.6725   10.2350   -1.0324 C.ar    1  LIG1        0.0680
     31 C          -0.1083   11.4355   -0.9299 C.ar    1  LIG1        0.0945
     32 C          -1.3996   11.0712   -0.5845 C.ar    1  LIG1        0.0859
     33 N          -1.4125    9.7086   -0.4961 N.ar    1  LIG1       -0.3509
     34 H          -2.1948    9.1319   -0.2120 H       1  LIG1        0.1660
     35 C           2.0448   10.1887   -1.3917 C.1     1  LIG1       -0.0662
     36 C           3.2090   10.1809   -1.6995 C.1     1  LIG1       -0.1138
     37 H           4.2361   10.1816   -1.9828 H       1  LIG1        0.1232
     38 N           0.7727   13.7951   -1.4732 N.1     1  LIG1       -0.1908
     39 C           0.3626   12.7441   -1.2146 C.1     1  LIG1        0.1026
     40 C          -2.5928   11.8530   -0.3510 C.ar    1  LIG1        0.1102
     41 C          -2.7623   13.0806    0.2550 C.ar    1  LIG1        0.1883
     42 C          -4.1590   13.3652    0.2705 C.ar    1  LIG1        0.1795
     43 C          -4.8032   12.3074   -0.3172 C.ar    1  LIG1        0.0482
     44 N          -3.8528   11.3816   -0.6661 N.ar    1  LIG1       -0.3535
     45 H          -4.0222   10.6090   -1.2881 H       1  LIG1        0.1656
     46 H          -5.8539   12.1511   -0.5012 H       1  LIG1        0.0845
     47 O          -1.7660   13.8623    0.7472 O.3     1  LIG1       -0.4895
     48 C          -1.8200   14.0547    2.1575 C.3     1  LIG1        0.0791
     49 H          -0.9978   14.7250    2.4084 H       1  LIG1        0.0660
     50 H          -2.7716   14.5029    2.4592 H       1  LIG1        0.0660
     51 H          -1.6878   13.1025    2.6833 H       1  LIG1        0.0660
     52 O          -4.7552   14.4623    0.8186 O.3     1  LIG1       -0.4900
     53 C          -4.3951   15.6832    0.1778 C.3     1  LIG1        0.0790
     54 H          -4.8873   16.4829    0.7325 H       1  LIG1        0.0660
     55 H          -3.3117   15.8346    0.1931 H       1  LIG1        0.0660
     56 H          -4.7426   15.6927   -0.8614 H       1  LIG1        0.0660
@<TRIPOS>BOND
     1    27    26    1
     2    37    36    1
     3    36    35    3
     4    38    39    3
     5    35    30    1
     6    45    44    1
     7    39    31    1
     8    28    26    1
     9    26    19    1
    10    30    31   ar
    11    30    29   ar
    12    31    32   ar
    13    56    53    1
    14     9     7    1
    15    19    16   ar
    16    19    18   ar
    17    29    16    1
    18    29    33   ar
    19    20    18    1
    20    44    40   ar
    21    44    43   ar
    22    16    14   ar
    23    32    33   ar
    24    32    40    1
    25    10    12    1
    26    10     3    1
    27    10    11    1
    28    18    15   ar
    29    46    43    1
    30    33    34    1
    31    40    41   ar
    32    43    42   ar
    33    14    17    1
    34    14    13   ar
    35    15    13   ar
    36    15     4    1
    37     3     4   ar
    38     3     2   ar
    39    13    21    1
    40     4     5   ar
    41     7     2    1
    42     7     8    1
    43     2     1   ar
    44    53    55    1
    45    53    54    1
    46    53    52    1
    47    41    42   ar
    48    41    47    1
    49    42    52    1
    50     5     1   ar
    51    21    22    1
    52     1     6    1
    53    47    48    1
    54    22    23    1
    55    22    25    1
    56    22    24    1
    57    48    49    1
    58    48    50    1
    59    48    51    1
