@<TRIPOS>MOLECULE
mol_data/opt/cam/geoms/mol2/12hh12hh-12hh-12hh-.out
 46 49 0 0 0
SMALL
GASTEIGER

@<TRIPOS>ATOM
      1 C          -0.0787    1.6805   -0.0734 C.ar    1  LIG1        0.1152
      2 C           1.2776    1.6367   -0.0317 C.ar    1  LIG1        0.0846
      3 C           1.7274    3.0023   -0.0560 C.ar    1  LIG1        0.0951
      4 C           0.6000    3.7722   -0.1007 C.ar    1  LIG1        0.1939
      5 O          -0.5104    2.9798   -0.1154 O.2     1  LIG1       -0.4560
      6 H          -0.8438    0.9225   -0.0641 H       1  LIG1        0.1049
      7 N           2.1236    0.5286    0.0784 N.pl3   1  LIG1       -0.3541
      8 H           2.0101   -0.1649   -0.6473 H       1  LIG1        0.1425
      9 H           3.0908    0.8117    0.1666 H       1  LIG1        0.1425
     10 N           3.0797    3.3833    0.0132 N.pl3   1  LIG1       -0.3535
     11 H           3.5766    3.1605   -0.8438 H       1  LIG1        0.1425
     12 H           3.1754    4.3786    0.1839 H       1  LIG1        0.1425
     13 C           0.4001    5.1911   -0.1332 C.ar    1  LIG1        0.1950
     14 C          -0.7148    5.9778   -0.1971 C.ar    1  LIG1        0.0959
     15 C          -0.2553    7.3328   -0.2011 C.ar    1  LIG1        0.0959
     16 C           1.1155    7.2774   -0.1415 C.ar    1  LIG1        0.1950
     17 O           1.5204    5.9640   -0.0956 O.2     1  LIG1       -0.4447
     18 N          -2.0694    5.6231   -0.1965 N.pl3   1  LIG1       -0.3535
     19 H          -2.5666    6.0440   -0.9742 H       1  LIG1        0.1425
     20 H          -2.1949    4.6184   -0.2056 H       1  LIG1        0.1425
     21 N          -1.1054    8.4201   -0.3102 N.pl3   1  LIG1       -0.3535
     22 H          -0.6379    9.3041   -0.1134 H       1  LIG1        0.1425
     23 H          -1.9578    8.2894    0.2208 H       1  LIG1        0.1425
     24 C           2.1592    8.2613   -0.1081 C.ar    1  LIG1        0.1950
     25 C           2.1719    9.6337   -0.0690 C.ar    1  LIG1        0.0959
     26 C           3.5476   10.0316   -0.0344 C.ar    1  LIG1        0.0959
     27 C           4.2793    8.8733   -0.0670 C.ar    1  LIG1        0.1950
     28 O           3.4257    7.7924   -0.1109 O.2     1  LIG1       -0.4447
     29 N           1.0375   10.4944   -0.0195 N.pl3   1  LIG1       -0.3535
     30 H           1.0829   11.1046    0.7921 H       1  LIG1        0.1425
     31 H           0.9743   11.0842   -0.8450 H       1  LIG1        0.1425
     32 N           3.9938   11.3339    0.1058 N.pl3   1  LIG1       -0.3535
     33 H           4.9767   11.4488   -0.1461 H       1  LIG1        0.1425
     34 H           3.3893   12.0168   -0.3297 H       1  LIG1        0.1425
     35 C           5.6896    8.6046   -0.0375 C.ar    1  LIG1        0.1939
     36 C           6.7904    9.3784   -0.2929 C.ar    1  LIG1        0.0951
     37 C           7.9362    8.5494   -0.0462 C.ar    1  LIG1        0.0846
     38 C           7.4525    7.3374    0.3226 C.ar    1  LIG1        0.1152
     39 O           6.0857    7.3619    0.3349 O.2     1  LIG1       -0.4560
     40 H           7.9152    6.4062    0.6060 H       1  LIG1        0.1049
     41 N           6.8043   10.7395   -0.7084 N.pl3   1  LIG1       -0.3535
     42 H           7.6047   11.2128   -0.2980 H       1  LIG1        0.1425
     43 H           6.8803   10.8260   -1.7185 H       1  LIG1        0.1425
     44 N           9.2598    9.0158   -0.1265 N.pl3   1  LIG1       -0.3541
     45 H           9.9362    8.3119    0.1404 H       1  LIG1        0.1425
     46 H           9.4905    9.3562   -1.0534 H       1  LIG1        0.1425
@<TRIPOS>BOND
     1    43    41    1
     2    46    44    1
     3    19    18    1
     4    31    29    1
     5    11    10    1
     6    41    42    1
     7    41    36    1
     8     8     7    1
     9    34    32    1
    10    21    15    1
    11    21    22    1
    12    21    23    1
    13    36    37   ar
    14    36    35   ar
    15    20    18    1
    16    15    14   ar
    17    15    16   ar
    18    14    18    1
    19    14    13   ar
    20    33    32    1
    21    16    24    1
    22    16    17   ar
    23    13     4    1
    24    13    17   ar
    25    44    37    1
    26    44    45    1
    27     5     4   ar
    28     5     1   ar
    29    28    24   ar
    30    28    27   ar
    31    24    25   ar
    32     4     3   ar
    33     1     6    1
    34     1     2   ar
    35    25    26   ar
    36    25    29    1
    37    27    35    1
    38    27    26   ar
    39     3     2   ar
    40     3    10    1
    41    37    38   ar
    42    35    39   ar
    43    26    32    1
    44     2     7    1
    45    29    30    1
    46    10    12    1
    47     7     9    1
    48    38    39   ar
    49    38    40    1
