@<TRIPOS>MOLECULE
mol_data/opt/cam/geoms/mol2/12hh12aa4li6he.out
 50 53 0 0 0
SMALL
GASTEIGER

@<TRIPOS>ATOM
      1 C           0.6730    1.5708    1.2887 C.ar    1  LIG1        0.1152
      2 C           1.8888    1.5205    0.6848 C.ar    1  LIG1        0.0846
      3 C           2.1062    2.8201    0.1219 C.ar    1  LIG1        0.0950
      4 C           1.0049    3.5634    0.4412 C.ar    1  LIG1        0.1920
      5 O           0.1147    2.7990    1.1452 O.2     1  LIG1       -0.4560
      6 H           0.0868    0.8369    1.8187 H       1  LIG1        0.1049
      7 N           2.7935    0.4577    0.5054 N.pl3   1  LIG1       -0.3541
      8 H           3.6793    0.6355    0.9676 H       1  LIG1        0.1425
      9 H           2.4254   -0.4267    0.8319 H       1  LIG1        0.1425
     10 N           3.2503    3.1806   -0.5856 N.pl3   1  LIG1       -0.3535
     11 H           3.6353    2.3831   -1.0802 H       1  LIG1        0.1425
     12 H           3.0923    3.9521   -1.2230 H       1  LIG1        0.1425
     13 C           0.6827    4.9338    0.1571 C.ar    1  LIG1        0.1725
     14 C           1.4618    6.0086   -0.1657 C.ar    1  LIG1       -0.0121
     15 C           0.5709    7.0949   -0.3949 C.ar    1  LIG1       -0.0150
     16 C          -0.6929    6.6220   -0.1869 C.ar    1  LIG1        0.1393
     17 O          -0.6248    5.2942    0.1435 O.2     1  LIG1       -0.4516
     18 H           2.5413    6.0301   -0.1838 H       1  LIG1        0.0657
     19 H           0.8246    8.1059   -0.6618 H       1  LIG1        0.0656
     20 C          -2.2710    8.5326   -0.5740 C.ar    1  LIG1        0.1313
     21 C          -3.5716    9.0193   -0.6019 C.ar    1  LIG1       -0.0112
     22 C          -2.0336    7.1900   -0.2266 C.ar    1  LIG1        0.0591
     23 C          -4.6626    8.2036   -0.2866 C.ar    1  LIG1       -0.0082
     24 H          -3.7646   10.0481   -0.8773 H       1  LIG1        0.0660
     25 C          -3.1367    6.3957    0.0923 C.ar    1  LIG1       -0.0441
     26 C          -4.4464    6.8663    0.0761 C.ar    1  LIG1       -0.0417
     27 H          -2.9520    5.3662    0.3765 H       1  LIG1        0.0629
     28 O          -1.1817    9.2910   -0.8755 O.3     1  LIG1       -0.4944
     29 C          -1.3764   10.6479   -1.2117 C.3     1  LIG1        0.0788
     30 H          -0.3847   11.0586   -1.4003 H       1  LIG1        0.0660
     31 H          -1.9877   10.7566   -2.1148 H       1  LIG1        0.0660
     32 H          -1.8458   11.2032   -0.3919 H       1  LIG1        0.0660
     33 C          -5.5818    5.9582    0.4717 C.3     1  LIG1       -0.0391
     34 H          -5.2016    5.0025    0.8377 H       1  LIG1        0.0278
     35 H          -6.2502    5.7604   -0.3714 H       1  LIG1        0.0278
     36 H          -6.1893    6.4060    1.2633 H       1  LIG1        0.0278
     37 C          -6.9688    8.4378   -1.3208 C.ar    1  LIG1        0.1240
     38 C          -6.0266    8.8005   -0.3270 C.ar    1  LIG1        0.0232
     39 C          -6.4111    9.7738    0.5755 C.ar    1  LIG1       -0.0339
     40 C          -7.6895   10.3468    0.5135 C.ar    1  LIG1        0.0435
     41 C          -8.5324    9.8945   -0.5011 C.ar    1  LIG1        0.0451
     42 N          -8.1877    8.9775   -1.3966 N.ar    1  LIG1       -0.2389
     43 H          -5.7170   10.0904    1.3470 H       1  LIG1        0.0637
     44 H          -9.5342   10.3065   -0.5924 H       1  LIG1        0.0843
     45 N          -6.6751    7.4824   -2.2591 N.pl3   1  LIG1       -0.3427
     46 H          -7.3094    7.4473   -3.0419 H       1  LIG1        0.1437
     47 H          -5.7047    7.2830   -2.4438 H       1  LIG1        0.1437
     48 C          -8.1143   11.3470    1.4402 C.1     1  LIG1       -0.0681
     49 C          -8.4736   12.1913    2.2204 C.1     1  LIG1       -0.1139
     50 H          -8.7936   12.9366    2.9111 H       1  LIG1        0.1232
@<TRIPOS>BOND
     1    46    45    1
     2    47    45    1
     3    45    37    1
     4    31    29    1
     5    30    29    1
     6    42    37   ar
     7    42    41   ar
     8    37    38   ar
     9    12    10    1
    10    29    28    1
    11    29    32    1
    12    11    10    1
    13    24    21    1
    14    28    20    1
    15    19    15    1
    16    21    20   ar
    17    21    23   ar
    18    44    41    1
    19    10     3    1
    20    20    22   ar
    21    41    40   ar
    22    15    16   ar
    23    15    14   ar
    24    35    33    1
    25    38    23    1
    26    38    39   ar
    27    23    26   ar
    28    22    16    1
    29    22    25   ar
    30    16    17   ar
    31    18    14    1
    32    14    13   ar
    33    26    25   ar
    34    26    33    1
    35    25    27    1
    36     3     4   ar
    37     3     2   ar
    38    17    13   ar
    39    13     4    1
    40     4     5   ar
    41    33    34    1
    42    33    36    1
    43     7     2    1
    44     7     9    1
    45     7     8    1
    46    40    39   ar
    47    40    48    1
    48    39    43    1
    49     2     1   ar
    50     5     1   ar
    51     1     6    1
    52    48    49    3
    53    49    50    1
