@<TRIPOS>MOLECULE
mol_data/opt/cam/geoms/mol2/12hh12hh-4hh12hh.out
 49 52 0 0 0
SMALL
GASTEIGER

@<TRIPOS>ATOM
      1 C          -0.0709    1.6560   -0.0390 C.ar    1  LIG1        0.1152
      2 C           1.2257    1.6183    0.3598 C.ar    1  LIG1        0.0846
      3 C           1.6942    2.9791    0.3440 C.ar    1  LIG1        0.0951
      4 C           0.6322    3.7387   -0.0585 C.ar    1  LIG1        0.1939
      5 O          -0.4508    2.9419   -0.3029 O.2     1  LIG1       -0.4560
      6 H          -0.8225    0.8960   -0.1729 H       1  LIG1        0.1049
      7 N           1.9827    0.5115    0.7683 N.pl3   1  LIG1       -0.3541
      8 H           2.1400   -0.1784    0.0464 H       1  LIG1        0.1425
      9 H           2.8579    0.7967    1.1884 H       1  LIG1        0.1425
     10 N           2.9785    3.3670    0.7498 N.pl3   1  LIG1       -0.3535
     11 H           3.7078    2.9471    0.1843 H       1  LIG1        0.1425
     12 H           3.1028    4.3728    0.7706 H       1  LIG1        0.1425
     13 C           0.4695    5.1510   -0.2423 C.ar    1  LIG1        0.1948
     14 C          -0.5790    5.9436   -0.6088 C.ar    1  LIG1        0.0958
     15 C          -0.0779    7.2841   -0.6388 C.ar    1  LIG1        0.0928
     16 C           1.2393    7.2341   -0.2711 C.ar    1  LIG1        0.1600
     17 O           1.5804    5.9157   -0.0426 O.2     1  LIG1       -0.4478
     18 N          -1.8859    5.5967   -0.9838 N.pl3   1  LIG1       -0.3535
     19 H          -2.0215    4.5928   -0.9653 H       1  LIG1        0.1425
     20 H          -2.5771    6.0398   -0.3871 H       1  LIG1        0.1425
     21 N          -0.8768    8.3776   -0.9787 N.pl3   1  LIG1       -0.3536
     22 H          -0.3394    9.1683   -1.3113 H       1  LIG1        0.1425
     23 H          -1.5750    8.1094   -1.6643 H       1  LIG1        0.1425
     24 C           3.6315    8.0155   -0.2884 C.ar    1  LIG1        0.0362
     25 C           4.5119    9.0791   -0.1279 C.ar    1  LIG1       -0.0279
     26 C           2.2559    8.2574   -0.0867 C.ar    1  LIG1        0.0415
     27 C           4.1019   10.3767    0.2024 C.ar    1  LIG1        0.0415
     28 H           5.5753    8.8883   -0.2431 H       1  LIG1        0.0644
     29 C           1.8508    9.5408    0.2964 C.ar    1  LIG1       -0.0279
     30 C           2.7314   10.6100    0.4437 C.ar    1  LIG1        0.0362
     31 H           0.8028    9.7041    0.5301 H       1  LIG1        0.0644
     32 N           4.1360    6.7401   -0.5950 N.pl3   1  LIG1       -0.3574
     33 H           3.4609    6.1221   -1.0208 H       1  LIG1        0.1423
     34 H           5.0007    6.7712   -1.1167 H       1  LIG1        0.1423
     35 N           2.2440   11.8429    0.8685 N.pl3   1  LIG1       -0.3574
     36 H           2.8887   12.6156    0.8197 H       1  LIG1        0.1423
     37 H           1.3064   12.0632    0.5720 H       1  LIG1        0.1423
     38 C           5.1090   11.4310    0.2294 C.ar    1  LIG1        0.1590
     39 C           6.2669   11.5994   -0.4775 C.ar    1  LIG1        0.0920
     40 C           6.8654   12.8171   -0.0149 C.ar    1  LIG1        0.0845
     41 C           6.0284   13.3176    0.9270 C.ar    1  LIG1        0.1150
     42 O           4.9529   12.4984    1.0851 O.2     1  LIG1       -0.4591
     43 H           6.0484   14.2081    1.5346 H       1  LIG1        0.1049
     44 N           6.8515   10.8005   -1.4669 N.pl3   1  LIG1       -0.3536
     45 H           6.1772   10.2004   -1.9259 H       1  LIG1        0.1425
     46 H           7.3254   11.3794   -2.1529 H       1  LIG1        0.1425
     47 N           8.0505   13.3312   -0.5681 N.pl3   1  LIG1       -0.3541
     48 H           8.3086   14.2283   -0.1771 H       1  LIG1        0.1425
     49 H           8.8255   12.6859   -0.4560 H       1  LIG1        0.1425
@<TRIPOS>BOND
     1    46    44    1
     2    45    44    1
     3    23    21    1
     4    44    39    1
     5    22    21    1
     6    34    32    1
     7    33    32    1
     8    18    19    1
     9    18    14    1
    10    18    20    1
    11    21    15    1
    12    15    14   ar
    13    15    16   ar
    14    14    13   ar
    15    32    24    1
    16    47    49    1
    17    47    48    1
    18    47    40    1
    19    39    40   ar
    20    39    38   ar
    21     5     4   ar
    22     5     1   ar
    23    24    25   ar
    24    24    26   ar
    25    16    26    1
    26    16    17   ar
    27    28    25    1
    28    13     4    1
    29    13    17   ar
    30     6     1    1
    31    25    27   ar
    32    26    29   ar
    33     4     3   ar
    34     1     2   ar
    35    40    41   ar
    36     8     7    1
    37    11    10    1
    38    27    38    1
    39    27    30   ar
    40    38    42   ar
    41    29    30   ar
    42    29    31    1
    43     3     2   ar
    44     3    10    1
    45     2     7    1
    46    30    35    1
    47    37    35    1
    48    10    12    1
    49     7     9    1
    50    36    35    1
    51    41    42   ar
    52    41    43    1
