@<TRIPOS>MOLECULE
mol_data/opt/cam/geoms/mol2/12hh12hh12hh12hh-.out
 46 49 0 0 0
SMALL
GASTEIGER

@<TRIPOS>ATOM
      1 C           0.4821    1.7079    0.3581 C.ar    1  LIG1        0.1152
      2 C           1.7872    1.7907   -0.0007 C.ar    1  LIG1        0.0846
      3 C           2.0446    3.1805   -0.2525 C.ar    1  LIG1        0.0951
      4 C           0.8705    3.8426   -0.0097 C.ar    1  LIG1        0.1939
      5 O          -0.0838    2.9524    0.3596 O.2     1  LIG1       -0.4560
      6 H          -0.1618    0.8910    0.6406 H       1  LIG1        0.1049
      7 N           2.7781    0.7961   -0.0680 N.pl3   1  LIG1       -0.3541
      8 H           2.4313   -0.1161    0.2001 H       1  LIG1        0.1425
      9 H           3.1926    0.7301   -0.9911 H       1  LIG1        0.1425
     10 N           3.2827    3.7514   -0.6609 N.pl3   1  LIG1       -0.3535
     11 H           4.0509    3.2354   -0.2406 H       1  LIG1        0.1425
     12 H           3.4022    3.7134   -1.6698 H       1  LIG1        0.1425
     13 C           0.5065    5.2311   -0.0492 C.ar    1  LIG1        0.1950
     14 C           1.2368    6.3903   -0.0179 C.ar    1  LIG1        0.0959
     15 C           0.2858    7.4606   -0.0647 C.ar    1  LIG1        0.0959
     16 C          -0.9581    6.8811   -0.1091 C.ar    1  LIG1        0.1950
     17 O          -0.8362    5.5361   -0.1039 O.2     1  LIG1       -0.4447
     18 N           2.6034    6.5491    0.1309 N.pl3   1  LIG1       -0.3535
     19 H           3.1318    5.7097   -0.1119 H       1  LIG1        0.1425
     20 H           2.9626    7.3856   -0.3080 H       1  LIG1        0.1425
     21 N           0.5742    8.8552   -0.0207 N.pl3   1  LIG1       -0.3535
     22 H           1.1398    9.0810    0.7931 H       1  LIG1        0.1425
     23 H           1.0843    9.1618   -0.8448 H       1  LIG1        0.1425
     24 C          -2.2952    7.3994   -0.1544 C.ar    1  LIG1        0.1950
     25 C          -2.8348    8.6602   -0.2244 C.ar    1  LIG1        0.0959
     26 C          -4.2556    8.4917   -0.2292 C.ar    1  LIG1        0.0959
     27 C          -4.4863    7.1472   -0.1596 C.ar    1  LIG1        0.1950
     28 O          -3.3067    6.4688   -0.1104 O.2     1  LIG1       -0.4447
     29 N          -2.2185    9.8950   -0.3359 N.pl3   1  LIG1       -0.3535
     30 H          -1.2208    9.8546   -0.1318 H       1  LIG1        0.1425
     31 H          -2.7073   10.6110    0.1875 H       1  LIG1        0.1425
     32 N          -5.1587    9.5619   -0.2404 N.pl3   1  LIG1       -0.3535
     33 H          -4.9879   10.1871   -1.0208 H       1  LIG1        0.1425
     34 H          -6.1195    9.2426   -0.2539 H       1  LIG1        0.1425
     35 C          -5.6812    6.3562   -0.1311 C.ar    1  LIG1        0.1939
     36 C          -5.8912    5.0075   -0.0807 C.ar    1  LIG1        0.0951
     37 C          -7.3175    4.8258   -0.0649 C.ar    1  LIG1        0.0846
     38 C          -7.8615    6.0686   -0.1168 C.ar    1  LIG1        0.1152
     39 O          -6.8742    7.0173   -0.1572 O.2     1  LIG1       -0.4560
     40 H          -8.8751    6.4330   -0.1163 H       1  LIG1        0.1049
     41 N          -4.9658    3.9512    0.0003 N.pl3   1  LIG1       -0.3535
     42 H          -4.9472    3.4023   -0.8538 H       1  LIG1        0.1425
     43 H          -4.0274    4.2941    0.1756 H       1  LIG1        0.1425
     44 N          -7.9544    3.5858    0.0475 N.pl3   1  LIG1       -0.3541
     45 H          -8.6242    3.3858   -0.6818 H       1  LIG1        0.1425
     46 H          -7.2831    2.8352    0.1443 H       1  LIG1        0.1425
@<TRIPOS>BOND
     1    12    10    1
     2    33    32    1
     3     9     7    1
     4    42    41    1
     5    23    21    1
     6    45    44    1
     7    10     3    1
     8    10    11    1
     9    29    25    1
    10    29    30    1
    11    29    31    1
    12    20    18    1
    13    34    32    1
    14     3     4   ar
    15     3     2   ar
    16    32    26    1
    17    26    25   ar
    18    26    27   ar
    19    25    24   ar
    20    27    35    1
    21    27    28   ar
    22    39    35   ar
    23    39    38   ar
    24    24    28   ar
    25    24    16    1
    26    35    36   ar
    27    38    40    1
    28    38    37   ar
    29    19    18    1
    30    16    17   ar
    31    16    15   ar
    32    17    13   ar
    33    36    37   ar
    34    36    41    1
    35     7     2    1
    36     7     8    1
    37    37    44    1
    38    15    21    1
    39    15    14   ar
    40    13    14   ar
    41    13     4    1
    42    21    22    1
    43    14    18    1
    44     4     5   ar
    45     2     1   ar
    46    41    43    1
    47    44    46    1
    48     1     5   ar
    49     1     6    1
