@<TRIPOS>MOLECULE
mol_data/opt/cam/geoms/mol2/12hh13ae13al-6ll-.out
 52 55 0 0 0
SMALL
GASTEIGER

@<TRIPOS>ATOM
      1 C           0.4043    1.6672   -0.5242 C.ar    1  LIG1        0.1151
      2 C           1.7567    1.7241   -0.6219 C.ar    1  LIG1        0.0845
      3 C           2.1203    3.0943   -0.4003 C.ar    1  LIG1        0.0934
      4 C           0.9567    3.7657   -0.1647 C.ar    1  LIG1        0.1733
      5 O          -0.1057    2.9017   -0.2541 O.2     1  LIG1       -0.4577
      6 H          -0.3082    0.8651   -0.6306 H       1  LIG1        0.1049
      7 N           2.7019    0.7389   -0.9523 N.pl3   1  LIG1       -0.3541
      8 H           3.3919    0.6183   -0.2183 H       1  LIG1        0.1425
      9 H           2.2801   -0.1569   -1.1612 H       1  LIG1        0.1425
     10 N           3.4332    3.5624   -0.4219 N.pl3   1  LIG1       -0.3536
     11 H           3.9918    3.0428   -1.0904 H       1  LIG1        0.1425
     12 H           3.4925    4.5556   -0.6125 H       1  LIG1        0.1425
     13 C           0.6660    5.1489    0.1025 C.ar    1  LIG1        0.0857
     14 C           1.4670    6.1859    0.5227 C.ar    1  LIG1       -0.0172
     15 C           0.6622    7.3628    0.5649 C.ar    1  LIG1        0.0520
     16 C          -0.6224    7.0024    0.1739 C.ar    1  LIG1        0.0791
     17 N          -0.5955    5.6579   -0.0964 N.ar    1  LIG1       -0.3496
     18 H          -1.3435    5.1291   -0.5154 H       1  LIG1        0.1661
     19 H           2.4997    6.1163    0.8289 H       1  LIG1        0.0652
     20 C           1.0892    8.6553    0.9699 C.1     1  LIG1       -0.0675
     21 C           1.4724    9.7461    1.3106 C.1     1  LIG1       -0.1138
     22 H           1.8118   10.7055    1.6251 H       1  LIG1        0.1232
     23 C          -1.8340    7.7787    0.0547 C.ar    1  LIG1        0.0681
     24 C          -2.0107    9.1393   -0.1410 C.ar    1  LIG1        0.0075
     25 C          -3.4005    9.3606   -0.2114 C.ar    1  LIG1        0.1460
     26 C          -4.0606    8.1429   -0.0594 C.ar    1  LIG1        0.0944
     27 N          -3.0660    7.1984    0.0903 N.ar    1  LIG1       -0.3499
     28 H          -3.2925    6.2479    0.3425 H       1  LIG1        0.1661
     29 H          -1.2149    9.8597   -0.2340 H       1  LIG1        0.0676
     30 O          -4.0494   10.5418   -0.4036 O.3     1  LIG1       -0.4930
     31 C          -3.2255   11.6836   -0.5134 C.3     1  LIG1        0.0789
     32 H          -3.8915   12.5363   -0.6458 H       1  LIG1        0.0660
     33 H          -2.6246   11.8291    0.3915 H       1  LIG1        0.0660
     34 H          -2.5556   11.6097   -1.3777 H       1  LIG1        0.0660
     35 C          -5.9833    6.5202    0.1953 C.ar    1  LIG1        0.2241
     36 C          -5.4787    7.8203   -0.0323 C.ar    1  LIG1        0.0668
     37 C          -6.4416    8.8150   -0.2316 C.ar    1  LIG1       -0.0041
     38 C          -7.7959    8.4983   -0.1983 C.ar    1  LIG1        0.1390
     39 C          -8.1637    7.1802    0.0347 C.ar    1  LIG1        0.0730
     40 N          -7.2620    6.2190    0.2264 N.ar    1  LIG1       -0.2171
     41 H          -6.1037    9.8253   -0.4089 H       1  LIG1        0.0663
     42 H          -9.2140    6.9065    0.0657 H       1  LIG1        0.0868
     43 O          -5.0857    5.5065    0.3982 O.3     1  LIG1       -0.4792
     44 C          -5.6249    4.2152    0.6531 C.3     1  LIG1        0.0804
     45 H          -4.7648    3.5609    0.7966 H       1  LIG1        0.0660
     46 H          -6.2503    4.2210    1.5484 H       1  LIG1        0.0660
     47 H          -6.2299    3.8697   -0.1879 H       1  LIG1        0.0660
     48 O          -8.8080    9.3896   -0.3792 O.3     1  LIG1       -0.4936
     49 C          -8.4627   10.7378   -0.6108 C.3     1  LIG1        0.0789
     50 H          -9.4029   11.2778   -0.7226 H       1  LIG1        0.0660
     51 H          -7.9014   11.1622    0.2300 H       1  LIG1        0.0660
     52 H          -7.8707   10.8529   -1.5265 H       1  LIG1        0.0660
@<TRIPOS>BOND
     1    52    49    1
     2    34    31    1
     3     9     7    1
     4    11    10    1
     5     7     2    1
     6     7     8    1
     7    50    49    1
     8    32    31    1
     9     6     1    1
    10     2     1   ar
    11     2     3   ar
    12    12    10    1
    13    49    48    1
    14    49    51    1
    15     1     5   ar
    16    18    17    1
    17    31    30    1
    18    31    33    1
    19    10     3    1
    20    41    37    1
    21    30    25    1
    22     3     4   ar
    23    48    38    1
    24     5     4   ar
    25    29    24    1
    26    37    38   ar
    27    37    36   ar
    28    25    24   ar
    29    25    26   ar
    30    38    39   ar
    31    47    44    1
    32     4    13    1
    33    24    23   ar
    34    17    13   ar
    35    17    16   ar
    36    26    36    1
    37    26    27   ar
    38    36    35   ar
    39    39    42    1
    40    39    40   ar
    41    23    27   ar
    42    23    16    1
    43    27    28    1
    44    13    14   ar
    45    16    15   ar
    46    35    40   ar
    47    35    43    1
    48    43    44    1
    49    14    15   ar
    50    14    19    1
    51    15    20    1
    52    44    45    1
    53    44    46    1
    54    20    21    3
    55    21    22    1
