@<TRIPOS>MOLECULE
mol_data/opt/cam/geoms/mol2/12hh4ef-13fa-13il-.out
 50 53 0 0 0
SMALL
GASTEIGER

@<TRIPOS>ATOM
      1 C           0.3868    1.8535    1.2402 C.ar    1  LIG1        0.1150
      2 C           1.3601    1.5781    0.3391 C.ar    1  LIG1        0.0845
      3 C           1.7659    2.8382   -0.2198 C.ar    1  LIG1        0.0920
      4 C           1.0056    3.7996    0.3964 C.ar    1  LIG1        0.1585
      5 O           0.1562    3.1866    1.2960 O.2     1  LIG1       -0.4591
      6 H          -0.1887    1.2357    1.9117 H       1  LIG1        0.1049
      7 N           1.9714    0.3652   -0.0297 N.pl3   1  LIG1       -0.3541
      8 H           1.6624   -0.4145    0.5368 H       1  LIG1        0.1425
      9 H           1.8050    0.1469   -1.0071 H       1  LIG1        0.1425
     10 N           2.6855    2.9003   -1.2576 N.pl3   1  LIG1       -0.3536
     11 H           3.1644    3.7893   -1.3292 H       1  LIG1        0.1425
     12 H           3.3522    2.1393   -1.1876 H       1  LIG1        0.1425
     13 C           1.8051    6.1649   -0.0753 C.ar    1  LIG1        0.0362
     14 C           1.4819    7.5147   -0.2455 C.ar    1  LIG1       -0.0329
     15 C           0.7955    5.2328    0.2381 C.ar    1  LIG1        0.0380
     16 C           0.1892    8.0170   -0.0866 C.ar    1  LIG1        0.0445
     17 H           2.2775    8.2051   -0.4899 H       1  LIG1        0.0638
     18 C          -0.4977    5.7328    0.4166 C.ar    1  LIG1       -0.0076
     19 C          -0.7959    7.0739    0.2691 C.ar    1  LIG1        0.1268
     20 H          -1.2907    5.0365    0.6719 H       1  LIG1        0.0662
     21 C           3.1881    5.8062   -0.1560 C.1     1  LIG1       -0.0689
     22 C           4.3651    5.5516   -0.2216 C.1     1  LIG1       -0.1139
     23 H           5.4081    5.3347   -0.2411 H       1  LIG1        0.1232
     24 O          -2.0846    7.5115    0.4538 O.3     1  LIG1       -0.5061
     25 H          -2.6287    6.7712    0.7459 H       1  LIG1        0.2922
     26 C          -0.0855    9.4369   -0.2650 C.ar    1  LIG1        0.0925
     27 C           0.7615   10.4960   -0.5622 C.ar    1  LIG1        0.1428
     28 C           0.0073   11.6866   -0.6141 C.ar    1  LIG1        0.0073
     29 C          -1.3056   11.3442   -0.3416 C.ar    1  LIG1        0.0673
     30 N          -1.3467    9.9962   -0.1473 N.ar    1  LIG1       -0.3500
     31 H          -2.1362    9.4698    0.1923 H       1  LIG1        0.1661
     32 O           2.1023   10.3673   -0.7827 O.3     1  LIG1       -0.5046
     33 H           2.4727   11.2419   -0.9415 H       1  LIG1        0.2922
     34 H           0.3663   12.6733   -0.8689 H       1  LIG1        0.0676
     35 C          -2.5090   12.1508   -0.2823 C.ar    1  LIG1        0.0695
     36 C          -2.7124   13.4438    0.1538 C.ar    1  LIG1        0.0179
     37 C          -4.1027   13.7015   -0.0102 C.ar    1  LIG1        0.1408
     38 C          -4.7095   12.5831   -0.5265 C.ar    1  LIG1        0.0447
     39 N          -3.7239   11.6270   -0.6634 N.ar    1  LIG1       -0.3562
     40 H          -3.8147   10.7980   -1.2267 H       1  LIG1        0.1655
     41 H          -5.7337   12.3806   -0.7913 H       1  LIG1        0.0844
     42 C          -1.7205   14.3937    0.7417 C.3     1  LIG1       -0.0342
     43 H          -2.1666   14.9499    1.5703 H       1  LIG1        0.0279
     44 H          -1.3772   15.1336    0.0101 H       1  LIG1        0.0279
     45 H          -0.8427   13.8608    1.1144 H       1  LIG1        0.0279
     46 O          -4.6513   14.8907    0.3513 O.3     1  LIG1       -0.4933
     47 C          -6.0430   14.9893    0.1612 C.3     1  LIG1        0.0789
     48 H          -6.3412   15.9829    0.4962 H       1  LIG1        0.0660
     49 H          -6.3098   14.8688   -0.8969 H       1  LIG1        0.0660
     50 H          -6.5792   14.2319    0.7476 H       1  LIG1        0.0660
@<TRIPOS>BOND
     1    11    10    1
     2    10    12    1
     3    10     3    1
     4    40    39    1
     5     9     7    1
     6    33    32    1
     7    49    47    1
     8    34    28    1
     9    41    38    1
    10    32    27    1
    11    39    38   ar
    12    39    35   ar
    13    28    27   ar
    14    28    29   ar
    15    27    26   ar
    16    38    37   ar
    17    17    14    1
    18    29    35    1
    19    29    30   ar
    20    35    36   ar
    21    26    30   ar
    22    26    16    1
    23    14    16   ar
    24    14    13   ar
    25    23    22    1
    26    22    21    3
    27     3     2   ar
    28     3     4   ar
    29    21    13    1
    30    30    31    1
    31    16    19   ar
    32    13    15   ar
    33     7     2    1
    34     7     8    1
    35    37    36   ar
    36    37    46    1
    37    44    42    1
    38    36    42    1
    39    47    46    1
    40    47    48    1
    41    47    50    1
    42    15     4    1
    43    15    18   ar
    44    19    18   ar
    45    19    24    1
    46     2     1   ar
    47     4     5   ar
    48    18    20    1
    49    24    25    1
    50    42    45    1
    51    42    43    1
    52     1     5   ar
    53     1     6    1
