@<TRIPOS>MOLECULE
mol_data/opt/cam/geoms/mol2/12hh12hh12hh.out
 35 37 0 0 0
SMALL
GASTEIGER

@<TRIPOS>ATOM
      1 C           0.4420    1.6377    0.2005 C.ar    1  LIG1        0.1152
      2 C           1.7425    1.7636   -0.1638 C.ar    1  LIG1        0.0846
      3 C           1.9801    3.1716   -0.3076 C.ar    1  LIG1        0.0951
      4 C           0.8016    3.7978   -0.0025 C.ar    1  LIG1        0.1939
      5 O          -0.1383    2.8673    0.3044 O.2     1  LIG1       -0.4560
      6 H          -0.1885    0.7920    0.4227 H       1  LIG1        0.1049
      7 N           2.7466    0.7903   -0.3259 N.pl3   1  LIG1       -0.3541
      8 H           2.4307   -0.1360   -0.0676 H       1  LIG1        0.1425
      9 H           3.0966    0.7595   -1.2774 H       1  LIG1        0.1425
     10 N           3.2084    3.7811   -0.6805 N.pl3   1  LIG1       -0.3535
     11 H           3.9817    3.1937   -0.3812 H       1  LIG1        0.1425
     12 H           3.2815    3.9054   -1.6865 H       1  LIG1        0.1425
     13 C           0.4193    5.1829    0.0675 C.ar    1  LIG1        0.1950
     14 C           1.1551    6.3266    0.2475 C.ar    1  LIG1        0.0959
     15 C           0.2131    7.4084    0.2476 C.ar    1  LIG1        0.0959
     16 C          -1.0209    6.8368    0.0676 C.ar    1  LIG1        0.1950
     17 O          -0.9093    5.4800   -0.0369 O.2     1  LIG1       -0.4447
     18 N           2.5172    6.4379    0.4944 N.pl3   1  LIG1       -0.3535
     19 H           3.0447    5.6312    0.1576 H       1  LIG1        0.1425
     20 H           2.9215    7.3111    0.1861 H       1  LIG1        0.1425
     21 N           0.5106    8.7423    0.4946 N.pl3   1  LIG1       -0.3535
     22 H           1.4311    9.0227    0.1861 H       1  LIG1        0.1425
     23 H          -0.2160    9.3757    0.1579 H       1  LIG1        0.1425
     24 C          -2.3403    7.4060   -0.0025 C.ar    1  LIG1        0.1939
     25 C          -2.7985    8.6594   -0.3076 C.ar    1  LIG1        0.0951
     26 C          -4.2258    8.6178   -0.1638 C.ar    1  LIG1        0.0846
     27 C          -4.5293    7.3469    0.2005 C.ar    1  LIG1        0.1152
     28 O          -3.3912    6.6031    0.3044 O.2     1  LIG1       -0.4560
     29 H          -5.4536    6.8387    0.4228 H       1  LIG1        0.1049
     30 N          -2.0258    9.7922   -0.6805 N.pl3   1  LIG1       -0.3535
     31 H          -1.8927    9.8475   -1.6865 H       1  LIG1        0.1425
     32 H          -2.5012   10.6390   -0.3812 H       1  LIG1        0.1425
     33 N          -5.0517    9.7462   -0.3258 N.pl3   1  LIG1       -0.3541
     34 H          -5.0341   10.0971   -1.2774 H       1  LIG1        0.1425
     35 H          -6.0126    9.5607   -0.0675 H       1  LIG1        0.1425
@<TRIPOS>BOND
     1    31    30    1
     2    12    10    1
     3     9     7    1
     4    34    33    1
     5    30    32    1
     6    30    25    1
     7    10    11    1
     8    10     3    1
     9     7     2    1
    10     7     8    1
    11    33    26    1
    12    33    35    1
    13     3     2   ar
    14     3     4   ar
    15    25    26   ar
    16    25    24   ar
    17     2     1   ar
    18    26    27   ar
    19    17    13   ar
    20    17    16   ar
    21     4    13    1
    22     4     5   ar
    23    24    16    1
    24    24    28   ar
    25    13    14   ar
    26    16    15   ar
    27    19    18    1
    28    23    21    1
    29    22    21    1
    30    20    18    1
    31     1     5   ar
    32     1     6    1
    33    27    28   ar
    34    27    29    1
    35    14    15   ar
    36    14    18    1
    37    15    21    1
