@<TRIPOS>MOLECULE
mol_data/opt/cam/geoms/mol2/12hi12df-4di-13ld-.out
 50 53 0 0 0
SMALL
GASTEIGER

@<TRIPOS>ATOM
      1 C           0.4505    1.6266    0.2955 C.ar    1  LIG1        0.1136
      2 C           1.7724    1.7276    0.6014 C.ar    1  LIG1        0.0665
      3 C           2.1352    3.1012    0.3983 C.ar    1  LIG1        0.0191
      4 C           0.9912    3.7141   -0.0338 C.ar    1  LIG1        0.1758
      5 O          -0.0445    2.8349   -0.0839 O.2     1  LIG1       -0.4576
      6 H          -0.2499    0.8071    0.3114 H       1  LIG1        0.1049
      7 N           2.6366    0.7575    1.1125 N.pl3   1  LIG1       -0.3553
      8 H           2.2542   -0.1780    1.0941 H       1  LIG1        0.1424
      9 H           3.5504    0.7683    0.6785 H       1  LIG1        0.1424
     10 C           3.4765    3.6862    0.6940 C.3     1  LIG1       -0.0343
     11 H           3.4028    4.7432    0.9545 H       1  LIG1        0.0279
     12 H           4.1576    3.6173   -0.1597 H       1  LIG1        0.0279
     13 H           3.9281    3.1577    1.5379 H       1  LIG1        0.0279
     14 C           0.6932    5.0687   -0.4176 C.ar    1  LIG1        0.1919
     15 C           1.4366    6.0656   -1.0006 C.ar    1  LIG1        0.1425
     16 C           0.5762    7.2087   -1.1108 C.ar    1  LIG1        0.1812
     17 C          -0.6444    6.8324   -0.5990 C.ar    1  LIG1        0.1796
     18 O          -0.5467    5.5220   -0.1750 O.2     1  LIG1       -0.4465
     19 N           3.8364    5.8807   -1.9163 N.1     1  LIG1       -0.1906
     20 C           2.7599    5.9742   -1.5022 C.1     1  LIG1        0.1068
     21 O           0.9996    8.3206   -1.7220 O.3     1  LIG1       -0.5023
     22 H           0.6066    9.1246   -1.3431 H       1  LIG1        0.2923
     23 C          -2.2741    8.7635   -0.4206 C.ar    1  LIG1        0.0632
     24 C          -3.5912    9.2195   -0.3981 C.ar    1  LIG1       -0.0342
     25 C          -1.9857    7.3891   -0.5161 C.ar    1  LIG1        0.0386
     26 C          -4.6683    8.3373   -0.4271 C.ar    1  LIG1        0.0061
     27 H          -3.7791   10.2833   -0.3300 H       1  LIG1        0.0637
     28 C          -3.0800    6.5173   -0.5159 C.ar    1  LIG1       -0.0462
     29 C          -4.3975    6.9511   -0.4628 C.ar    1  LIG1       -0.0405
     30 H          -2.8815    5.4527   -0.5514 H       1  LIG1        0.0628
     31 N          -0.3403   10.4697   -0.2199 N.1     1  LIG1       -0.1908
     32 C          -1.2222    9.7224   -0.3059 C.1     1  LIG1        0.0999
     33 C          -5.4883    5.9105   -0.4315 C.3     1  LIG1       -0.0391
     34 H          -5.0915    4.9556   -0.0834 H       1  LIG1        0.0278
     35 H          -5.9091    5.7269   -1.4276 H       1  LIG1        0.0278
     36 H          -6.3063    6.2013    0.2308 H       1  LIG1        0.0278
     37 C          -6.0208    8.9023   -0.3802 C.ar    1  LIG1        0.0903
     38 C          -6.4791   10.0278    0.2759 C.ar    1  LIG1        0.1625
     39 C          -7.8696   10.1798   -0.0253 C.ar    1  LIG1        0.1112
     40 C          -8.2097    9.1409   -0.8691 C.ar    1  LIG1        0.0233
     41 N          -7.1045    8.3898   -1.0724 N.ar    1  LIG1       -0.3565
     42 H          -7.0592    7.6001   -1.6937 H       1  LIG1        0.1655
     43 H          -9.1575    8.9080   -1.3279 H       1  LIG1        0.0821
     44 O          -5.6913   10.8449    1.0136 O.3     1  LIG1       -0.4917
     45 C          -6.1413   11.1353    2.3362 C.3     1  LIG1        0.0789
     46 H          -5.3536   11.7284    2.7998 H       1  LIG1        0.0660
     47 H          -7.0696   11.7116    2.3269 H       1  LIG1        0.0660
     48 H          -6.2879   10.2115    2.9052 H       1  LIG1        0.0660
     49 N          -9.4580   12.0440    0.7780 N.1     1  LIG1       -0.1907
     50 C          -8.7475   11.2056    0.4134 C.1     1  LIG1        0.1044
@<TRIPOS>BOND
     1    19    20    3
     2    21    22    1
     3    21    16    1
     4    42    41    1
     5    20    15    1
     6    35    33    1
     7    43    40    1
     8    16    15   ar
     9    16    17   ar
    10    41    40   ar
    11    41    37   ar
    12    15    14   ar
    13    40    39   ar
    14    17    25    1
    15    17    18   ar
    16    30    28    1
    17    25    28   ar
    18    25    23   ar
    19    28    29   ar
    20    29    33    1
    21    29    26   ar
    22    33    34    1
    23    33    36    1
    24    26    24   ar
    25    26    37    1
    26    23    24   ar
    27    23    32    1
    28    14    18   ar
    29    14     4    1
    30    24    27    1
    31    37    38   ar
    32    32    31    3
    33    12    10    1
    34     5     4   ar
    35     5     1   ar
    36     4     3   ar
    37    39    38   ar
    38    39    50    1
    39    38    44    1
    40     1     6    1
    41     1     2   ar
    42     3     2   ar
    43     3    10    1
    44    50    49    3
    45     2     7    1
    46     9     7    1
    47    10    11    1
    48    10    13    1
    49    44    45    1
    50     8     7    1
    51    47    45    1
    52    45    46    1
    53    45    48    1
