@<TRIPOS>MOLECULE
mol_data/opt/cam/geoms/mol2/12hl4ed12hi-13aa-.out
 48 51 0 0 0
SMALL
GASTEIGER

@<TRIPOS>ATOM
      1 C           0.6699    1.7057   -1.3916 C.ar    1  LIG1        0.1169
      2 C           1.7607    1.5952   -0.5919 C.ar    1  LIG1        0.1058
      3 C           2.0330    2.9255   -0.1286 C.ar    1  LIG1        0.1864
      4 C           1.1015    3.7528   -0.6870 C.ar    1  LIG1        0.1793
      5 O           0.2575    3.0070   -1.4524 O.2     1  LIG1       -0.4572
      6 H           0.0949    0.9971   -1.9648 H       1  LIG1        0.1050
      7 N           2.4914    0.4791   -0.1831 N.pl3   1  LIG1       -0.3527
      8 H           2.3855   -0.3245   -0.7870 H       1  LIG1        0.1425
      9 H           3.4710    0.7019   -0.0569 H       1  LIG1        0.1425
     10 O           3.0435    3.2428    0.7255 O.3     1  LIG1       -0.4896
     11 C           2.7604    2.9130    2.0840 C.3     1  LIG1        0.0791
     12 H           3.6473    3.1811    2.6593 H       1  LIG1        0.0660
     13 H           1.9017    3.4847    2.4512 H       1  LIG1        0.0660
     14 H           2.5561    1.8432    2.1966 H       1  LIG1        0.0660
     15 C           1.7609    6.1931   -0.5369 C.ar    1  LIG1        0.0362
     16 C           1.3682    7.5245   -0.3992 C.ar    1  LIG1       -0.0337
     17 C           0.7854    5.1736   -0.5738 C.ar    1  LIG1        0.0376
     18 C           0.0266    7.9151   -0.3377 C.ar    1  LIG1        0.0376
     19 H           2.1428    8.2761   -0.3133 H       1  LIG1        0.0637
     20 C          -0.5534    5.5523   -0.5146 C.ar    1  LIG1       -0.0317
     21 C          -0.9448    6.8843   -0.4052 C.ar    1  LIG1        0.0632
     22 H          -1.3154    4.7833   -0.5579 H       1  LIG1        0.0638
     23 C           3.1587    5.9236   -0.6801 C.1     1  LIG1       -0.0689
     24 C           4.3414    5.7613   -0.8290 C.1     1  LIG1       -0.1139
     25 H           5.3856    5.5843   -0.9459 H       1  LIG1        0.1232
     26 N          -3.4989    7.3299   -0.3495 N.1     1  LIG1       -0.1908
     27 C          -2.3555    7.1498   -0.3718 C.1     1  LIG1        0.0999
     28 C          -0.3222    9.3080   -0.2170 C.ar    1  LIG1        0.1578
     29 C           0.3348   10.4954   -0.4510 C.ar    1  LIG1        0.0746
     30 C          -0.5926   11.5526   -0.1798 C.ar    1  LIG1        0.0181
     31 C          -1.7546   10.9361    0.2020 C.ar    1  LIG1        0.1565
     32 O          -1.5999    9.5956    0.1847 O.2     1  LIG1       -0.4511
     33 N           1.6476   10.6735   -0.8726 N.pl3   1  LIG1       -0.3548
     34 H           1.9652    9.9954   -1.5523 H       1  LIG1        0.1424
     35 H           1.8450   11.6144   -1.1840 H       1  LIG1        0.1424
     36 C          -0.3439   13.0159   -0.3446 C.3     1  LIG1       -0.0343
     37 H           0.1366   13.4604    0.5335 H       1  LIG1        0.0279
     38 H          -1.2813   13.5484   -0.5180 H       1  LIG1        0.0279
     39 H           0.3027   13.2153   -1.2064 H       1  LIG1        0.0279
     40 C          -3.0801   11.3795    0.5534 C.ar    1  LIG1        0.0824
     41 C          -3.5873   12.6058    0.9428 C.ar    1  LIG1       -0.0334
     42 C          -4.9769   12.4405    1.1467 C.ar    1  LIG1       -0.0437
     43 C          -5.2755   11.1237    0.8810 C.ar    1  LIG1        0.0023
     44 N          -4.1263   10.4881    0.5242 N.ar    1  LIG1       -0.3583
     45 H          -4.0396    9.5108    0.2675 H       1  LIG1        0.1654
     46 H          -6.2145   10.5931    0.9196 H       1  LIG1        0.0807
     47 H          -3.0141   13.5084    1.0927 H       1  LIG1        0.0640
     48 H          -5.6787   13.1988    1.4608 H       1  LIG1        0.0633
@<TRIPOS>BOND
     1     6     1    1
     2    34    33    1
     3     5     1   ar
     4     5     4   ar
     5     1     2   ar
     6    39    36    1
     7    35    33    1
     8    25    24    1
     9    33    29    1
    10    24    23    3
    11     8     7    1
    12     4    17    1
    13     4     3   ar
    14    23    15    1
    15     2     7    1
    16     2     3   ar
    17    17    15   ar
    18    17    20   ar
    19    22    20    1
    20    15    16   ar
    21    38    36    1
    22    20    21   ar
    23    29    28   ar
    24    29    30   ar
    25    21    27    1
    26    21    18   ar
    27    16    18   ar
    28    16    19    1
    29    27    26    3
    30    36    30    1
    31    36    37    1
    32    18    28    1
    33    28    32   ar
    34     7     9    1
    35    30    31   ar
    36     3    10    1
    37    32    31   ar
    38    31    40    1
    39    45    44    1
    40    44    40   ar
    41    44    43   ar
    42    40    41   ar
    43    10    11    1
    44    43    46    1
    45    43    42   ar
    46    41    47    1
    47    41    42   ar
    48    42    48    1
    49    11    14    1
    50    11    13    1
    51    11    12    1
