@<TRIPOS>MOLECULE
mol_data/opt/cam/geoms/mol2/12hl13hi-4hi4ll.out
 53 56 0 0 0
SMALL
GASTEIGER

@<TRIPOS>ATOM
      1 C           2.0169   13.8749   12.2156 C.ar    1  LIG1        0.1150
      2 C           3.1686   13.1572   12.0696 C.ar    1  LIG1        0.0845
      3 C           3.3177   12.9224   10.6596 C.ar    1  LIG1        0.0920
      4 C           2.2481   13.5338   10.0407 C.ar    1  LIG1        0.1586
      5 O           1.4361   14.0997   11.0055 O.2     1  LIG1       -0.4591
      6 H           1.4965   14.2638   13.0772 H       1  LIG1        0.1049
      7 N           4.0585   12.6207   13.0266 N.pl3   1  LIG1       -0.3541
      8 H           4.9725   13.0646   12.9818 H       1  LIG1        0.1425
      9 H           3.7058   12.7127   13.9728 H       1  LIG1        0.1425
     10 N           4.3861   12.2013   10.1169 N.pl3   1  LIG1       -0.3536
     11 H           4.7567   11.5520   10.8056 H       1  LIG1        0.1425
     12 H           4.1409   11.7002    9.2704 H       1  LIG1        0.1425
     13 C           0.5027   13.9817    8.3159 C.ar    1  LIG1        0.0390
     14 C           1.8320   13.6545    8.6598 C.ar    1  LIG1        0.0373
     15 C           2.7144   13.4481    7.5853 C.ar    1  LIG1       -0.0475
     16 C           2.2516   13.5657    6.2808 C.ar    1  LIG1       -0.0350
     17 C           0.9111   13.9091    6.0410 C.ar    1  LIG1        0.0713
     18 N           0.0575   14.1044    7.0701 N.ar    1  LIG1       -0.2543
     19 H           3.7614   13.2271    7.7683 H       1  LIG1        0.0626
     20 H          -0.2249   14.1509    9.1061 H       1  LIG1        0.0837
     21 H           2.9257   13.3781    5.4543 H       1  LIG1        0.0639
     22 C           0.9993   14.5728    3.5613 C.ar    1  LIG1       -0.0407
     23 C           0.3475   14.5915    2.3231 C.ar    1  LIG1       -0.0504
     24 C           0.3283   14.0142    4.6752 C.ar    1  LIG1        0.0033
     25 C          -0.9459   14.0857    2.1371 C.ar    1  LIG1       -0.0140
     26 H           0.8613   15.0330    1.4764 H       1  LIG1        0.0626
     27 C          -0.9801   13.5330    4.4967 C.ar    1  LIG1       -0.0517
     28 C          -1.6054   13.5579    3.2584 C.ar    1  LIG1       -0.0533
     29 H          -1.4974   13.1298    5.3602 H       1  LIG1        0.0624
     30 C           2.3730   15.2059    3.6420 C.3     1  LIG1       -0.0391
     31 H           2.4876   15.9559    2.8543 H       1  LIG1        0.0278
     32 H           3.1768   14.4723    3.5003 H       1  LIG1        0.0278
     33 H           2.5465   15.6954    4.6037 H       1  LIG1        0.0278
     34 H          -2.6056   13.1490    3.1516 H       1  LIG1        0.0624
     35 C          -1.0088   13.7989   -0.3976 C.ar    1  LIG1        0.1280
     36 C          -1.7218   13.8658   -1.5931 C.ar    1  LIG1       -0.0159
     37 C          -1.6405   14.1528    0.8232 C.ar    1  LIG1        0.0272
     38 C          -3.0600   14.2795   -1.6171 C.ar    1  LIG1       -0.0165
     39 H          -1.2502   13.5920   -2.5289 H       1  LIG1        0.0655
     40 C          -2.9747   14.5597    0.7758 C.ar    1  LIG1       -0.0087
     41 C          -3.6920   14.6275   -0.4256 C.ar    1  LIG1        0.1209
     42 H          -3.4800   14.8563    1.6886 H       1  LIG1        0.0661
     43 H          -3.5792   14.3227   -2.5669 H       1  LIG1        0.0655
     44 O           0.2955   13.3817   -0.3166 O.3     1  LIG1       -0.4945
     45 C           0.9360   12.9455   -1.5014 C.3     1  LIG1        0.0788
     46 H           1.9381   12.6322   -1.2038 H       1  LIG1        0.0660
     47 H           0.4127   12.0943   -1.9566 H       1  LIG1        0.0660
     48 H           1.0175   13.7509   -2.2436 H       1  LIG1        0.0660
     49 O          -4.9910   15.0510   -0.3175 O.3     1  LIG1       -0.4951
     50 C          -5.7566   15.1427   -1.5052 C.3     1  LIG1        0.0788
     51 H          -6.7448   15.4933   -1.2032 H       1  LIG1        0.0660
     52 H          -5.3228   15.8593   -2.2156 H       1  LIG1        0.0660
     53 H          -5.8573   14.1680   -2.0014 H       1  LIG1        0.0660
@<TRIPOS>BOND
     1    43    38    1
     2    39    36    1
     3    48    45    1
     4    52    50    1
     5    53    50    1
     6    47    45    1
     7    38    36   ar
     8    38    41   ar
     9    36    35   ar
    10    50    51    1
    11    50    49    1
    12    45    46    1
    13    45    44    1
    14    41    49    1
    15    41    40   ar
    16    35    44    1
    17    35    37   ar
    18    40    37   ar
    19    40    42    1
    20    37    25    1
    21    26    23    1
    22    25    23   ar
    23    25    28   ar
    24    23    22   ar
    25    31    30    1
    26    34    28    1
    27    28    27   ar
    28    32    30    1
    29    22    30    1
    30    22    24   ar
    31    30    33    1
    32    27    24   ar
    33    27    29    1
    34    24    17    1
    35    21    16    1
    36    17    16   ar
    37    17    18   ar
    38    16    15   ar
    39    18    13   ar
    40    15    19    1
    41    15    14   ar
    42    13    14   ar
    43    13    20    1
    44    14     4    1
    45    12    10    1
    46     4     3   ar
    47     4     5   ar
    48    10     3    1
    49    10    11    1
    50     3     2   ar
    51     5     1   ar
    52     2     1   ar
    53     2     7    1
    54     1     6    1
    55     8     7    1
    56     7     9    1
