@<TRIPOS>MOLECULE
mol_data/opt/cam/geoms/mol2/12hl13ed-4ff-6da-.out
 48 51 0 0 0
SMALL
GASTEIGER

@<TRIPOS>ATOM
      1 C           0.0577    1.7006    0.1206 C.ar    1  LIG1        0.1170
      2 C           1.3864    1.5377   -0.0974 C.ar    1  LIG1        0.1059
      3 C           1.9237    2.8606   -0.2532 C.ar    1  LIG1        0.1878
      4 C           0.8866    3.7380   -0.1161 C.ar    1  LIG1        0.1954
      5 O          -0.2591    3.0342    0.1130 O.2     1  LIG1       -0.4557
      6 H          -0.7579    1.0193    0.2975 H       1  LIG1        0.1050
      7 N           2.1782    0.3936   -0.1341 N.pl3   1  LIG1       -0.3527
      8 H           1.6716   -0.4575   -0.3342 H       1  LIG1        0.1425
      9 H           2.9627    0.5036   -0.7646 H       1  LIG1        0.1425
     10 O           3.2241    3.1125   -0.5474 O.3     1  LIG1       -0.4896
     11 C           4.0932    3.0719    0.5856 C.3     1  LIG1        0.0791
     12 H           5.1068    3.1833    0.1997 H       1  LIG1        0.0660
     13 H           3.8753    3.8988    1.2667 H       1  LIG1        0.0660
     14 H           4.0013    2.1175    1.1141 H       1  LIG1        0.0660
     15 C           0.7061    5.1691   -0.1728 C.ar    1  LIG1        0.1031
     16 C           1.5621    6.2553   -0.2828 C.ar    1  LIG1        0.0710
     17 C           0.7381    7.4299   -0.2368 C.ar    1  LIG1        0.0931
     18 C          -0.5798    7.0292   -0.1028 C.ar    1  LIG1        0.0694
     19 N          -0.5686    5.6652   -0.0770 N.ar    1  LIG1       -0.3495
     20 H          -1.3720    5.0793    0.0922 H       1  LIG1        0.1661
     21 C           2.9740    6.2753   -0.4124 C.1     1  LIG1       -0.0661
     22 C           4.1696    6.3699   -0.5165 C.1     1  LIG1       -0.1138
     23 H           5.2259    6.4526   -0.6271 H       1  LIG1        0.1232
     24 N           1.5880    9.8473   -0.5138 N.1     1  LIG1       -0.1908
     25 C           1.2038    8.7640   -0.3793 C.1     1  LIG1        0.1025
     26 C          -1.9790    8.9344    0.7137 C.ar    1  LIG1        0.1268
     27 C          -3.1872    9.6195    0.7147 C.ar    1  LIG1       -0.0082
     28 C          -1.8385    7.7774   -0.0641 C.ar    1  LIG1        0.0445
     29 C          -4.2828    9.1759   -0.0248 C.ar    1  LIG1        0.0298
     30 H          -3.2979   10.4971    1.3453 H       1  LIG1        0.0661
     31 C          -2.9337    7.3393   -0.8122 C.ar    1  LIG1       -0.0069
     32 C          -4.1417    8.0218   -0.8027 C.ar    1  LIG1        0.1255
     33 H          -2.8201    6.4744   -1.4598 H       1  LIG1        0.0662
     34 O          -0.9262    9.3095    1.4845 O.3     1  LIG1       -0.5061
     35 H          -1.0143   10.2318    1.7501 H       1  LIG1        0.2922
     36 O          -5.1997    7.6473   -1.5745 O.3     1  LIG1       -0.5061
     37 H          -5.1240    6.7159   -1.8107 H       1  LIG1        0.2922
     38 C          -6.7796    9.3486    0.3833 C.ar    1  LIG1        0.1478
     39 C          -5.5570    9.9320    0.0124 C.ar    1  LIG1        0.0216
     40 C          -5.5880   11.2924   -0.2915 C.ar    1  LIG1       -0.0498
     41 C          -6.7848   11.9874   -0.2321 C.ar    1  LIG1       -0.0429
     42 C          -7.9354   11.2979    0.1331 C.ar    1  LIG1        0.0291
     43 N          -7.9390   10.0059    0.4416 N.ar    1  LIG1       -0.2440
     44 H          -4.6708   11.7901   -0.5886 H       1  LIG1        0.0625
     45 H          -8.8951   11.8047    0.1844 H       1  LIG1        0.0830
     46 N          -6.8844    6.8508    1.1049 N.1     1  LIG1       -0.1893
     47 C          -6.8416    7.9571    0.7745 C.1     1  LIG1        0.1197
     48 H          -6.8309   13.0438   -0.4710 H       1  LIG1        0.0633
@<TRIPOS>BOND
     1    37    36    1
     2    36    32    1
     3    33    31    1
     4    31    32   ar
     5    31    28   ar
     6    32    29   ar
     7     9     7    1
     8    23    22    1
     9    44    40    1
    10    10     3    1
    11    10    11    1
    12    22    21    3
    13    24    25    3
    14    48    41    1
    15    21    16    1
    16    25    17    1
    17     8     7    1
    18    40    41   ar
    19    40    39   ar
    20    16    17   ar
    21    16    15   ar
    22     3     4   ar
    23     3     2   ar
    24    17    18   ar
    25    41    42   ar
    26    15     4    1
    27    15    19   ar
    28     7     2    1
    29     4     5   ar
    30    18    19   ar
    31    18    28    1
    32     2     1   ar
    33    19    20    1
    34    28    26   ar
    35    29    39    1
    36    29    27   ar
    37    39    38   ar
    38     5     1   ar
    39     1     6    1
    40    42    45    1
    41    42    43   ar
    42    12    11    1
    43    38    43   ar
    44    38    47    1
    45    11    14    1
    46    11    13    1
    47    26    27   ar
    48    26    34    1
    49    27    30    1
    50    47    46    3
    51    34    35    1
