@<TRIPOS>MOLECULE
mol_data/opt/cam/geoms/mol2/12ia13di-6el4li-.out
 50 53 0 0 0
SMALL
GASTEIGER

@<TRIPOS>ATOM
      1 C           0.6529    1.6021   -0.2116 C.ar    1  LIG1        0.0956
      2 C           1.9368    1.7707    0.2164 C.ar    1  LIG1       -0.0120
      3 C           2.1205    3.1901    0.3227 C.ar    1  LIG1       -0.0098
      4 C           0.9332    3.7731   -0.0525 C.ar    1  LIG1        0.1719
      5 O           0.0267    2.8051   -0.3851 O.2     1  LIG1       -0.4595
      6 H           0.0567    0.7288   -0.4264 H       1  LIG1        0.1032
      7 C           2.9393    0.6996    0.5243 C.3     1  LIG1       -0.0367
      8 H           3.2804    0.7587    1.5640 H       1  LIG1        0.0278
      9 H           3.8272    0.7864   -0.1124 H       1  LIG1        0.0278
     10 H           2.5147   -0.2962    0.3694 H       1  LIG1        0.0278
     11 H           2.9966    3.7089    0.6850 H       1  LIG1        0.0659
     12 C           0.5312    5.1446   -0.1609 C.ar    1  LIG1        0.1948
     13 C           1.2772    6.3034   -0.1837 C.ar    1  LIG1        0.1169
     14 C           0.3390    7.3732   -0.3014 C.ar    1  LIG1        0.1846
     15 C          -0.9251    6.8108   -0.3727 C.ar    1  LIG1        0.1807
     16 O          -0.8028    5.4404   -0.2822 O.2     1  LIG1       -0.4460
     17 N           2.6577    6.4626   -0.0609 N.pl3   1  LIG1       -0.3521
     18 H           3.1895    5.7530   -0.5532 H       1  LIG1        0.1425
     19 H           2.9504    7.3924   -0.3388 H       1  LIG1        0.1425
     20 O           0.7381    8.6641   -0.3052 O.3     1  LIG1       -0.5020
     21 H          -0.0230    9.2101   -0.6217 H       1  LIG1        0.2924
     22 C          -2.5824    8.6200   -0.9246 C.ar    1  LIG1        0.0361
     23 C          -3.8687    9.1413   -0.8182 C.ar    1  LIG1       -0.0313
     24 C          -2.2731    7.3491   -0.3802 C.ar    1  LIG1        0.0428
     25 C          -4.9221    8.4341   -0.2265 C.ar    1  LIG1        0.0049
     26 H          -4.0728   10.1227   -1.2328 H       1  LIG1        0.0643
     27 C          -3.3290    6.6166    0.1785 C.ar    1  LIG1       -0.0312
     28 C          -4.6282    7.1350    0.2604 C.ar    1  LIG1        0.0604
     29 H          -3.1237    5.6350    0.5881 H       1  LIG1        0.0638
     30 N          -1.5551    9.3570   -1.5842 N.pl3   1  LIG1       -0.3574
     31 H          -1.1545    8.8157   -2.3497 H       1  LIG1        0.1423
     32 H          -1.9002   10.2370   -1.9543 H       1  LIG1        0.1423
     33 N          -6.3936    5.6171    1.4142 N.1     1  LIG1       -0.1908
     34 C          -5.6201    6.3173    0.8979 C.1     1  LIG1        0.0998
     35 C          -6.5213   10.3346    0.2738 C.ar    1  LIG1        0.1280
     36 C          -7.8240   10.8425    0.2944 C.ar    1  LIG1       -0.0159
     37 C          -6.2890    9.0154   -0.1819 C.ar    1  LIG1        0.0285
     38 C          -8.9022   10.0657   -0.1261 C.ar    1  LIG1       -0.0167
     39 H          -8.0134   11.8487    0.6472 H       1  LIG1        0.0655
     40 C          -7.3871    8.2571   -0.6097 C.ar    1  LIG1       -0.0089
     41 C          -8.6871    8.7644   -0.5765 C.ar    1  LIG1        0.1177
     42 H          -7.2185    7.2504   -0.9801 H       1  LIG1        0.0661
     43 H          -9.9126   10.4594   -0.1039 H       1  LIG1        0.0655
     44 O          -5.4248   11.0470    0.6893 O.3     1  LIG1       -0.4945
     45 C          -5.6328   12.3169    1.2850 C.3     1  LIG1        0.0788
     46 H          -4.6471   12.6683    1.5938 H       1  LIG1        0.0660
     47 H          -6.0644   13.0359    0.5761 H       1  LIG1        0.0660
     48 H          -6.2836   12.2487    2.1657 H       1  LIG1        0.0660
     49 O          -9.7736    8.0405   -0.9871 O.3     1  LIG1       -0.5067
     50 H          -9.5014    7.1278   -1.1498 H       1  LIG1        0.2921
@<TRIPOS>BOND
     1    31    30    1
     2    32    30    1
     3    30    22    1
     4    26    23    1
     5    50    49    1
     6    49    41    1
     7    42    40    1
     8    22    23   ar
     9    22    24   ar
    10    23    25   ar
    11    21    20    1
    12    40    41   ar
    13    40    37   ar
    14    41    38   ar
    15    18    17    1
    16     6     1    1
    17     5     1   ar
    18     5     4   ar
    19    24    15    1
    20    24    27   ar
    21    15    14   ar
    22    15    16   ar
    23    19    17    1
    24    20    14    1
    25    14    13   ar
    26    16    12   ar
    27    25    37    1
    28    25    28   ar
    29     1     2   ar
    30    13    12   ar
    31    13    17    1
    32    37    35   ar
    33    12     4    1
    34    38    43    1
    35    38    36   ar
    36     9     7    1
    37     4     3   ar
    38    27    28   ar
    39    27    29    1
    40     2     3   ar
    41     2     7    1
    42    28    34    1
    43    35    36   ar
    44    35    44    1
    45    36    39    1
    46     3    11    1
    47    10     7    1
    48     7     8    1
    49    47    45    1
    50    44    45    1
    51    34    33    3
    52    45    46    1
    53    45    48    1
