@<TRIPOS>MOLECULE
mol_data/opt/cam/geoms/mol2/12ia12ia-12ia-12ia-.out
 42 45 0 0 0
SMALL
GASTEIGER

@<TRIPOS>ATOM
      1 C          -0.0094    1.7311    0.0666 C.ar    1  LIG1        0.0956
      2 C           1.3376    1.6863   -0.0806 C.ar    1  LIG1       -0.0120
      3 C           1.7658    3.0536   -0.1027 C.ar    1  LIG1       -0.0099
      4 C           0.6456    3.8150    0.0330 C.ar    1  LIG1        0.1702
      5 O          -0.4509    3.0179    0.1375 O.2     1  LIG1       -0.4596
      6 H          -0.7689    0.9684    0.1352 H       1  LIG1        0.1032
      7 C           2.1963    0.4679   -0.1958 C.3     1  LIG1       -0.0367
      8 H           2.9363    0.4267    0.6090 H       1  LIG1        0.0278
      9 H           2.7445    0.4570   -1.1425 H       1  LIG1        0.0278
     10 H           1.5970   -0.4440   -0.1460 H       1  LIG1        0.0278
     11 H           2.7736    3.4269   -0.2050 H       1  LIG1        0.0659
     12 C           0.4531    5.2427    0.0797 C.ar    1  LIG1        0.1736
     13 C          -0.6282    6.0672    0.2272 C.ar    1  LIG1       -0.0009
     14 C          -0.1001    7.3941    0.1940 C.ar    1  LIG1       -0.0091
     15 C           1.2496    7.2851    0.0243 C.ar    1  LIG1        0.1713
     16 O           1.5971    5.9748   -0.0465 O.2     1  LIG1       -0.4484
     17 C          -2.0674    5.6975    0.3988 C.3     1  LIG1       -0.0360
     18 H          -2.1975    4.6173    0.4393 H       1  LIG1        0.0279
     19 H          -2.6707    6.0827   -0.4294 H       1  LIG1        0.0279
     20 H          -2.4717    6.1269    1.3206 H       1  LIG1        0.0279
     21 H          -0.6609    8.3094    0.3072 H       1  LIG1        0.0659
     22 C           2.3052    8.2554   -0.0962 C.ar    1  LIG1        0.1736
     23 C           2.2936    9.6071   -0.3150 C.ar    1  LIG1       -0.0009
     24 C           3.6634   10.0005   -0.3344 C.ar    1  LIG1       -0.0091
     25 C           4.4058    8.8731   -0.1272 C.ar    1  LIG1        0.1712
     26 O           3.5844    7.8033    0.0205 O.2     1  LIG1       -0.4484
     27 C           1.1016   10.4865   -0.5153 C.3     1  LIG1       -0.0360
     28 H           0.6260   10.7516    0.4353 H       1  LIG1        0.0279
     29 H           0.3459    9.9942   -1.1339 H       1  LIG1        0.0279
     30 H           1.3865   11.4175   -1.0097 H       1  LIG1        0.0279
     31 H           4.0428   10.9947   -0.5158 H       1  LIG1        0.0659
     32 C           5.8244    8.6379   -0.0307 C.ar    1  LIG1        0.1726
     33 C           6.8843    9.4786    0.1733 C.ar    1  LIG1       -0.0017
     34 C           8.0421    8.6376    0.1582 C.ar    1  LIG1       -0.0203
     35 C           7.6019    7.3728   -0.0435 C.ar    1  LIG1        0.0930
     36 O           6.2544    7.3525   -0.1623 O.2     1  LIG1       -0.4596
     37 H           8.0965    6.4177   -0.1197 H       1  LIG1        0.1029
     38 C           6.8471   10.9584    0.3815 C.3     1  LIG1       -0.0360
     39 H           5.9676   11.2545    0.9599 H       1  LIG1        0.0279
     40 H           6.8155   11.5042   -0.5680 H       1  LIG1        0.0279
     41 H           7.7343   11.2958    0.9220 H       1  LIG1        0.0279
     42 H           9.0674    8.9500    0.2933 H       1  LIG1        0.0652
@<TRIPOS>BOND
     1     9     7    1
     2    29    27    1
     3    30    27    1
     4    40    38    1
     5    31    24    1
     6    27    23    1
     7    27    28    1
     8    19    17    1
     9    24    23   ar
    10    24    25   ar
    11    23    22   ar
    12    11     3    1
    13     7    10    1
    14     7     2    1
    15     7     8    1
    16    36    35   ar
    17    36    32   ar
    18    25    32    1
    19    25    26   ar
    20    37    35    1
    21     3     2   ar
    22     3     4   ar
    23    22    26   ar
    24    22    15    1
    25     2     1   ar
    26    16    15   ar
    27    16    12   ar
    28    35    34   ar
    29    32    33   ar
    30    15    14   ar
    31     4    12    1
    32     4     5   ar
    33     1     6    1
    34     1     5   ar
    35    12    13   ar
    36    34    33   ar
    37    34    42    1
    38    33    38    1
    39    14    13   ar
    40    14    21    1
    41    13    17    1
    42    38    41    1
    43    38    39    1
    44    17    18    1
    45    17    20    1
