@<TRIPOS>MOLECULE
mol_data/opt/cam/geoms/mol2/12ia12ia-12ia12ia.out
 42 45 0 0 0
SMALL
GASTEIGER

@<TRIPOS>ATOM
      1 C           0.2029    1.7375   -0.0735 C.ar    1  LIG1        0.0956
      2 C           1.5580    1.7679   -0.0870 C.ar    1  LIG1       -0.0120
      3 C           1.9094    3.1570   -0.0599 C.ar    1  LIG1       -0.0099
      4 C           0.7407    3.8557   -0.0313 C.ar    1  LIG1        0.1702
      5 O          -0.3135    2.9976   -0.0388 O.2     1  LIG1       -0.4596
      6 H          -0.5163    0.9340   -0.0842 H       1  LIG1        0.1032
      7 C           2.4907    0.6001   -0.1240 C.3     1  LIG1       -0.0367
      8 H           3.1489    0.5899    0.7499 H       1  LIG1        0.0278
      9 H           3.1292    0.6301   -1.0119 H       1  LIG1        0.0278
     10 H           1.9414   -0.3438   -0.1394 H       1  LIG1        0.0278
     11 H           2.9020    3.5814   -0.0650 H       1  LIG1        0.0659
     12 C           0.4602    5.2689    0.0034 C.ar    1  LIG1        0.1736
     13 C          -0.6766    6.0291   -0.0071 C.ar    1  LIG1       -0.0009
     14 C          -0.2307    7.3853    0.0403 C.ar    1  LIG1       -0.0091
     15 C           1.1300    7.3575    0.0757 C.ar    1  LIG1        0.1713
     16 O           1.5672    6.0709    0.0523 O.2     1  LIG1       -0.4484
     17 C          -2.1008    5.5750   -0.0576 C.3     1  LIG1       -0.0360
     18 H          -2.1715    4.4904   -0.1204 H       1  LIG1        0.0279
     19 H          -2.6135    6.0045   -0.9237 H       1  LIG1        0.0279
     20 H          -2.6443    5.9018    0.8345 H       1  LIG1        0.0279
     21 H          -0.8444    8.2735    0.0486 H       1  LIG1        0.0659
     22 C           2.1154    8.4044    0.1284 C.ar    1  LIG1        0.1736
     23 C           3.4791    8.4379    0.2354 C.ar    1  LIG1       -0.0009
     24 C           3.8236    9.8238    0.2461 C.ar    1  LIG1       -0.0091
     25 C           2.6602   10.5285    0.1417 C.ar    1  LIG1        0.1712
     26 O           1.6106    9.6706    0.0686 O.2     1  LIG1       -0.4484
     27 C           4.4342    7.2908    0.3288 C.3     1  LIG1       -0.0360
     28 H           5.1914    7.4813    1.0946 H       1  LIG1        0.0279
     29 H           4.9612    7.1375   -0.6188 H       1  LIG1        0.0279
     30 H           3.9182    6.3641    0.5768 H       1  LIG1        0.0279
     31 H           4.8160   10.2361    0.3489 H       1  LIG1        0.0659
     32 C           2.3670   11.9382    0.0850 C.ar    1  LIG1        0.1726
     33 C           3.1521   13.0325   -0.1549 C.ar    1  LIG1       -0.0017
     34 C           2.2715   14.1568   -0.0645 C.ar    1  LIG1       -0.0203
     35 C           1.0400   13.6658    0.2120 C.ar    1  LIG1        0.0930
     36 O           1.0776   12.3166    0.3080 O.2     1  LIG1       -0.4596
     37 H           0.0744   14.1225    0.3595 H       1  LIG1        0.1029
     38 C           4.6156   13.0548   -0.4586 C.3     1  LIG1       -0.0360
     39 H           4.8871   13.9703   -0.9888 H       1  LIG1        0.0279
     40 H           4.9028   12.2053   -1.0846 H       1  LIG1        0.0279
     41 H           5.2226   13.0118    0.4525 H       1  LIG1        0.0279
     42 H           2.5362   15.1952   -0.2012 H       1  LIG1        0.0652
@<TRIPOS>BOND
     1    40    38    1
     2     9     7    1
     3    39    38    1
     4    19    17    1
     5    29    27    1
     6    38    33    1
     7    38    41    1
     8    42    34    1
     9    33    34   ar
    10    33    32   ar
    11    10     7    1
    12     7     2    1
    13     7     8    1
    14    18    17    1
    15     2     1   ar
    16     2     3   ar
    17     6     1    1
    18     1     5   ar
    19    11     3    1
    20    34    35   ar
    21     3     4   ar
    22    17    13    1
    23    17    20    1
    24     5     4   ar
    25     4    12    1
    26    13    12   ar
    27    13    14   ar
    28    12    16   ar
    29    14    21    1
    30    14    15   ar
    31    16    15   ar
    32    26    22   ar
    33    26    25   ar
    34    15    22    1
    35    32    25    1
    36    32    36   ar
    37    22    23   ar
    38    25    24   ar
    39    35    36   ar
    40    35    37    1
    41    23    24   ar
    42    23    27    1
    43    24    31    1
    44    27    30    1
    45    27    28    1
