@<TRIPOS>MOLECULE
mol_data/opt/cam/geoms/mol2/12ia13di12id-4hi-.out
 50 53 0 0 0
SMALL
GASTEIGER

@<TRIPOS>ATOM
      1 C           0.4776    2.0260   -1.6315 C.ar    1  LIG1        0.0955
      2 C           1.7508    1.9012   -1.1808 C.ar    1  LIG1       -0.0121
      3 C           2.0525    3.1424   -0.5313 C.ar    1  LIG1       -0.0115
      4 C           0.9399    3.9177   -0.6406 C.ar    1  LIG1        0.1524
      5 O          -0.0363    3.2460   -1.3145 O.2     1  LIG1       -0.4612
      6 H          -0.1790    1.3639   -2.1735 H       1  LIG1        0.1032
      7 C           2.6541    0.7191   -1.3272 C.3     1  LIG1       -0.0367
      8 H           2.9631    0.3349   -0.3509 H       1  LIG1        0.0278
      9 H           3.5627    0.9817   -1.8764 H       1  LIG1        0.0278
     10 H           2.1591   -0.0919   -1.8655 H       1  LIG1        0.0278
     11 H           2.9764    3.4200   -0.0455 H       1  LIG1        0.0658
     12 C           0.5990    5.2484   -0.2064 C.ar    1  LIG1        0.1004
     13 C           1.3289    6.2040    0.4923 C.ar    1  LIG1        0.0836
     14 C           0.5014    7.3527    0.6782 C.ar    1  LIG1       -0.0041
     15 C          -0.7014    7.0636    0.0685 C.ar    1  LIG1        0.0871
     16 N          -0.6200    5.7877   -0.4531 N.ar    1  LIG1       -0.3481
     17 H          -1.3658    5.3053   -0.9307 H       1  LIG1        0.1661
     18 N           3.7422    5.8972    1.3417 N.1     1  LIG1       -0.1908
     19 C           2.6572    6.0408    0.9610 C.1     1  LIG1        0.1017
     20 C           0.8781    8.5790    1.4447 C.3     1  LIG1       -0.0364
     21 H          -0.0100    9.1093    1.7934 H       1  LIG1        0.0279
     22 H           1.4712    9.2749    0.8432 H       1  LIG1        0.0279
     23 H           1.4813    8.3136    2.3163 H       1  LIG1        0.0279
     24 C          -1.9239    7.8265   -0.0657 C.ar    1  LIG1        0.1562
     25 C          -2.2103    9.1292   -0.3244 C.ar    1  LIG1        0.0148
     26 C          -3.6507    9.2076   -0.3315 C.ar    1  LIG1        0.1010
     27 C          -4.1415    7.9409   -0.1122 C.ar    1  LIG1        0.1551
     28 O          -3.0881    7.1043    0.0516 O.2     1  LIG1       -0.4517
     29 C          -1.2746   10.2592   -0.6003 C.3     1  LIG1       -0.0348
     30 H          -1.6534   10.8782   -1.4174 H       1  LIG1        0.0279
     31 H          -0.2880    9.8863   -0.8792 H       1  LIG1        0.0279
     32 H          -1.1576   10.9121    0.2699 H       1  LIG1        0.0279
     33 N          -4.8965   11.4485   -0.5977 N.1     1  LIG1       -0.1907
     34 C          -4.3709   10.4248   -0.4719 C.1     1  LIG1        0.1032
     35 C          -6.5556    7.6937   -0.7852 C.ar    1  LIG1        0.0354
     36 C          -7.7813    7.0482   -0.5571 C.ar    1  LIG1       -0.0401
     37 C          -5.4635    7.3376    0.0304 C.ar    1  LIG1        0.0394
     38 C          -7.9140    6.0819    0.4180 C.ar    1  LIG1       -0.0571
     39 H          -8.6343    7.3181   -1.1728 H       1  LIG1        0.0636
     40 C          -5.6257    6.3360    1.0010 C.ar    1  LIG1       -0.0464
     41 C          -6.8326    5.6967    1.2196 C.ar    1  LIG1       -0.0497
     42 H          -4.7639    6.0706    1.6047 H       1  LIG1        0.0628
     43 H          -8.8805    5.6063    0.5605 H       1  LIG1        0.0621
     44 N          -6.4651    8.6495   -1.7717 N.pl3   1  LIG1       -0.3574
     45 H          -5.5556    8.8865   -2.1320 H       1  LIG1        0.1423
     46 H          -7.2062    8.6759   -2.4527 H       1  LIG1        0.1423
     47 C          -6.9898    4.6415    2.2822 C.3     1  LIG1       -0.0397
     48 H          -6.0333    4.4134    2.7576 H       1  LIG1        0.0278
     49 H          -7.3854    3.7097    1.8664 H       1  LIG1        0.0278
     50 H          -7.6808    4.9637    3.0678 H       1  LIG1        0.0278
@<TRIPOS>BOND
     1    46    44    1
     2     6     1    1
     3    45    44    1
     4     9     7    1
     5    10     7    1
     6    44    35    1
     7     1     5   ar
     8     1     2   ar
     9    30    29    1
    10     7     2    1
    11     7     8    1
    12     5     4   ar
    13     2     3   ar
    14    39    36    1
    15    17    16    1
    16    31    29    1
    17    35    36   ar
    18    35    37   ar
    19     4     3   ar
    20     4    12    1
    21    29    25    1
    22    29    32    1
    23    33    34    3
    24    36    38   ar
    25     3    11    1
    26    34    26    1
    27    16    12   ar
    28    16    15   ar
    29    26    25   ar
    30    26    27   ar
    31    25    24   ar
    32    12    13   ar
    33    27    37    1
    34    27    28   ar
    35    24    28   ar
    36    24    15    1
    37    37    40   ar
    38    15    14   ar
    39    38    43    1
    40    38    41   ar
    41    13    14   ar
    42    13    19    1
    43    14    20    1
    44    22    20    1
    45    19    18    3
    46    40    41   ar
    47    40    42    1
    48    41    47    1
    49    20    21    1
    50    20    23    1
    51    49    47    1
    52    47    48    1
    53    47    50    1
