@<TRIPOS>MOLECULE
mol_data/opt/cam/geoms/mol2/12ia12ia-12ia12ia-.out
 42 45 0 0 0
SMALL
GASTEIGER

@<TRIPOS>ATOM
      1 C           0.1921    1.7409    0.0337 C.ar    1  LIG1        0.0956
      2 C           1.5430    1.7591   -0.0758 C.ar    1  LIG1       -0.0120
      3 C           1.9073    3.1452   -0.0804 C.ar    1  LIG1       -0.0099
      4 C           0.7496    3.8542    0.0273 C.ar    1  LIG1        0.1702
      5 O          -0.3099    3.0056    0.0987 O.2     1  LIG1       -0.4596
      6 H          -0.5330    0.9438    0.0778 H       1  LIG1        0.1032
      7 C           2.4604    0.5828   -0.1731 C.3     1  LIG1       -0.0367
      8 H           3.1775    0.5689    0.6530 H       1  LIG1        0.0278
      9 H           3.0360    0.6043   -1.1033 H       1  LIG1        0.0278
     10 H           1.9028   -0.3560   -0.1471 H       1  LIG1        0.0278
     11 H           2.9006    3.5607   -0.1582 H       1  LIG1        0.0659
     12 C           0.4841    5.2699    0.0746 C.ar    1  LIG1        0.1736
     13 C          -0.6439    6.0401    0.1382 C.ar    1  LIG1       -0.0009
     14 C          -0.1837    7.3924    0.1502 C.ar    1  LIG1       -0.0091
     15 C           1.1765    7.3534    0.0921 C.ar    1  LIG1        0.1713
     16 O           1.5986    6.0625    0.0441 O.2     1  LIG1       -0.4484
     17 C          -2.0722    5.5987    0.1871 C.3     1  LIG1       -0.0360
     18 H          -2.1567    4.5149    0.1274 H       1  LIG1        0.0279
     19 H          -2.6406    6.0346   -0.6401 H       1  LIG1        0.0279
     20 H          -2.5490    5.9276    1.1158 H       1  LIG1        0.0279
     21 H          -0.7914    8.2834    0.2008 H       1  LIG1        0.0659
     22 C           2.1761    8.3876    0.0726 C.ar    1  LIG1        0.1736
     23 C           3.5436    8.4068    0.1089 C.ar    1  LIG1       -0.0009
     24 C           3.9075    9.7870    0.0650 C.ar    1  LIG1       -0.0091
     25 C           2.7517   10.5043    0.0091 C.ar    1  LIG1        0.1712
     26 O           1.6852    9.6631    0.0139 O.2     1  LIG1       -0.4484
     27 C           4.4878    7.2489    0.1758 C.3     1  LIG1       -0.0360
     28 H           5.2786    7.4399    0.9064 H       1  LIG1        0.0279
     29 H           4.9725    7.0803   -0.7915 H       1  LIG1        0.0279
     30 H           3.9726    6.3309    0.4557 H       1  LIG1        0.0279
     31 H           4.9061   10.1970    0.0770 H       1  LIG1        0.0659
     32 C           2.4958   11.9212   -0.0475 C.ar    1  LIG1        0.1726
     33 C           1.3725   12.6926   -0.1585 C.ar    1  LIG1       -0.0017
     34 C           1.8442   14.0465   -0.1581 C.ar    1  LIG1       -0.0203
     35 C           3.1916   13.9931   -0.0515 C.ar    1  LIG1        0.0930
     36 O           3.6101   12.7070    0.0174 O.2     1  LIG1       -0.4596
     37 H           3.9648   14.7438   -0.0138 H       1  LIG1        0.1029
     38 C          -0.0548   12.2563   -0.2561 C.3     1  LIG1       -0.0360
     39 H          -0.1317   11.1854   -0.4388 H       1  LIG1        0.0279
     40 H          -0.5648   12.7824   -1.0682 H       1  LIG1        0.0279
     41 H          -0.5989   12.4802    0.6675 H       1  LIG1        0.0279
     42 H           1.2390   14.9383   -0.2327 H       1  LIG1        0.0652
@<TRIPOS>BOND
     1     9     7    1
     2    40    38    1
     3    29    27    1
     4    19    17    1
     5    39    38    1
     6    38    33    1
     7    38    41    1
     8    42    34    1
     9     7    10    1
    10     7     2    1
    11     7     8    1
    12    33    34   ar
    13    33    32   ar
    14    11     3    1
    15    34    35   ar
    16     3     2   ar
    17     3     4   ar
    18     2     1   ar
    19    35    37    1
    20    35    36   ar
    21    32    25    1
    22    32    36   ar
    23    25    26   ar
    24    25    24   ar
    25    26    22   ar
    26     4    12    1
    27     4     5   ar
    28     1     6    1
    29     1     5   ar
    30    16    12   ar
    31    16    15   ar
    32    24    31    1
    33    24    23   ar
    34    22    15    1
    35    22    23   ar
    36    12    13   ar
    37    15    14   ar
    38    23    27    1
    39    18    17    1
    40    13    14   ar
    41    13    17    1
    42    14    21    1
    43    27    30    1
    44    27    28    1
    45    17    20    1
