@<TRIPOS>MOLECULE
mol_data/opt/cam/geoms/mol2/12ia12ia12ia.out
 32 34 0 0 0
SMALL
GASTEIGER

@<TRIPOS>ATOM
      1 C           0.3714    1.7569    0.5364 C.ar    1  LIG1        0.0956
      2 C           1.6568    1.8061    0.1065 C.ar    1  LIG1       -0.0120
      3 C           1.8962    3.1824   -0.2116 C.ar    1  LIG1       -0.0099
      4 C           0.7402    3.8544    0.0585 C.ar    1  LIG1        0.1702
      5 O          -0.2003    2.9886    0.5177 O.2     1  LIG1       -0.4596
      6 H          -0.2595    0.9497    0.8740 H       1  LIG1        0.1032
      7 C           2.6165    0.6668   -0.0216 C.3     1  LIG1       -0.0367
      8 H           3.5020    0.8194    0.6028 H       1  LIG1        0.0278
      9 H           2.9617    0.5512   -1.0534 H       1  LIG1        0.0278
     10 H           2.1530   -0.2745    0.2820 H       1  LIG1        0.0278
     11 H           2.8037    3.6052   -0.6155 H       1  LIG1        0.0659
     12 C           0.3711    5.2453   -0.0337 C.ar    1  LIG1        0.1736
     13 C           1.1135    6.3912   -0.1195 C.ar    1  LIG1       -0.0009
     14 C           0.1650    7.4534   -0.2059 C.ar    1  LIG1       -0.0091
     15 C          -1.0750    6.8854   -0.1512 C.ar    1  LIG1        0.1712
     16 O          -0.9590    5.5374   -0.0480 O.2     1  LIG1       -0.4484
     17 C           2.6033    6.5132   -0.1233 C.3     1  LIG1       -0.0360
     18 H           2.9127    7.4940    0.2449 H       1  LIG1        0.0279
     19 H           3.0198    6.3949   -1.1296 H       1  LIG1        0.0279
     20 H           3.0623    5.7528    0.5141 H       1  LIG1        0.0279
     21 H           0.3858    8.5050   -0.3094 H       1  LIG1        0.0659
     22 C          -2.4071    7.4368   -0.1634 C.ar    1  LIG1        0.1726
     23 C          -2.8824    8.6995    0.0623 C.ar    1  LIG1       -0.0017
     24 C          -4.2999    8.6067   -0.1122 C.ar    1  LIG1       -0.0203
     25 C          -4.5705    7.3155   -0.4183 C.ar    1  LIG1        0.0930
     26 O          -3.4309    6.5878   -0.4560 O.2     1  LIG1       -0.4596
     27 H          -5.4813    6.7762   -0.6238 H       1  LIG1        0.1029
     28 C          -2.0968    9.9178    0.4272 C.3     1  LIG1       -0.0360
     29 H          -2.7240   10.6390    0.9561 H       1  LIG1        0.0279
     30 H          -1.6920   10.4231   -0.4567 H       1  LIG1        0.0279
     31 H          -1.2537    9.6650    1.0760 H       1  LIG1        0.0279
     32 H          -5.0160    9.4089   -0.0080 H       1  LIG1        0.0652
@<TRIPOS>BOND
     1    19    17    1
     2     9     7    1
     3    27    25    1
     4    11     3    1
     5    30    28    1
     6    26    25   ar
     7    26    22   ar
     8    25    24   ar
     9    21    14    1
    10     3     4   ar
    11     3     2   ar
    12    14    15   ar
    13    14    13   ar
    14    22    15    1
    15    22    23   ar
    16    15    16   ar
    17    17    13    1
    18    17    18    1
    19    17    20    1
    20    13    12   ar
    21    24    32    1
    22    24    23   ar
    23    16    12   ar
    24    12     4    1
    25     7     2    1
    26     7    10    1
    27     7     8    1
    28     4     5   ar
    29    23    28    1
    30     2     1   ar
    31    28    29    1
    32    28    31    1
    33     5     1   ar
    34     1     6    1
