@<TRIPOS>MOLECULE
mol_data/opt/cam/geoms/mol2/12ia12ia12ia12ia-.out
 42 45 0 0 0
SMALL
GASTEIGER

@<TRIPOS>ATOM
      1 C          -3.8330   -2.4972   -0.0186 C.ar    1  LIG1        0.0956
      2 C          -4.9859   -1.8263    0.2265 C.ar    1  LIG1       -0.0120
      3 C          -4.6155   -0.4431    0.2752 C.ar    1  LIG1       -0.0099
      4 C          -3.2710   -0.3890    0.0489 C.ar    1  LIG1        0.1702
      5 O          -2.7824   -1.6434   -0.1320 O.2     1  LIG1       -0.4596
      6 H          -3.6031   -3.5449   -0.1323 H       1  LIG1        0.1032
      7 C          -6.3511   -2.4050    0.4176 C.3     1  LIG1       -0.0367
      8 H          -7.0517   -2.0305   -0.3349 H       1  LIG1        0.0278
      9 H          -6.7589   -2.1465    1.3994 H       1  LIG1        0.0278
     10 H          -6.3312   -3.4944    0.3413 H       1  LIG1        0.0278
     11 H          -5.2657    0.3941    0.4792 H       1  LIG1        0.0659
     12 C          -2.3362    0.7043   -0.0412 C.ar    1  LIG1        0.1736
     13 C          -2.5054    2.0514   -0.2123 C.ar    1  LIG1       -0.0009
     14 C          -1.1909    2.6039   -0.2192 C.ar    1  LIG1       -0.0091
     15 C          -0.3210    1.5633   -0.0543 C.ar    1  LIG1        0.1713
     16 O          -1.0119    0.4003    0.0568 O.2     1  LIG1       -0.4484
     17 C          -3.7924    2.7929   -0.3800 C.3     1  LIG1       -0.0360
     18 H          -3.6287    3.7394   -0.8999 H       1  LIG1        0.0279
     19 H          -4.2581    3.0246    0.5841 H       1  LIG1        0.0279
     20 H          -4.5117    2.2089   -0.9605 H       1  LIG1        0.0279
     21 H          -0.9319    3.6419   -0.3622 H       1  LIG1        0.0659
     22 C           1.1126    1.4838    0.0247 C.ar    1  LIG1        0.1736
     23 C           2.0915    2.4303    0.1676 C.ar    1  LIG1       -0.0009
     24 C           3.3225    1.7108    0.1740 C.ar    1  LIG1       -0.0091
     25 C           3.0108    0.3900    0.0421 C.ar    1  LIG1        0.1712
     26 O           1.6663    0.2400   -0.0516 O.2     1  LIG1       -0.4484
     27 C           1.9116    3.9086    0.2980 C.3     1  LIG1       -0.0360
     28 H           2.8052    4.3704    0.7229 H       1  LIG1        0.0279
     29 H           1.0663    4.1496    0.9490 H       1  LIG1        0.0279
     30 H           1.7256    4.3831   -0.6717 H       1  LIG1        0.0279
     31 H           4.3160    2.1209    0.2744 H       1  LIG1        0.0659
     32 C           3.8207   -0.8003   -0.0076 C.ar    1  LIG1        0.1726
     33 C           3.5534   -2.1368   -0.1137 C.ar    1  LIG1       -0.0017
     34 C           4.8368   -2.7770   -0.1029 C.ar    1  LIG1       -0.0203
     35 C           5.7642   -1.7986    0.0074 C.ar    1  LIG1        0.0930
     36 O           5.1668   -0.5844    0.0669 O.2     1  LIG1       -0.4596
     37 H           6.8415   -1.7972    0.0551 H       1  LIG1        0.1029
     38 C           2.2273   -2.8214   -0.2195 C.3     1  LIG1       -0.0360
     39 H           1.4019   -2.1126   -0.1710 H       1  LIG1        0.0279
     40 H           2.1018   -3.5484    0.5889 H       1  LIG1        0.0279
     41 H           2.1486   -3.3714   -1.1628 H       1  LIG1        0.0279
     42 H           5.0260   -3.8386   -0.1692 H       1  LIG1        0.0652
@<TRIPOS>BOND
     1    41    38    1
     2    20    17    1
     3    18    17    1
     4    30    27    1
     5    17    13    1
     6    17    19    1
     7    21    14    1
     8     8     7    1
     9    38    39    1
    10    38    33    1
    11    38    40    1
    12    14    13   ar
    13    14    15   ar
    14    13    12   ar
    15    42    34    1
    16     6     1    1
    17     5     1   ar
    18     5     4   ar
    19    33    34   ar
    20    33    32   ar
    21    34    35   ar
    22    15    22    1
    23    15    16   ar
    24    26    22   ar
    25    26    25   ar
    26    12     4    1
    27    12    16   ar
    28     1     2   ar
    29    32    25    1
    30    32    36   ar
    31    35    37    1
    32    35    36   ar
    33    22    23   ar
    34    25    24   ar
    35     4     3   ar
    36    23    24   ar
    37    23    27    1
    38    24    31    1
    39     2     3   ar
    40     2     7    1
    41     3    11    1
    42    27    28    1
    43    27    29    1
    44    10     7    1
    45     7     9    1
