@<TRIPOS>MOLECULE
mol_data/opt/cam/geoms/mol2/12ia12ia12ia-12ia-.out
 42 45 0 0 0
SMALL
GASTEIGER

@<TRIPOS>ATOM
      1 C           0.3407    1.6955   -0.0174 C.ar    1  LIG1        0.0956
      2 C           1.6950    1.7638   -0.0078 C.ar    1  LIG1       -0.0120
      3 C           2.0051    3.1626    0.0003 C.ar    1  LIG1       -0.0099
      4 C           0.8132    3.8277   -0.0052 C.ar    1  LIG1        0.1702
      5 O          -0.2128    2.9374   -0.0160 O.2     1  LIG1       -0.4596
      6 H          -0.3536    0.8702   -0.0256 H       1  LIG1        0.1032
      7 C           2.6617    0.6235   -0.0058 C.3     1  LIG1       -0.0367
      8 H           3.3035    0.6473    0.8800 H       1  LIG1        0.0278
      9 H           3.3156    0.6545   -0.8825 H       1  LIG1        0.0278
     10 H           2.1395   -0.3359   -0.0133 H       1  LIG1        0.0278
     11 H           2.9886    3.6068    0.0097 H       1  LIG1        0.0659
     12 C           0.4706    5.2259   -0.0020 C.ar    1  LIG1        0.1736
     13 C           1.2270    6.3670    0.0026 C.ar    1  LIG1       -0.0009
     14 C           0.2952    7.4454    0.0040 C.ar    1  LIG1       -0.0091
     15 C          -0.9516    6.8927   -0.0002 C.ar    1  LIG1        0.1713
     16 O          -0.8563    5.5386   -0.0037 O.2     1  LIG1       -0.4484
     17 C           2.7191    6.4648    0.0055 C.3     1  LIG1       -0.0360
     18 H           3.0370    7.5089    0.0009 H       1  LIG1        0.0279
     19 H           3.1562    5.9794   -0.8732 H       1  LIG1        0.0279
     20 H           3.1524    5.9885    0.8911 H       1  LIG1        0.0279
     21 H           0.5195    8.5014    0.0072 H       1  LIG1        0.0659
     22 C          -2.2679    7.4723   -0.0015 C.ar    1  LIG1        0.1736
     23 C          -3.5402    6.9690   -0.0064 C.ar    1  LIG1       -0.0009
     24 C          -4.3980    8.1110   -0.0051 C.ar    1  LIG1       -0.0091
     25 C          -3.5969    9.2158    0.0006 C.ar    1  LIG1        0.1712
     26 O          -2.2937    8.8370    0.0029 O.2     1  LIG1       -0.4484
     27 C          -3.9778    5.5384   -0.0123 C.3     1  LIG1       -0.0360
     28 H          -3.1266    4.8592   -0.0129 H       1  LIG1        0.0279
     29 H          -4.5880    5.3234   -0.8951 H       1  LIG1        0.0279
     30 H          -4.5917    5.3172    0.8665 H       1  LIG1        0.0279
     31 H          -5.4772    8.1002   -0.0087 H       1  LIG1        0.0659
     32 C          -3.8737   10.6290    0.0047 C.ar    1  LIG1        0.1726
     33 C          -5.0457   11.3360    0.0101 C.ar    1  LIG1       -0.0017
     34 C          -4.6563   12.7121    0.0116 C.ar    1  LIG1       -0.0203
     35 C          -3.3020   12.7350    0.0073 C.ar    1  LIG1        0.0930
     36 O          -2.8074   11.4751    0.0030 O.2     1  LIG1       -0.4596
     37 H          -2.5720   13.5285    0.0068 H       1  LIG1        0.1029
     38 C          -6.4379   10.7905    0.0139 C.3     1  LIG1       -0.0360
     39 H          -6.6226   10.1611    0.8907 H       1  LIG1        0.0279
     40 H          -6.6349   10.1795   -0.8733 H       1  LIG1        0.0279
     41 H          -7.1698   11.6003    0.0273 H       1  LIG1        0.0279
     42 H          -5.3165   13.5673    0.0157 H       1  LIG1        0.0652
@<TRIPOS>BOND
     1    29    27    1
     2     9     7    1
     3    40    38    1
     4    19    17    1
     5     6     1    1
     6     1     5   ar
     7     1     2   ar
     8     5     4   ar
     9    10     7    1
    10    28    27    1
    11    27    23    1
    12    27    30    1
    13    31    24    1
    14     2     7    1
    15     2     3   ar
    16    23    24   ar
    17    23    22   ar
    18     7     8    1
    19     4    12    1
    20     4     3   ar
    21    24    25   ar
    22    16    12   ar
    23    16    15   ar
    24    12    13   ar
    25    22    15    1
    26    22    26   ar
    27    15    14   ar
    28     3    11    1
    29    25    26   ar
    30    25    32    1
    31    18    17    1
    32    13    14   ar
    33    13    17    1
    34    36    32   ar
    35    36    35   ar
    36    14    21    1
    37    32    33   ar
    38    17    20    1
    39    37    35    1
    40    35    34   ar
    41    33    34   ar
    42    33    38    1
    43    34    42    1
    44    38    41    1
    45    38    39    1
