@<TRIPOS>MOLECULE
mol_data/opt/cam/geoms/mol2/12ia12ia12ia12ia.out
 42 45 0 0 0
SMALL
GASTEIGER

@<TRIPOS>ATOM
      1 C           0.6883    1.7345    0.7613 C.ar    1  LIG1        0.0956
      2 C           1.9493    1.8118    0.2676 C.ar    1  LIG1       -0.0120
      3 C           2.1122    3.1754   -0.1404 C.ar    1  LIG1       -0.0099
      4 C           0.9405    3.8131    0.1460 C.ar    1  LIG1        0.1702
      5 O           0.0619    2.9376    0.6992 O.2     1  LIG1       -0.4596
      6 H           0.1101    0.9232    1.1747 H       1  LIG1        0.1032
      7 C           2.9520    0.7080    0.1598 C.3     1  LIG1       -0.0367
      8 H           3.8575    0.9348    0.7308 H       1  LIG1        0.0278
      9 H           3.2545    0.5448   -0.8790 H       1  LIG1        0.0278
     10 H           2.5453   -0.2317    0.5398 H       1  LIG1        0.0278
     11 H           2.9806    3.6111   -0.6108 H       1  LIG1        0.0659
     12 C           0.5061    5.1792   -0.0076 C.ar    1  LIG1        0.1736
     13 C           1.1924    6.3474   -0.2004 C.ar    1  LIG1       -0.0009
     14 C           0.1963    7.3632   -0.2934 C.ar    1  LIG1       -0.0091
     15 C          -1.0142    6.7493   -0.1377 C.ar    1  LIG1        0.1713
     16 O          -0.8339    5.4158    0.0355 O.2     1  LIG1       -0.4484
     17 C           2.6733    6.5283   -0.2951 C.3     1  LIG1       -0.0360
     18 H           2.9581    7.5451   -0.0156 H       1  LIG1        0.0279
     19 H           3.0414    6.3527   -1.3118 H       1  LIG1        0.0279
     20 H           3.1982    5.8359    0.3685 H       1  LIG1        0.0279
     21 H           0.3659    8.4149   -0.4672 H       1  LIG1        0.0659
     22 C          -2.3649    7.2459   -0.1067 C.ar    1  LIG1        0.1736
     23 C          -2.8782    8.5070    0.0374 C.ar    1  LIG1       -0.0009
     24 C          -4.2934    8.3519   -0.0360 C.ar    1  LIG1       -0.0091
     25 C          -4.5403    7.0192   -0.2036 C.ar    1  LIG1        0.1712
     26 O          -3.3687    6.3372   -0.2496 O.2     1  LIG1       -0.4484
     27 C          -2.1217    9.7819    0.2299 C.3     1  LIG1       -0.0360
     28 H          -2.7589   10.5454    0.6813 H       1  LIG1        0.0279
     29 H          -1.7505   10.1836   -0.7193 H       1  LIG1        0.0279
     30 H          -1.2580    9.6340    0.8841 H       1  LIG1        0.0279
     31 H          -5.0293    9.1399    0.0165 H       1  LIG1        0.0659
     32 C          -5.7573    6.2549   -0.3147 C.ar    1  LIG1        0.1726
     33 C          -7.0592    6.5493   -0.0142 C.ar    1  LIG1       -0.0017
     34 C          -7.8018    5.3768   -0.3630 C.ar    1  LIG1       -0.0203
     35 C          -6.9073    4.4754   -0.8337 C.ar    1  LIG1        0.0930
     36 O          -5.6576    4.9922   -0.8139 O.2     1  LIG1       -0.4596
     37 H          -6.9940    3.4653   -1.2010 H       1  LIG1        0.1029
     38 C          -7.5965    7.8172    0.5674 C.3     1  LIG1       -0.0360
     39 H          -8.5465    7.6379    1.0755 H       1  LIG1        0.0279
     40 H          -7.7754    8.5766   -0.2020 H       1  LIG1        0.0279
     41 H          -6.9010    8.2445    1.2950 H       1  LIG1        0.0279
     42 H          -8.8677    5.2345   -0.2594 H       1  LIG1        0.0652
@<TRIPOS>BOND
     1    19    17    1
     2    37    35    1
     3     9     7    1
     4    35    36   ar
     5    35    34   ar
     6    36    32   ar
     7    29    27    1
     8    11     3    1
     9    21    14    1
    10    34    42    1
    11    34    33   ar
    12    32    25    1
    13    32    33   ar
    14    17    13    1
    15    17    18    1
    16    17    20    1
    17    14    13   ar
    18    14    15   ar
    19    26    25   ar
    20    26    22   ar
    21    25    24   ar
    22    40    38    1
    23    13    12   ar
    24     3     4   ar
    25     3     2   ar
    26    15    22    1
    27    15    16   ar
    28    22    23   ar
    29    24    31    1
    30    24    23   ar
    31    33    38    1
    32    12    16   ar
    33    12     4    1
    34    23    27    1
    35     4     5   ar
    36     7     2    1
    37     7    10    1
    38     7     8    1
    39    27    28    1
    40    27    30    1
    41     2     1   ar
    42    38    39    1
    43    38    41    1
    44     5     1   ar
    45     1     6    1
