@<TRIPOS>MOLECULE
mol_data/opt/cam/geoms/mol2/12ia12ia-12ia.out
 32 34 0 0 0
SMALL
GASTEIGER

@<TRIPOS>ATOM
      1 C           0.1801    1.7984    0.0817 C.ar    1  LIG1        0.0956
      2 C           1.5332    1.8124    0.0034 C.ar    1  LIG1       -0.0120
      3 C           1.8991    3.1975   -0.0388 C.ar    1  LIG1       -0.0099
      4 C           0.7402    3.9102    0.0181 C.ar    1  LIG1        0.1702
      5 O          -0.3217    3.0648    0.0927 O.2     1  LIG1       -0.4596
      6 H          -0.5467    1.0034    0.1352 H       1  LIG1        0.1032
      7 C           2.4518    0.6334   -0.0324 C.3     1  LIG1       -0.0367
      8 H           3.1490    0.6477    0.8106 H       1  LIG1        0.0278
      9 H           3.0494    0.6236   -0.9488 H       1  LIG1        0.0278
     10 H           1.8930   -0.3041    0.0120 H       1  LIG1        0.0278
     11 H           2.8945    3.6099   -0.1068 H       1  LIG1        0.0659
     12 C           0.4757    5.3272    0.0123 C.ar    1  LIG1        0.1736
     13 C          -0.6522    6.0999    0.0236 C.ar    1  LIG1       -0.0009
     14 C          -0.1896    7.4517    0.0010 C.ar    1  LIG1       -0.0091
     15 C           1.1703    7.4088   -0.0228 C.ar    1  LIG1        0.1712
     16 O           1.5921    6.1173   -0.0175 O.2     1  LIG1       -0.4484
     17 C          -2.0817    5.6612    0.0520 C.3     1  LIG1       -0.0360
     18 H          -2.1655    4.5758    0.0430 H       1  LIG1        0.0279
     19 H          -2.6252    6.0556   -0.8121 H       1  LIG1        0.0279
     20 H          -2.5852    6.0357    0.9488 H       1  LIG1        0.0279
     21 H          -0.7940    8.3463    0.0036 H       1  LIG1        0.0659
     22 C           2.1710    8.4454   -0.0527 C.ar    1  LIG1        0.1726
     23 C           3.5370    8.4634   -0.0038 C.ar    1  LIG1       -0.0017
     24 C           3.8979    9.8492   -0.0741 C.ar    1  LIG1       -0.0203
     25 C           2.7448   10.5517   -0.1557 C.ar    1  LIG1        0.0930
     26 O           1.6796    9.7154   -0.1445 O.2     1  LIG1       -0.4596
     27 H           2.5183   11.6038   -0.2231 H       1  LIG1        0.1029
     28 C           4.4823    7.3085    0.0956 C.3     1  LIG1       -0.0360
     29 H           5.2701    7.5165    0.8251 H       1  LIG1        0.0279
     30 H           4.9718    7.1145   -0.8647 H       1  LIG1        0.0279
     31 H           3.9663    6.3975    0.3964 H       1  LIG1        0.0279
     32 H           4.8993   10.2544   -0.0597 H       1  LIG1        0.0652
@<TRIPOS>BOND
     1     9     7    1
     2    30    28    1
     3    19    17    1
     4    27    25    1
     5    25    26   ar
     6    25    24   ar
     7    26    22   ar
     8    11     3    1
     9    24    32    1
    10    24    23   ar
    11    22    15    1
    12    22    23   ar
    13     3     2   ar
    14     3     4   ar
    15     7     2    1
    16     7    10    1
    17     7     8    1
    18    15    16   ar
    19    15    14   ar
    20    16    12   ar
    21    23    28    1
    22    14    21    1
    23    14    13   ar
    24     2     1   ar
    25    12     4    1
    26    12    13   ar
    27     4     5   ar
    28    13    17    1
    29    18    17    1
    30    17    20    1
    31     1     5   ar
    32     1     6    1
    33    28    31    1
    34    28    29    1
