@<TRIPOS>MOLECULE
mol_data/opt/cam/geoms/mol2/12ia12ia12ia-12ia.out
 42 45 0 0 0
SMALL
GASTEIGER

@<TRIPOS>ATOM
      1 C           0.3655    1.6964   -0.2174 C.ar    1  LIG1        0.0956
      2 C           1.6889    1.7707    0.0684 C.ar    1  LIG1       -0.0120
      3 C           1.9720    3.1699    0.1927 C.ar    1  LIG1       -0.0099
      4 C           0.7995    3.8290   -0.0351 C.ar    1  LIG1        0.1702
      5 O          -0.1919    2.9342   -0.2871 O.2     1  LIG1       -0.4596
      6 H          -0.3034    0.8679   -0.3899 H       1  LIG1        0.1032
      7 C           2.6484    0.6358    0.2313 C.3     1  LIG1       -0.0367
      8 H           3.1005    0.6370    1.2276 H       1  LIG1        0.0278
      9 H           3.4634    0.6958   -0.4963 H       1  LIG1        0.0278
     10 H           2.1485   -0.3255    0.0933 H       1  LIG1        0.0278
     11 H           2.9211    3.6184    0.4445 H       1  LIG1        0.0659
     12 C           0.4477    5.2256   -0.0691 C.ar    1  LIG1        0.1736
     13 C           1.1914    6.3712   -0.1452 C.ar    1  LIG1       -0.0009
     14 C           0.2497    7.4425   -0.1336 C.ar    1  LIG1       -0.0091
     15 C          -0.9904    6.8801   -0.0586 C.ar    1  LIG1        0.1713
     16 O          -0.8816    5.5281   -0.0157 O.2     1  LIG1       -0.4484
     17 C           2.6795    6.4829   -0.2342 C.3     1  LIG1       -0.0360
     18 H           2.9694    7.4332   -0.6877 H       1  LIG1        0.0279
     19 H           3.1007    5.6767   -0.8410 H       1  LIG1        0.0279
     20 H           3.1511    6.4331    0.7533 H       1  LIG1        0.0279
     21 H           0.4670    8.4985   -0.1899 H       1  LIG1        0.0659
     22 C          -2.3138    7.4430   -0.0246 C.ar    1  LIG1        0.1736
     23 C          -3.5792    6.9237   -0.0042 C.ar    1  LIG1       -0.0009
     24 C          -4.4535    8.0531    0.0217 C.ar    1  LIG1       -0.0091
     25 C          -3.6707    9.1668    0.0146 C.ar    1  LIG1        0.1712
     26 O          -2.3600    8.8104   -0.0147 O.2     1  LIG1       -0.4484
     27 C          -3.9978    5.4875   -0.0094 C.3     1  LIG1       -0.0360
     28 H          -3.1411    4.8191   -0.0799 H       1  LIG1        0.0279
     29 H          -4.6645    5.2839   -0.8529 H       1  LIG1        0.0279
     30 H          -4.5486    5.2416    0.9040 H       1  LIG1        0.0279
     31 H          -5.5328    8.0395    0.0431 H       1  LIG1        0.0659
     32 C          -3.9905   10.5719    0.0307 C.ar    1  LIG1        0.1726
     33 C          -3.2587   11.7259    0.0737 C.ar    1  LIG1       -0.0017
     34 C          -4.2250   12.7851    0.0677 C.ar    1  LIG1       -0.0203
     35 C          -5.4453   12.2033    0.0244 C.ar    1  LIG1        0.0930
     36 O          -5.3257   10.8546    0.0011 O.2     1  LIG1       -0.4596
     37 H          -6.4524   12.5882    0.0069 H       1  LIG1        0.1029
     38 C          -1.7726   11.8893    0.1148 C.3     1  LIG1       -0.0360
     39 H          -1.4812   12.5786    0.9127 H       1  LIG1        0.0279
     40 H          -1.3964   12.3049   -0.8259 H       1  LIG1        0.0279
     41 H          -1.2727   10.9368    0.2846 H       1  LIG1        0.0279
     42 H          -4.0176   13.8450    0.0958 H       1  LIG1        0.0652
@<TRIPOS>BOND
     1    29    27    1
     2    19    17    1
     3    40    38    1
     4    18    17    1
     5     9     7    1
     6     6     1    1
     7     5     1   ar
     8     5     4   ar
     9    17    13    1
    10    17    20    1
    11     1     2   ar
    12    21    14    1
    13    13    14   ar
    14    13    12   ar
    15    14    15   ar
    16    28    27    1
    17    12     4    1
    18    12    16   ar
    19    15    22    1
    20    15    16   ar
    21     4     3   ar
    22    22    26   ar
    23    22    23   ar
    24    26    25   ar
    25    27    23    1
    26    27    30    1
    27    23    24   ar
    28    36    35   ar
    29    36    32   ar
    30    37    35    1
    31    25    24   ar
    32    25    32    1
    33    24    31    1
    34    35    34   ar
    35    32    33   ar
    36    34    33   ar
    37    34    42    1
    38     2     3   ar
    39     2     7    1
    40    33    38    1
    41    10     7    1
    42    38    41    1
    43    38    39    1
    44     3    11    1
    45     7     8    1
