@<TRIPOS>MOLECULE
mol_data/opt/cam/geoms/mol2/12ia12ia-12ia-12ia.out
 42 45 0 0 0
SMALL
GASTEIGER

@<TRIPOS>ATOM
      1 C           0.0440    1.7584   -0.0284 C.ar    1  LIG1        0.0956
      2 C           1.3910    1.7406   -0.1807 C.ar    1  LIG1       -0.0120
      3 C           1.7948    3.1156   -0.1732 C.ar    1  LIG1       -0.0099
      4 C           0.6619    3.8543   -0.0167 C.ar    1  LIG1        0.1702
      5 O          -0.4195    3.0354    0.0732 O.2     1  LIG1       -0.4596
      6 H          -0.7018    0.9813    0.0251 H       1  LIG1        0.1032
      7 C           2.2708    0.5408   -0.3267 C.3     1  LIG1       -0.0367
      8 H           3.0134    0.4932    0.4753 H       1  LIG1        0.0278
      9 H           2.8167    0.5619   -1.2746 H       1  LIG1        0.0278
     10 H           1.6879   -0.3825   -0.2975 H       1  LIG1        0.0278
     11 H           2.7959    3.5073   -0.2717 H       1  LIG1        0.0659
     12 C           0.4425    5.2766    0.0625 C.ar    1  LIG1        0.1736
     13 C          -0.6553    6.0768    0.2200 C.ar    1  LIG1       -0.0009
     14 C          -0.1535    7.4144    0.2210 C.ar    1  LIG1       -0.0091
     15 C           1.1991    7.3362    0.0595 C.ar    1  LIG1        0.1713
     16 O           1.5738    6.0342   -0.0381 O.2     1  LIG1       -0.4484
     17 C          -2.0885    5.6763    0.3710 C.3     1  LIG1       -0.0360
     18 H          -2.1996    4.5932    0.3799 H       1  LIG1        0.0279
     19 H          -2.6930    6.0748   -0.4498 H       1  LIG1        0.0279
     20 H          -2.5061    6.0718    1.3021 H       1  LIG1        0.0279
     21 H          -0.7334    8.3157    0.3492 H       1  LIG1        0.0659
     22 C           2.2379    8.3264   -0.0316 C.ar    1  LIG1        0.1736
     23 C           2.2160    9.6849   -0.1998 C.ar    1  LIG1       -0.0009
     24 C           3.5821   10.0933   -0.2022 C.ar    1  LIG1       -0.0091
     25 C           4.3336    8.9671   -0.0432 C.ar    1  LIG1        0.1712
     26 O           3.5248    7.8831    0.0635 O.2     1  LIG1       -0.4484
     27 C           1.0142   10.5598   -0.3570 C.3     1  LIG1       -0.0360
     28 H           0.5374   10.7727    0.6059 H       1  LIG1        0.0279
     29 H           0.2631   10.0903   -0.9986 H       1  LIG1        0.0279
     30 H           1.2892   11.5166   -0.8055 H       1  LIG1        0.0279
     31 H           3.9613   11.0974   -0.3178 H       1  LIG1        0.0659
     32 C           5.7564    8.7506    0.0225 C.ar    1  LIG1        0.1726
     33 C           6.5531    7.6490    0.1666 C.ar    1  LIG1       -0.0017
     34 C           7.8957    8.1525    0.1513 C.ar    1  LIG1       -0.0203
     35 C           7.8111    9.4941    0.0019 C.ar    1  LIG1        0.0930
     36 O           6.5154    9.8807   -0.0786 O.2     1  LIG1       -0.4596
     37 H           8.5436   10.2828   -0.0627 H       1  LIG1        0.1029
     38 C           6.1498    6.2155    0.3108 C.3     1  LIG1       -0.0360
     39 H           6.5124    5.8032    1.2577 H       1  LIG1        0.0279
     40 H           6.5812    5.6087   -0.4917 H       1  LIG1        0.0279
     41 H           5.0673    6.0998    0.2817 H       1  LIG1        0.0279
     42 H           8.8018    7.5709    0.2415 H       1  LIG1        0.0652
@<TRIPOS>BOND
     1     9     7    1
     2    29    27    1
     3    30    27    1
     4    40    38    1
     5    19    17    1
     6    27    23    1
     7    27    28    1
     8     7    10    1
     9     7     2    1
    10     7     8    1
    11    31    24    1
    12    11     3    1
    13    24    23   ar
    14    24    25   ar
    15    23    22   ar
    16     2     3   ar
    17     2     1   ar
    18     3     4   ar
    19    36    35   ar
    20    36    32   ar
    21    37    35    1
    22    25    32    1
    23    25    26   ar
    24    16    15   ar
    25    16    12   ar
    26    22    15    1
    27    22    26   ar
    28     1     6    1
    29     1     5   ar
    30     4    12    1
    31     4     5   ar
    32    35    34   ar
    33    32    33   ar
    34    15    14   ar
    35    12    13   ar
    36    34    33   ar
    37    34    42    1
    38    33    38    1
    39    13    14   ar
    40    13    17    1
    41    14    21    1
    42    41    38    1
    43    38    39    1
    44    17    18    1
    45    17    20    1
