@<TRIPOS>MOLECULE
mol_data/opt/cam/geoms/mol2/12ia12hf4hd4lf.out
 61 64 0 0 0
SMALL
GASTEIGER

@<TRIPOS>ATOM
      1 C           0.1732    1.6519    0.0719 C.ar    1  LIG1        0.1170
      2 C           1.5319    1.5766   -0.0141 C.ar    1  LIG1        0.1059
      3 C           1.9881    2.9263   -0.2021 C.ar    1  LIG1        0.1879
      4 C           0.8817    3.7456   -0.2235 C.ar    1  LIG1        0.1959
      5 O          -0.2336    2.9675   -0.0536 O.2     1  LIG1       -0.4557
      6 H          -0.6089    0.9265    0.2232 H       1  LIG1        0.1050
      7 N           2.3964    0.4820    0.1168 N.pl3   1  LIG1       -0.3527
      8 H           1.9492   -0.4079   -0.0667 H       1  LIG1        0.1425
      9 H           3.2134    0.5862   -0.4753 H       1  LIG1        0.1425
     10 O           3.3120    3.2799   -0.3591 O.3     1  LIG1       -0.4896
     11 C           4.0232    3.3974    0.8884 C.3     1  LIG1        0.0791
     12 H           5.0680    3.5853    0.6315 H       1  LIG1        0.0660
     13 H           3.6333    4.2354    1.4753 H       1  LIG1        0.0660
     14 H           3.9439    2.4705    1.4658 H       1  LIG1        0.0660
     15 C           0.6548    5.1542   -0.3912 C.ar    1  LIG1        0.1074
     16 C           1.5000    6.2183   -0.7145 C.ar    1  LIG1        0.0569
     17 C           0.7097    7.4054   -0.7661 C.ar    1  LIG1       -0.0038
     18 C          -0.6085    7.0390   -0.4826 C.ar    1  LIG1        0.0535
     19 N          -0.6159    5.6880   -0.2320 N.ar    1  LIG1       -0.3499
     20 H          -1.4449    5.1278   -0.1167 H       1  LIG1        0.1661
     21 N           2.8909    6.1841   -0.8660 N.pl3   1  LIG1       -0.3560
     22 H           3.2543    5.2482   -1.0137 H       1  LIG1        0.1424
     23 H           3.2283    6.8270   -1.5716 H       1  LIG1        0.1424
     24 C           1.2640    8.7879   -0.9514 C.3     1  LIG1       -0.0359
     25 H           0.5404    9.5481   -0.6513 H       1  LIG1        0.0279
     26 H           1.5374    9.0051   -1.9934 H       1  LIG1        0.0279
     27 H           2.1695    8.9181   -0.3465 H       1  LIG1        0.0279
     28 C          -2.2677    8.7212   -1.3684 C.ar    1  LIG1        0.0344
     29 C          -3.4745    9.4125   -1.1889 C.ar    1  LIG1       -0.0323
     30 C          -1.8446    7.8261   -0.3575 C.ar    1  LIG1        0.0195
     31 C          -4.2765    9.2409   -0.0576 C.ar    1  LIG1       -0.0096
     32 H          -3.7980   10.1094   -1.9582 H       1  LIG1        0.0642
     33 C          -2.6742    7.6518    0.7631 C.ar    1  LIG1       -0.0474
     34 C          -3.8802    8.3282    0.9450 C.ar    1  LIG1       -0.0419
     35 H          -2.3450    6.9579    1.5330 H       1  LIG1        0.0627
     36 N          -1.5012    8.9402   -2.5162 N.pl3   1  LIG1       -0.3574
     37 H          -0.8600    8.1859   -2.7296 H       1  LIG1        0.1423
     38 H          -2.0350    9.2317   -3.3239 H       1  LIG1        0.1423
     39 C          -4.7167    8.0712    2.1754 C.3     1  LIG1       -0.0391
     40 H          -4.3634    7.1831    2.7074 H       1  LIG1        0.0278
     41 H          -5.7705    7.9155    1.9208 H       1  LIG1        0.0278
     42 H          -4.6757    8.9196    2.8664 H       1  LIG1        0.0278
     43 C          -5.7912   10.9984    0.9925 C.ar    1  LIG1        0.1280
     44 C          -6.9975   11.6966    1.0026 C.ar    1  LIG1       -0.0159
     45 C          -5.5621    9.9998    0.0149 C.ar    1  LIG1        0.0275
     46 C          -7.9915   11.4309    0.0512 C.ar    1  LIG1       -0.0165
     47 H          -7.1835   12.4640    1.7442 H       1  LIG1        0.0655
     48 C          -6.5581    9.7566   -0.9286 C.ar    1  LIG1       -0.0087
     49 C          -7.7724   10.4583   -0.9217 C.ar    1  LIG1        0.1209
     50 H          -6.4055    8.9969   -1.6879 H       1  LIG1        0.0661
     51 H          -8.9173   11.9923    0.0894 H       1  LIG1        0.0655
     52 O          -4.7680   11.2243    1.8768 O.3     1  LIG1       -0.4945
     53 C          -4.9235   12.2586    2.8317 C.3     1  LIG1        0.0788
     54 H          -3.9950   12.2819    3.4041 H       1  LIG1        0.0660
     55 H          -5.0756   13.2343    2.3514 H       1  LIG1        0.0660
     56 H          -5.7618   12.0633    3.5139 H       1  LIG1        0.0660
     57 O          -8.6640   10.1105   -1.9034 O.3     1  LIG1       -0.4951
     58 C          -9.9085   10.7857   -1.9340 C.3     1  LIG1        0.0788
     59 H         -10.4624   10.3642   -2.7743 H       1  LIG1        0.0660
     60 H         -10.4809   10.6269   -1.0102 H       1  LIG1        0.0660
     61 H          -9.7828   11.8654   -2.0918 H       1  LIG1        0.0660
@<TRIPOS>BOND
     1    38    36    1
     2    59    58    1
     3    37    36    1
     4    36    28    1
     5    61    58    1
     6    26    24    1
     7    32    29    1
     8    58    57    1
     9    58    60    1
    10    57    49    1
    11    50    48    1
    12    23    21    1
    13    28    29   ar
    14    28    30   ar
    15    29    31   ar
    16    22    21    1
    17    24    17    1
    18    24    25    1
    19    24    27    1
    20    48    49   ar
    21    48    45   ar
    22    49    46   ar
    23    21    16    1
    24    17    16   ar
    25    17    18   ar
    26    16    15   ar
    27    18    30    1
    28    18    19   ar
    29     9     7    1
    30    15    19   ar
    31    15     4    1
    32    10     3    1
    33    10    11    1
    34    30    33   ar
    35    19    20    1
    36     4     3   ar
    37     4     5   ar
    38     3     2   ar
    39     8     7    1
    40    31    45    1
    41    31    34   ar
    42     5     1   ar
    43     2     1   ar
    44     2     7    1
    45    45    43   ar
    46    46    51    1
    47    46    44   ar
    48     1     6    1
    49    12    11    1
    50    33    34   ar
    51    33    35    1
    52    11    14    1
    53    11    13    1
    54    34    39    1
    55    43    44   ar
    56    43    52    1
    57    44    47    1
    58    52    53    1
    59    41    39    1
    60    39    40    1
    61    39    42    1
    62    55    53    1
    63    53    54    1
    64    53    56    1
