@<TRIPOS>MOLECULE
mol_data/opt/cam/geoms/mol2/12ia13fl6le12ih.out
 52 55 0 0 0
SMALL
GASTEIGER

@<TRIPOS>ATOM
      1 C           0.5102    1.6436   -0.0112 C.ar    1  LIG1        0.0955
      2 C           1.7675    1.7131    0.4876 C.ar    1  LIG1       -0.0121
      3 C           2.0376    3.1132    0.6523 C.ar    1  LIG1       -0.0114
      4 C           0.9242    3.7801    0.2313 C.ar    1  LIG1        0.1548
      5 O          -0.0189    2.8903   -0.1805 O.2     1  LIG1       -0.4611
      6 H          -0.1281    0.8190   -0.2860 H       1  LIG1        0.1032
      7 C           2.6776    0.5733    0.8150 C.3     1  LIG1       -0.0367
      8 H           2.9649    0.5858    1.8705 H       1  LIG1        0.0278
      9 H           3.5989    0.6178    0.2266 H       1  LIG1        0.0278
     10 H           2.1974   -0.3863    0.6109 H       1  LIG1        0.0278
     11 H           2.9182    3.5570    1.0943 H       1  LIG1        0.0658
     12 C           0.6011    5.1773    0.1293 C.ar    1  LIG1        0.1283
     13 C           1.4542    6.2670    0.1035 C.ar    1  LIG1        0.1881
     14 C           0.6597    7.4270   -0.0175 C.ar    1  LIG1        0.1876
     15 C          -0.6751    7.0235   -0.0641 C.ar    1  LIG1        0.0981
     16 N          -0.6748    5.6557    0.0277 N.ar    1  LIG1       -0.3457
     17 H          -1.5161    5.1025   -0.0174 H       1  LIG1        0.1662
     18 O           2.8185    6.2493    0.1689 O.3     1  LIG1       -0.5018
     19 H           3.1259    5.4099   -0.1990 H       1  LIG1        0.2924
     20 O           1.0914    8.7204   -0.0382 O.3     1  LIG1       -0.4895
     21 C           2.0659    9.0100   -1.0354 C.3     1  LIG1        0.0791
     22 H           2.2955   10.0719   -0.9415 H       1  LIG1        0.0660
     23 H           2.9727    8.4209   -0.8806 H       1  LIG1        0.0660
     24 H           1.6686    8.8106   -2.0373 H       1  LIG1        0.0660
     25 C          -3.1894    7.2643   -0.3126 C.ar    1  LIG1        0.2247
     26 C          -1.8920    7.8190   -0.1661 C.ar    1  LIG1        0.0647
     27 C          -1.8553    9.2064   -0.1408 C.ar    1  LIG1       -0.0298
     28 C          -3.0210    9.9776   -0.2527 C.ar    1  LIG1        0.0545
     29 C          -4.2465    9.3058   -0.3492 C.ar    1  LIG1        0.1254
     30 N          -4.2929    7.9654   -0.3887 N.ar    1  LIG1       -0.2080
     31 H          -0.8983    9.7022   -0.0480 H       1  LIG1        0.0639
     32 O          -3.2961    5.9132   -0.3661 O.3     1  LIG1       -0.4792
     33 C          -4.6068    5.3718   -0.5216 C.3     1  LIG1        0.0804
     34 H          -4.4706    4.2915   -0.5605 H       1  LIG1        0.0660
     35 H          -5.2440    5.6489    0.3201 H       1  LIG1        0.0660
     36 H          -5.0698    5.7343   -1.4408 H       1  LIG1        0.0660
     37 C          -2.8999   11.4006   -0.3309 C.1     1  LIG1       -0.0674
     38 C          -2.7377   12.5909   -0.4149 C.1     1  LIG1       -0.1138
     39 H          -2.6012   13.6443   -0.4966 H       1  LIG1        0.1232
     40 C          -5.5395    9.9893   -0.4239 C.ar    1  LIG1        0.1589
     41 C          -6.1022   11.0174    0.2783 C.ar    1  LIG1        0.0175
     42 C          -7.4308   11.1610   -0.2481 C.ar    1  LIG1        0.0664
     43 C          -7.5690   10.2116   -1.2097 C.ar    1  LIG1        0.1135
     44 O          -6.4286    9.4784   -1.3155 O.2     1  LIG1       -0.4592
     45 H          -8.3787    9.9366   -1.8666 H       1  LIG1        0.1049
     46 C          -5.5596   11.8015    1.4267 C.3     1  LIG1       -0.0343
     47 H          -6.3376   11.9294    2.1855 H       1  LIG1        0.0279
     48 H          -5.2168   12.7954    1.1207 H       1  LIG1        0.0279
     49 H          -4.7068   11.3009    1.8869 H       1  LIG1        0.0279
     50 N          -8.3794   12.0628    0.2506 N.pl3   1  LIG1       -0.3553
     51 H          -8.0062   12.9959    0.3720 H       1  LIG1        0.1424
     52 H          -9.2214   12.1039   -0.3080 H       1  LIG1        0.1424
@<TRIPOS>BOND
     1    24    21    1
     2    45    43    1
     3    36    33    1
     4    44    43   ar
     5    44    40   ar
     6    43    42   ar
     7    21    22    1
     8    21    23    1
     9    21    20    1
    10    34    33    1
    11    33    32    1
    12    33    35    1
    13    39    38    1
    14    40    29    1
    15    40    41   ar
    16    38    37    3
    17    30    29   ar
    18    30    25   ar
    19    32    25    1
    20    29    28   ar
    21    37    28    1
    22    25    26   ar
    23    52    50    1
    24     6     1    1
    25    28    27   ar
    26    42    50    1
    27    42    41   ar
    28    19    18    1
    29     5     1   ar
    30     5     4   ar
    31    26    27   ar
    32    26    15    1
    33    27    31    1
    34    15    14   ar
    35    15    16   ar
    36    20    14    1
    37    14    13   ar
    38    17    16    1
    39     1     2   ar
    40    16    12   ar
    41    13    12   ar
    42    13    18    1
    43    12     4    1
    44     9     7    1
    45     4     3   ar
    46    50    51    1
    47    41    46    1
    48     2     3   ar
    49     2     7    1
    50    10     7    1
    51     3    11    1
    52     7     8    1
    53    48    46    1
    54    46    49    1
    55    46    47    1
