@<TRIPOS>MOLECULE
mol_data/opt/cam/geoms/mol2/12ia12ia-.out
 22 23 0 0 0
SMALL
GASTEIGER

@<TRIPOS>ATOM
      1 C           0.2188    1.8353    0.0664 C.ar    1  LIG1        0.0956
      2 C           1.5737    1.8462    0.0289 C.ar    1  LIG1       -0.0120
      3 C           1.9433    3.2305   -0.0151 C.ar    1  LIG1       -0.0099
      4 C           0.7850    3.9445   -0.0008 C.ar    1  LIG1        0.1702
      5 O          -0.2808    3.1026    0.0491 O.2     1  LIG1       -0.4596
      6 H          -0.5110    1.0422    0.1059 H       1  LIG1        0.1032
      7 C           2.4906    0.6653    0.0327 C.3     1  LIG1       -0.0367
      8 H           3.1632    0.6876    0.8953 H       1  LIG1        0.0278
      9 H           3.1146    0.6443   -0.8657 H       1  LIG1        0.0278
     10 H           1.9290   -0.2708    0.0712 H       1  LIG1        0.0278
     11 H           2.9400    3.6434   -0.0526 H       1  LIG1        0.0659
     12 C           0.5257    5.3647   -0.0284 C.ar    1  LIG1        0.1725
     13 C          -0.5999    6.1391   -0.0163 C.ar    1  LIG1       -0.0017
     14 C          -0.1266    7.4925   -0.0625 C.ar    1  LIG1       -0.0203
     15 C           1.2240    7.4349   -0.0984 C.ar    1  LIG1        0.0930
     16 O           1.6432    6.1471   -0.0783 O.2     1  LIG1       -0.4596
     17 H           1.9996    8.1830   -0.1381 H       1  LIG1        0.1029
     18 C          -2.0314    5.7080    0.0336 C.3     1  LIG1       -0.0360
     19 H          -2.1190    4.6232    0.0634 H       1  LIG1        0.0279
     20 H          -2.5785    6.0714   -0.8421 H       1  LIG1        0.0279
     21 H          -2.5305    6.1159    0.9183 H       1  LIG1        0.0279
     22 H          -0.7335    8.3864   -0.0676 H       1  LIG1        0.0652
@<TRIPOS>BOND
     1     9     7    1
     2    20    18    1
     3    17    15    1
     4    15    16   ar
     5    15    14   ar
     6    16    12   ar
     7    22    14    1
     8    14    13   ar
     9    11     3    1
    10    12    13   ar
    11    12     4    1
    12    13    18    1
    13     3     4   ar
    14     3     2   ar
    15     4     5   ar
    16     2     7    1
    17     2     1   ar
    18     7    10    1
    19     7     8    1
    20    18    19    1
    21    18    21    1
    22     5     1   ar
    23     1     6    1
