@<TRIPOS>MOLECULE
mol_data/opt/cam/geoms/mol2/12ia.out
 12 12 0 0 0
SMALL
GASTEIGER

@<TRIPOS>ATOM
      1 C           0.1633    1.9503    0.1198 C.ar    1  LIG1        0.0946
      2 C           1.5139    1.9272    0.0074 C.ar    1  LIG1       -0.0128
      3 C           1.9067    3.3057   -0.0958 C.ar    1  LIG1       -0.0210
      4 C           0.7686    4.0348   -0.0368 C.ar    1  LIG1        0.0919
      5 O          -0.3098    3.2246    0.0952 O.2     1  LIG1       -0.4708
      6 H          -0.5783    1.1734    0.2218 H       1  LIG1        0.1032
      7 H           0.5622    5.0928   -0.0732 H       1  LIG1        0.1029
      8 C           2.4044    0.7259   -0.0067 C.3     1  LIG1       -0.0367
      9 H           3.1246    0.7536    0.8165 H       1  LIG1        0.0278
     10 H           2.9768    0.6646   -0.9372 H       1  LIG1        0.0278
     11 H           1.8250   -0.1951    0.0889 H       1  LIG1        0.0278
     12 H           2.9113    3.6895   -0.1999 H       1  LIG1        0.0652
@<TRIPOS>BOND
     1    10     8    1
     2    12     3    1
     3     3     4   ar
     4     3     2   ar
     5     7     4    1
     6     4     5   ar
     7     8     2    1
     8     8    11    1
     9     8     9    1
    10     2     1   ar
    11     5     1   ar
    12     1     6    1
