@<TRIPOS>MOLECULE
mol_data/opt/cam/geoms/mol2/12ia12ia.out
 22 23 0 0 0
SMALL
GASTEIGER

@<TRIPOS>ATOM
      1 C           0.2084    1.8549    0.3404 C.ar    1  LIG1        0.0956
      2 C           1.5213    1.8738    0.0014 C.ar    1  LIG1       -0.0120
      3 C           1.8334    3.2545   -0.2229 C.ar    1  LIG1       -0.0099
      4 C           0.6884    3.9581    0.0063 C.ar    1  LIG1        0.1702
      5 O          -0.3140    3.1089    0.3524 O.2     1  LIG1       -0.4596
      6 H          -0.4741    1.0576    0.5893 H       1  LIG1        0.1032
      7 C           2.4443    0.7045   -0.1250 C.3     1  LIG1       -0.0367
      8 H           3.2896    0.7877    0.5648 H       1  LIG1        0.0278
      9 H           2.8556    0.6294   -1.1361 H       1  LIG1        0.0278
     10 H           1.9263   -0.2318    0.0944 H       1  LIG1        0.0278
     11 H           2.7817    3.6609   -0.5408 H       1  LIG1        0.0659
     12 C           0.3781    5.3679   -0.0330 C.ar    1  LIG1        0.1725
     13 C           1.1633    6.4853    0.0241 C.ar    1  LIG1       -0.0017
     14 C           0.2580    7.5902   -0.0761 C.ar    1  LIG1       -0.0203
     15 C          -0.9859    7.0653   -0.1769 C.ar    1  LIG1        0.0930
     16 O          -0.9341    5.7133   -0.1545 O.2     1  LIG1       -0.4596
     17 H          -1.9698    7.4982   -0.2628 H       1  LIG1        0.1029
     18 C           2.6494    6.5484    0.1735 C.3     1  LIG1       -0.0360
     19 H           2.9507    7.4765    0.6647 H       1  LIG1        0.0279
     20 H           3.1593    6.5113   -0.7955 H       1  LIG1        0.0279
     21 H           3.0211    5.7130    0.7728 H       1  LIG1        0.0279
     22 H           0.5164    8.6391   -0.0614 H       1  LIG1        0.0652
@<TRIPOS>BOND
     1     9     7    1
     2    20    18    1
     3    11     3    1
     4    17    15    1
     5     3     2   ar
     6     3     4   ar
     7    15    16   ar
     8    15    14   ar
     9    16    12   ar
    10     7     2    1
    11     7    10    1
    12     7     8    1
    13    14    22    1
    14    14    13   ar
    15    12     4    1
    16    12    13   ar
    17     2     1   ar
    18     4     5   ar
    19    13    18    1
    20    18    19    1
    21    18    21    1
    22     1     5   ar
    23     1     6    1
