@<TRIPOS>MOLECULE
mol_data/opt/cam/geoms/mol2/12id6hf6lh-12df12lh-12ld13ii12fh-.out
 98 105 0 0 0
SMALL
GASTEIGER

@<TRIPOS>ATOM
      1 C           2.4805    2.1161    1.2524 C.ar    1  LIG1        0.0968
      2 C           1.5399    1.6168    0.4257 C.ar    1  LIG1        0.0053
      3 C           0.7882    2.7640   -0.0211 C.ar    1  LIG1        0.1004
      4 C           1.3403    3.8847    0.5720 C.ar    1  LIG1        0.1557
      5 O           2.3705    3.4772    1.3477 O.2     1  LIG1       -0.4612
      6 H           3.2728    1.6664    1.8283 H       1  LIG1        0.1032
      7 C           1.3018    0.1947    0.0409 C.3     1  LIG1       -0.0355
      8 H           1.3960    0.0582   -1.0400 H       1  LIG1        0.0279
      9 H           0.2952   -0.1263    0.3233 H       1  LIG1        0.0279
     10 H           2.0185   -0.4671    0.5301 H       1  LIG1        0.0279
     11 N          -1.2302    2.6983   -1.6199 N.1     1  LIG1       -0.1907
     12 C          -0.3222    2.7177   -0.8992 C.1     1  LIG1        0.1032
     13 C           1.6370    6.3012    1.3039 C.ar    1  LIG1        0.1279
     14 C           1.0192    5.2994    0.5139 C.ar    1  LIG1        0.0615
     15 C           0.0227    5.7241   -0.3694 C.ar    1  LIG1       -0.0040
     16 C          -0.3792    7.0424   -0.4332 C.ar    1  LIG1        0.1437
     17 C           0.2449    7.9480    0.4375 C.ar    1  LIG1        0.1195
     18 N           1.2322    7.5735    1.2464 N.ar    1  LIG1       -0.2279
     19 H          -0.4467    5.0151   -1.0337 H       1  LIG1        0.0663
     20 N           2.6925    6.0691    2.1452 N.pl3   1  LIG1       -0.3426
     21 H           2.8825    6.8210    2.7883 H       1  LIG1        0.1437
     22 H           2.8951    5.1299    2.4383 H       1  LIG1        0.1437
     23 O          -1.2999    7.4678   -1.3322 O.3     1  LIG1       -0.5046
     24 H          -1.6747    6.6801   -1.8208 H       1  LIG1        0.2922
     25 C          -1.4581    9.8135    0.6897 C.ar    1  LIG1        0.2248
     26 C          -0.1331    9.3788    0.4601 C.ar    1  LIG1        0.0672
     27 C           0.8133   10.3635    0.2986 C.ar    1  LIG1       -0.0244
     28 C           0.4810   11.7327    0.2791 C.ar    1  LIG1        0.0549
     29 C          -0.8730   12.0375    0.4830 C.ar    1  LIG1        0.1318
     30 N          -1.7869   11.0721    0.7145 N.ar    1  LIG1       -0.2073
     31 H           1.8479   10.0693    0.1501 H       1  LIG1        0.0645
     32 O          -2.4055    8.8737    0.9115 O.3     1  LIG1       -0.4792
     33 C          -3.6983    9.3527    1.2771 C.3     1  LIG1        0.0804
     34 H          -4.3192    8.4638    1.3813 H       1  LIG1        0.0660
     35 H          -3.6524    9.9004    2.2218 H       1  LIG1        0.0660
     36 H          -4.1071   10.0154    0.5130 H       1  LIG1        0.0660
     37 N           1.4614   12.6554   -0.0377 N.pl3   1  LIG1       -0.3562
     38 H           2.3958   12.2763   -0.0682 H       1  LIG1        0.1424
     39 H           1.4386   13.5636    0.4013 H       1  LIG1        0.1424
     40 C          -1.4913   13.3603    0.3626 C.ar    1  LIG1        0.1769
     41 C          -1.1202   14.6920    0.4560 C.ar    1  LIG1        0.1411
     42 C          -2.2884   15.4682    0.1587 C.ar    1  LIG1        0.1844
     43 C          -3.2889   14.5667   -0.0682 C.ar    1  LIG1        0.2168
     44 O          -2.7967   13.3040    0.0484 O.2     1  LIG1       -0.4448
     45 N           1.1333   15.6630    1.2337 N.1     1  LIG1       -0.1906
     46 C           0.1164   15.2380    0.8757 C.1     1  LIG1        0.1067
     47 O          -2.3213   16.8079    0.1380 O.3     1  LIG1       -0.5023
     48 H          -3.1976   17.0924   -0.1890 H       1  LIG1        0.2923
     49 C          -4.6843   14.7105   -0.3526 C.ar    1  LIG1        0.2176
     50 C          -5.4721   15.8089   -0.5432 C.ar    1  LIG1        0.1904
     51 C          -6.7953   15.3477   -0.8211 C.ar    1  LIG1        0.1173
     52 C          -6.7172   13.9774   -0.7543 C.ar    1  LIG1        0.1987
     53 O          -5.4301   13.5937   -0.4753 O.2     1  LIG1       -0.4426
     54 O          -5.0504   17.1161   -0.4927 O.3     1  LIG1       -0.4896
     55 C          -5.5942   17.8445    0.6208 C.3     1  LIG1        0.0791
     56 H          -5.2637   18.8767    0.5050 H       1  LIG1        0.0660
     57 H          -6.6853   17.7949    0.6091 H       1  LIG1        0.0660
     58 H          -5.2167   17.4356    1.5627 H       1  LIG1        0.0660
     59 N          -7.8925   16.1726   -1.0360 N.pl3   1  LIG1       -0.3521
     60 H          -7.6704   16.9669   -1.6228 H       1  LIG1        0.1425
     61 H          -8.7029   15.6654   -1.3752 H       1  LIG1        0.1425
     62 C          -7.6831   12.9187   -0.8496 C.ar    1  LIG1        0.2153
     63 C          -9.0275   12.8845   -1.0714 C.ar    1  LIG1        0.1869
     64 C          -9.4230   11.5026   -1.0348 C.ar    1  LIG1        0.1412
     65 C          -8.2812   10.7820   -0.7619 C.ar    1  LIG1        0.1732
     66 O          -7.2316   11.6365   -0.6708 O.2     1  LIG1       -0.4450
     67 O          -9.8177   13.9590   -1.3431 O.3     1  LIG1       -0.4900
     68 C         -10.9158   14.1458   -0.4437 C.3     1  LIG1        0.0790
     69 H         -11.4236   15.0535   -0.7686 H       1  LIG1        0.0660
     70 H         -11.6115   13.3053   -0.4951 H       1  LIG1        0.0660
     71 H         -10.5553   14.2705    0.5819 H       1  LIG1        0.0660
     72 N         -11.7653   10.6221   -1.6400 N.1     1  LIG1       -0.1906
     73 C         -10.7053   10.9986   -1.3627 C.1     1  LIG1        0.1067
     74 C          -8.0280    9.3809   -0.5735 C.ar    1  LIG1        0.0872
     75 C          -8.8337    8.3908   -0.0236 C.ar    1  LIG1       -0.0185
     76 C          -8.1171    7.1705   -0.1065 C.ar    1  LIG1       -0.0184
     77 C          -6.8937    7.4543   -0.6994 C.ar    1  LIG1        0.0895
     78 N          -6.8444    8.7960   -0.9610 N.ar    1  LIG1       -0.3488
     79 H          -6.0563    9.2582   -1.3919 H       1  LIG1        0.1661
     80 C         -10.1780    8.5595    0.6094 C.3     1  LIG1       -0.0373
     81 H         -10.3180    9.5742    0.9881 H       1  LIG1        0.0278
     82 H         -10.2918    7.8715    1.4513 H       1  LIG1        0.0278
     83 H         -10.9956    8.3630   -0.0906 H       1  LIG1        0.0278
     84 C          -8.6127    5.8426    0.3765 C.3     1  LIG1       -0.0373
     85 H          -7.8118    5.1058    0.4139 H       1  LIG1        0.0278
     86 H          -9.3977    5.4446   -0.2757 H       1  LIG1        0.0278
     87 H          -9.0433    5.9274    1.3792 H       1  LIG1        0.0278
     88 C          -5.8041    6.5975   -1.1024 C.ar    1  LIG1        0.1942
     89 C          -4.5501    6.8736   -1.5697 C.ar    1  LIG1        0.1853
     90 C          -3.9702    5.6176   -1.9569 C.ar    1  LIG1        0.1057
     91 C          -4.8987    4.6739   -1.6614 C.ar    1  LIG1        0.1170
     92 O          -6.0127    5.2490   -1.1492 O.2     1  LIG1       -0.4558
     93 H          -4.9023    3.5989   -1.7466 H       1  LIG1        0.1050
     94 O          -4.0235    8.1205   -1.6968 O.3     1  LIG1       -0.5020
     95 H          -3.1196    8.1381   -1.3214 H       1  LIG1        0.2924
     96 N          -2.6736    5.4452   -2.5194 N.pl3   1  LIG1       -0.3527
     97 H          -2.3456    4.4866   -2.4002 H       1  LIG1        0.1425
     98 H          -2.6833    5.6523   -3.5156 H       1  LIG1        0.1425
@<TRIPOS>BOND
     1    98    96    1
     2    96    97    1
     3    96    90    1
     4    90    91   ar
     5    90    89   ar
     6    24    23    1
     7    93    91    1
     8    94    89    1
     9    94    95    1
    10    91    92   ar
    11    72    73    3
    12    60    59    1
    13    11    12    3
    14    89    88   ar
    15    79    78    1
    16    61    59    1
    17    73    64    1
    18    67    63    1
    19    67    68    1
    20    23    16    1
    21    92    88   ar
    22    88    77    1
    23    63    64   ar
    24    63    62   ar
    25     8     7    1
    26    59    51    1
    27    64    65   ar
    28    19    15    1
    29    78    77   ar
    30    78    74   ar
    31    12     3    1
    32    62    52    1
    33    62    66   ar
    34    51    52   ar
    35    51    50   ar
    36    69    68    1
    37    65    66   ar
    38    65    74    1
    39    52    53   ar
    40    77    76   ar
    41    74    75   ar
    42    50    54    1
    43    50    49   ar
    44    70    68    1
    45    54    55    1
    46    53    49   ar
    47    68    71    1
    48    16    15   ar
    49    16    17   ar
    50    15    14   ar
    51    49    43    1
    52    86    84    1
    53    48    47    1
    54    76    75   ar
    55    76    84    1
    56    83    80    1
    57    38    37    1
    58    43    44   ar
    59    43    42   ar
    60    37    28    1
    61    37    39    1
    62    75    80    1
    63     3     2   ar
    64     3     4   ar
    65     7     9    1
    66     7     2    1
    67     7    10    1
    68    44    40   ar
    69    47    42    1
    70    31    27    1
    71    42    41   ar
    72    28    27   ar
    73    28    29   ar
    74    27    26   ar
    75    40    41   ar
    76    40    29    1
    77    84    85    1
    78    84    87    1
    79     2     1   ar
    80    17    26    1
    81    17    18   ar
    82    41    46    1
    83    26    25   ar
    84    29    30   ar
    85    56    55    1
    86    36    33    1
    87    14     4    1
    88    14    13   ar
    89     4     5   ar
    90    57    55    1
    91    80    81    1
    92    80    82    1
    93    55    58    1
    94    25    30   ar
    95    25    32    1
    96    46    45    3
    97    32    33    1
    98    18    13   ar
    99     1     5   ar
   100     1     6    1
   101    33    34    1
   102    33    35    1
   103    13    20    1
   104    20    22    1
   105    20    21    1
