@<TRIPOS>MOLECULE
mol_data/opt/cam/geoms/mol2/12id13af-12hh-4ia-13fe13ff-13aa12hf.out
 85 92 0 0 0
SMALL
GASTEIGER

@<TRIPOS>ATOM
      1 C           0.8299    2.9065    2.7632 C.ar    1  LIG1        0.0968
      2 C           2.1779    2.9785    2.7712 C.ar    1  LIG1        0.0054
      3 C           2.4968    4.1635    2.0114 C.ar    1  LIG1        0.1017
      4 C           1.3049    4.7141    1.6053 C.ar    1  LIG1        0.1685
      5 O           0.2869    3.9493    2.0613 O.2     1  LIG1       -0.4599
      6 H           0.1268    2.2104    3.1910 H       1  LIG1        0.1032
      7 C           3.1536    2.0521    3.4167 C.3     1  LIG1       -0.0355
      8 H           3.7693    2.5795    4.1506 H       1  LIG1        0.0279
      9 H           3.8325    1.6184    2.6770 H       1  LIG1        0.0279
     10 H           2.6397    1.2356    3.9275 H       1  LIG1        0.0279
     11 N           4.8610    5.0579    1.5172 N.1     1  LIG1       -0.1907
     12 C           3.7948    4.6613    1.7366 C.1     1  LIG1        0.1033
     13 C           0.9532    5.8745    0.8395 C.ar    1  LIG1        0.0875
     14 C           1.7434    6.8540    0.2572 C.ar    1  LIG1        0.0090
     15 C           0.8746    7.7705   -0.3662 C.ar    1  LIG1        0.1458
     16 C          -0.4322    7.3280   -0.1545 C.ar    1  LIG1        0.1265
     17 N          -0.3548    6.1691    0.5821 N.ar    1  LIG1       -0.3463
     18 H          -1.1491    5.6411    0.9049 H       1  LIG1        0.1662
     19 H           2.8208    6.9099    0.2780 H       1  LIG1        0.0677
     20 O           1.2812    8.8626   -1.0341 O.3     1  LIG1       -0.5045
     21 H           0.4888    9.3510   -1.3609 H       1  LIG1        0.2922
     22 C          -1.6983    7.8645   -0.5652 C.ar    1  LIG1        0.1777
     23 C          -2.0672    8.9702   -1.2809 C.ar    1  LIG1        0.0942
     24 C          -3.4997    8.9600   -1.3404 C.ar    1  LIG1        0.0927
     25 C          -3.9179    7.8642   -0.6419 C.ar    1  LIG1        0.1584
     26 O          -2.8025    7.1831   -0.1826 O.2     1  LIG1       -0.4494
     27 N          -1.1690    9.9184   -1.8542 N.pl3   1  LIG1       -0.3535
     28 H          -1.1994    9.9181   -2.8705 H       1  LIG1        0.1425
     29 H          -1.3610   10.8633   -1.5328 H       1  LIG1        0.1425
     30 N          -4.2739    9.9211   -1.9940 N.pl3   1  LIG1       -0.3536
     31 H          -3.7920   10.3428   -2.7776 H       1  LIG1        0.1425
     32 H          -5.1732    9.5652   -2.2928 H       1  LIG1        0.1425
     33 C          -6.3121    7.9755    0.1197 C.ar    1  LIG1       -0.0391
     34 C          -7.5349    7.3315    0.2802 C.ar    1  LIG1       -0.0489
     35 C          -5.2228    7.2506   -0.4043 C.ar    1  LIG1        0.0221
     36 C          -7.7168    5.9791   -0.0338 C.ar    1  LIG1        0.0022
     37 H          -8.3722    7.8877    0.6850 H       1  LIG1        0.0627
     38 C          -5.3964    5.8943   -0.7021 C.ar    1  LIG1       -0.0501
     39 C          -6.6141    5.2661   -0.5231 C.ar    1  LIG1       -0.0518
     40 H          -4.5550    5.3357   -1.0992 H       1  LIG1        0.0625
     41 C          -6.1634    9.4028    0.5805 C.3     1  LIG1       -0.0390
     42 H          -7.0697    9.7361    1.0893 H       1  LIG1        0.0278
     43 H          -5.9572   10.0981   -0.2375 H       1  LIG1        0.0278
     44 H          -5.3254    9.4947    1.2777 H       1  LIG1        0.0278
     45 H          -6.7136    4.2222   -0.8045 H       1  LIG1        0.0624
     46 C          -9.0061    5.3372    0.1645 C.ar    1  LIG1        0.0902
     47 C         -10.2661    5.8516    0.3772 C.ar    1  LIG1        0.1581
     48 C         -11.1978    4.7778    0.4880 C.ar    1  LIG1        0.0934
     49 C         -10.4690    3.6012    0.3551 C.ar    1  LIG1        0.0863
     50 N          -9.1683    3.9546    0.1323 N.ar    1  LIG1       -0.3490
     51 H          -8.4096    3.3032    0.2512 H       1  LIG1        0.1661
     52 O         -10.5904    7.1649    0.4305 O.3     1  LIG1       -0.5035
     53 H         -11.5501    7.2222    0.5466 H       1  LIG1        0.2923
     54 C         -12.5916    4.9859    0.6274 C.1     1  LIG1       -0.0638
     55 C         -13.7573    5.2774    0.7337 C.1     1  LIG1       -0.1137
     56 H         -14.7960    5.4901    0.8366 H       1  LIG1        0.1232
     57 C         -10.8588    2.2157    0.3877 C.ar    1  LIG1        0.1105
     58 C         -11.8381    1.5517    1.0875 C.ar    1  LIG1        0.1863
     59 C         -11.7443    0.1743    0.7571 C.ar    1  LIG1        0.1863
     60 C         -10.7133    0.0079   -0.1300 C.ar    1  LIG1        0.1091
     61 N         -10.1234    1.2545   -0.3169 N.ar    1  LIG1       -0.3460
     62 H          -9.7532    1.4939   -1.2268 H       1  LIG1        0.1662
     63 O         -12.6910    2.0792    1.9929 O.3     1  LIG1       -0.5019
     64 H         -13.1982    1.3499    2.3742 H       1  LIG1        0.2924
     65 O         -12.5440   -0.7557    1.3474 O.3     1  LIG1       -0.5019
     66 H         -12.1538   -1.6300    1.2081 H       1  LIG1        0.2924
     67 C         -10.2284   -1.2114   -0.7305 C.ar    1  LIG1        0.0671
     68 C         -10.9060   -2.3584   -1.1008 C.ar    1  LIG1       -0.0342
     69 C          -9.9526   -3.2851   -1.5900 C.ar    1  LIG1       -0.0327
     70 C          -8.7129   -2.6806   -1.5162 C.ar    1  LIG1        0.0845
     71 N          -8.8967   -1.4219   -0.9996 N.ar    1  LIG1       -0.3505
     72 H          -8.1434   -0.8059   -0.7392 H       1  LIG1        0.1660
     73 H         -11.9790   -2.4858   -1.0734 H       1  LIG1        0.0639
     74 H         -10.1395   -4.2912   -1.9342 H       1  LIG1        0.0640
     75 C          -7.4043   -3.1494   -1.8841 C.ar    1  LIG1        0.1751
     76 C          -6.9806   -4.2216   -2.6148 C.ar    1  LIG1        0.1145
     77 C          -5.5523   -4.1417   -2.6206 C.ar    1  LIG1        0.1763
     78 C          -5.2037   -3.0395   -1.9113 C.ar    1  LIG1        0.1359
     79 O          -6.3285   -2.4153   -1.4562 O.2     1  LIG1       -0.4558
     80 H          -4.2588   -2.5869   -1.6587 H       1  LIG1        0.1068
     81 N          -7.7336   -5.2230   -3.2234 N.pl3   1  LIG1       -0.3522
     82 H          -8.5756   -4.8774   -3.6669 H       1  LIG1        0.1425
     83 H          -7.1820   -5.7687   -3.8730 H       1  LIG1        0.1425
     84 O          -4.8051   -5.0675   -3.2776 O.3     1  LIG1       -0.5024
     85 H          -3.8685   -4.8586   -3.1898 H       1  LIG1        0.2923
@<TRIPOS>BOND
     1    83    81    1
     2    82    81    1
     3    84    85    1
     4    84    77    1
     5    81    76    1
     6    28    27    1
     7    31    30    1
     8    77    76   ar
     9    77    78   ar
    10    76    75   ar
    11    32    30    1
    12    30    24    1
    13    74    69    1
    14    78    80    1
    15    78    79   ar
    16    75    70    1
    17    75    79   ar
    18    27    29    1
    19    27    23    1
    20    69    70   ar
    21    69    68   ar
    22    70    71   ar
    23    21    20    1
    24    24    23   ar
    25    24    25   ar
    26    23    22   ar
    27    62    61    1
    28    68    73    1
    29    68    67   ar
    30    40    38    1
    31    20    15    1
    32    71    72    1
    33    71    67   ar
    34    45    39    1
    35    67    60    1
    36    38    39   ar
    37    38    35   ar
    38    25    35    1
    39    25    26   ar
    40    22    26   ar
    41    22    16    1
    42    39    36   ar
    43    35    33   ar
    44    15    16   ar
    45    15    14   ar
    46    61    60   ar
    47    61    57   ar
    48    43    41    1
    49    16    17   ar
    50    60    59   ar
    51    36    46    1
    52    36    34   ar
    53    33    34   ar
    54    33    41    1
    55    50    46   ar
    56    50    51    1
    57    50    49   ar
    58    46    47   ar
    59    14    19    1
    60    14    13   ar
    61    34    37    1
    62    49    57    1
    63    49    48   ar
    64    47    52    1
    65    47    48   ar
    66    57    58   ar
    67    52    53    1
    68    48    54    1
    69    41    42    1
    70    41    44    1
    71    17    13   ar
    72    17    18    1
    73    54    55    3
    74    55    56    1
    75    59    58   ar
    76    59    65    1
    77    13     4    1
    78    58    63    1
    79    66    65    1
    80    11    12    3
    81     4     3   ar
    82     4     5   ar
    83    12     3    1
    84    63    64    1
    85     3     2   ar
    86     5     1   ar
    87     9     7    1
    88     1     2   ar
    89     1     6    1
    90     2     7    1
    91     7    10    1
    92     7     8    1
