@<TRIPOS>MOLECULE
mol_data/opt/cam/geoms/mol2/12id6eh-6el-13ee-13eh-6ad-13ih13ef-.out
 99 106 0 0 0
SMALL
GASTEIGER

@<TRIPOS>ATOM
      1 C           1.1666    2.2476    3.3945 C.ar    1  LIG1        0.0968
      2 C           1.2219    1.6557    2.1796 C.ar    1  LIG1        0.0053
      3 C           0.9270    2.7124    1.2465 C.ar    1  LIG1        0.1003
      4 C           0.7160    3.8571    1.9788 C.ar    1  LIG1        0.1551
      5 O           0.8659    3.5691    3.2844 O.2     1  LIG1       -0.4612
      6 H           1.3121    1.8800    4.3977 H       1  LIG1        0.1032
      7 C           1.5133    0.2295    1.8501 C.3     1  LIG1       -0.0355
      8 H           2.3911    0.1454    1.2033 H       1  LIG1        0.0279
      9 H           0.6748   -0.2322    1.3214 H       1  LIG1        0.0279
     10 H           1.7025   -0.3488    2.7562 H       1  LIG1        0.0279
     11 N           0.8199    2.4557   -1.3163 N.1     1  LIG1       -0.1907
     12 C           0.8571    2.5755   -0.1651 C.1     1  LIG1        0.1032
     13 C          -0.3801    6.1003    2.3765 C.ar    1  LIG1        0.1246
     14 C           0.3999    5.2286    1.5876 C.ar    1  LIG1        0.0541
     15 C           0.8681    5.7032    0.3672 C.ar    1  LIG1       -0.0256
     16 C           0.5727    6.9947   -0.0585 C.ar    1  LIG1        0.0517
     17 C          -0.1856    7.8000    0.8179 C.ar    1  LIG1        0.0957
     18 N          -0.6387    7.3482    1.9788 N.ar    1  LIG1       -0.2358
     19 H           1.4700    5.0629   -0.2679 H       1  LIG1        0.0644
     20 C          -0.9747    5.7102    3.6236 C.1     1  LIG1       -0.0491
     21 C          -1.5057    5.4160    4.6617 C.1     1  LIG1       -0.1124
     22 H          -1.9728    5.1581    5.5841 H       1  LIG1        0.1232
     23 N           1.0527    7.4701   -1.2663 N.pl3   1  LIG1       -0.3563
     24 H           1.2940    6.7605   -1.9431 H       1  LIG1        0.1424
     25 H           0.5388    8.2396   -1.6696 H       1  LIG1        0.1424
     26 C          -1.8229    9.6993    0.4686 C.ar    1  LIG1        0.1233
     27 C          -0.5075    9.2132    0.4824 C.ar    1  LIG1        0.0395
     28 C           0.5186   10.1194    0.2127 C.ar    1  LIG1       -0.0059
     29 C           0.2284   11.4502   -0.0499 C.ar    1  LIG1        0.1481
     30 C          -1.1240   11.8462   -0.0848 C.ar    1  LIG1        0.1312
     31 N          -2.0969   10.9783    0.1881 N.ar    1  LIG1       -0.2326
     32 H           1.5451    9.7758    0.2401 H       1  LIG1        0.0662
     33 C          -2.9545    8.8488    0.7087 C.1     1  LIG1       -0.0491
     34 C          -3.9211    8.1545    0.8804 C.1     1  LIG1       -0.1124
     35 H          -4.7702    7.5328    1.0490 H       1  LIG1        0.1232
     36 O           1.1441   12.4101   -0.2482 O.3     1  LIG1       -0.4929
     37 C           2.5137   12.0656   -0.2859 C.3     1  LIG1        0.0789
     38 H           3.0418   12.9906   -0.5116 H       1  LIG1        0.0660
     39 H           2.8536   11.6743    0.6794 H       1  LIG1        0.0660
     40 H           2.7193   11.3286   -1.0702 H       1  LIG1        0.0660
     41 C          -1.5864   13.2117   -0.3559 C.ar    1  LIG1        0.0859
     42 C          -1.0811   14.3721   -0.9411 C.ar    1  LIG1        0.0675
     43 C          -2.1244   15.3574   -0.8845 C.ar    1  LIG1        0.0674
     44 C          -3.2214   14.7681   -0.2728 C.ar    1  LIG1        0.0814
     45 N          -2.8734   13.4834    0.0182 N.ar    1  LIG1       -0.3497
     46 H          -3.4282   12.7838    0.4919 H       1  LIG1        0.1661
     47 C           0.1534   14.6238   -1.5987 C.1     1  LIG1       -0.0662
     48 C           1.1483   14.9296   -2.2043 C.1     1  LIG1       -0.1138
     49 H           2.0244   15.2011   -2.7457 H       1  LIG1        0.1232
     50 C          -2.0601   16.6645   -1.4321 C.1     1  LIG1       -0.0662
     51 C          -2.0015   17.7665   -1.9120 C.1     1  LIG1       -0.1138
     52 H          -1.9536   18.7455   -2.3288 H       1  LIG1        0.1232
     53 C          -4.5535   15.2658    0.0096 C.ar    1  LIG1        0.0820
     54 C          -4.9963   16.4574    0.5721 C.ar    1  LIG1        0.0726
     55 C          -6.4187   16.3824    0.6597 C.ar    1  LIG1        0.0665
     56 C          -6.8101   15.1540    0.1580 C.ar    1  LIG1        0.0706
     57 N          -5.6542   14.4991   -0.2342 N.ar    1  LIG1       -0.3505
     58 H          -5.6249   13.5967   -0.6795 H       1  LIG1        0.1660
     59 C          -4.2297   17.5525    1.0449 C.1     1  LIG1       -0.0656
     60 C          -3.6417   18.5129    1.4738 C.1     1  LIG1       -0.1138
     61 H          -3.0893   19.3450    1.8444 H       1  LIG1        0.1232
     62 N          -7.2348   17.3760    1.2037 N.pl3   1  LIG1       -0.3554
     63 H          -6.7048   18.2121    1.4196 H       1  LIG1        0.1424
     64 H          -8.0351   17.6080    0.6282 H       1  LIG1        0.1424
     65 C          -8.4087   13.5763   -0.9429 C.ar    1  LIG1        0.0376
     66 C          -8.1298   14.5607    0.0177 C.ar    1  LIG1        0.0195
     67 C          -9.2063   14.9543    0.8114 C.ar    1  LIG1       -0.0316
     68 C         -10.4501   14.3436    0.6573 C.ar    1  LIG1        0.0797
     69 C         -10.5946   13.2824   -0.2611 C.ar    1  LIG1        0.1047
     70 N          -9.5691   12.9572   -1.0689 N.ar    1  LIG1       -0.2516
     71 H          -9.0819   15.7425    1.5454 H       1  LIG1        0.0638
     72 H          -7.6430   13.2822   -1.6590 H       1  LIG1        0.0836
     73 N         -12.4334   15.4159    1.9286 N.1     1  LIG1       -0.1908
     74 C         -11.5611   14.9006    1.3698 C.1     1  LIG1        0.1014
     75 C         -11.8081   12.5042   -0.4632 C.ar    1  LIG1        0.0714
     76 C         -12.8143   12.0410    0.3735 C.ar    1  LIG1       -0.0023
     77 C         -13.6511   11.2042   -0.4181 C.ar    1  LIG1        0.0553
     78 C         -13.1259   11.1631   -1.7040 C.ar    1  LIG1        0.0859
     79 N         -12.0102   11.9685   -1.7118 N.ar    1  LIG1       -0.3501
     80 H         -11.2466   11.9142   -2.3701 H       1  LIG1        0.1661
     81 C         -13.0090   12.2222    1.8438 C.3     1  LIG1       -0.0359
     82 H         -13.4694   11.3165    2.2477 H       1  LIG1        0.0279
     83 H         -13.6557   13.0707    2.0867 H       1  LIG1        0.0279
     84 H         -12.0626   12.3875    2.3633 H       1  LIG1        0.0279
     85 N         -14.7710   10.5461    0.0923 N.pl3   1  LIG1       -0.3561
     86 H         -15.4661   11.1650    0.4879 H       1  LIG1        0.1424
     87 H         -15.1826    9.8668   -0.5329 H       1  LIG1        0.1424
     88 C         -13.6016   10.5741   -2.9368 C.ar    1  LIG1        0.0839
     89 C         -14.2934    9.3978   -3.2154 C.ar    1  LIG1        0.0927
     90 C         -14.5027    9.3694   -4.6289 C.ar    1  LIG1        0.1500
     91 C         -13.9417   10.4928   -5.1707 C.ar    1  LIG1        0.0454
     92 N         -13.3800   11.2066   -4.1279 N.ar    1  LIG1       -0.3554
     93 H         -13.0568   12.1576   -4.1911 H       1  LIG1        0.1655
     94 H         -13.8812   10.8341   -6.1920 H       1  LIG1        0.0845
     95 C         -14.6656    8.3783   -2.3038 C.1     1  LIG1       -0.0638
     96 C         -14.9911    7.5170   -1.5253 C.1     1  LIG1       -0.1137
     97 H         -15.2520    6.7407   -0.8441 H       1  LIG1        0.1232
     98 O         -15.1430    8.3424   -5.2424 O.3     1  LIG1       -0.5040
     99 H         -15.1616    8.5028   -6.1923 H       1  LIG1        0.2923
@<TRIPOS>BOND
     1    99    98    1
     2    94    91    1
     3    98    90    1
     4    91    90   ar
     5    91    92   ar
     6    90    89   ar
     7    93    92    1
     8    92    88   ar
     9    89    88   ar
    10    89    95    1
    11    88    78    1
    12    49    48    1
    13    80    79    1
    14    52    51    1
    15    95    96    3
    16    48    47    3
    17    24    23    1
    18    51    50    3
    19    79    78   ar
    20    79    75   ar
    21    78    77   ar
    22    25    23    1
    23    72    65    1
    24    47    42    1
    25    96    97    1
    26    50    43    1
    27    11    12    3
    28    23    16    1
    29    40    37    1
    30    70    65   ar
    31    70    69   ar
    32    65    66   ar
    33    42    43   ar
    34    42    41   ar
    35    43    44   ar
    36    58    57    1
    37    87    85    1
    38    38    37    1
    39    75    69    1
    40    75    76   ar
    41    77    85    1
    42    77    76   ar
    43    41    30    1
    44    41    45   ar
    45    37    36    1
    46    37    39    1
    47    44    53    1
    48    44    45   ar
    49    19    15    1
    50    69    68   ar
    51    36    29    1
    52    57    53   ar
    53    57    56   ar
    54    12     3    1
    55    30    29   ar
    56    30    31   ar
    57    16    15   ar
    58    16    17   ar
    59    29    28   ar
    60    53    54   ar
    61    66    56    1
    62    66    67   ar
    63    45    46    1
    64    85    86    1
    65    56    55   ar
    66    31    26   ar
    67    28    32    1
    68    28    27   ar
    69    15    14   ar
    70    76    81    1
    71    26    27   ar
    72    26    33    1
    73    27    17    1
    74    54    55   ar
    75    54    59    1
    76    64    62    1
    77    68    67   ar
    78    68    74    1
    79    55    62    1
    80    33    34    3
    81    67    71    1
    82    17    18   ar
    83    34    35    1
    84    59    60    3
    85     8     7    1
    86    62    63    1
    87     3     4   ar
    88     3     2   ar
    89     9     7    1
    90    74    73    3
    91    60    61    1
    92    14     4    1
    93    14    13   ar
    94    81    83    1
    95    81    82    1
    96    81    84    1
    97     7     2    1
    98     7    10    1
    99    18    13   ar
   100     4     5   ar
   101     2     1   ar
   102    13    20    1
   103     5     1   ar
   104     1     6    1
   105    20    21    3
   106    21    22    1
