@<TRIPOS>MOLECULE
mol_data/opt/cam/geoms/mol2/12id13ei6de4df.out
 50 53 0 0 0
SMALL
GASTEIGER

@<TRIPOS>ATOM
      1 C           0.3668    1.6800    0.4370 C.ar    1  LIG1        0.0968
      2 C           1.6693    1.5908    0.0649 C.ar    1  LIG1        0.0054
      3 C           2.1024    2.9581   -0.1413 C.ar    1  LIG1        0.1017
      4 C           1.0183    3.7727    0.1428 C.ar    1  LIG1        0.1696
      5 O          -0.0414    2.9852    0.4889 O.2     1  LIG1       -0.4598
      6 H          -0.3796    0.9455    0.6952 H       1  LIG1        0.1032
      7 C           2.5021    0.3612   -0.1163 C.3     1  LIG1       -0.0355
      8 H           3.3582    0.3600    0.5665 H       1  LIG1        0.0279
      9 H           2.9020    0.3020   -1.1339 H       1  LIG1        0.0279
     10 H           1.9143   -0.5402    0.0732 H       1  LIG1        0.0279
     11 N           4.4419    3.4988   -1.0848 N.1     1  LIG1       -0.1907
     12 C           3.3818    3.3060   -0.6433 C.1     1  LIG1        0.1033
     13 C           0.7389    5.1841    0.1294 C.ar    1  LIG1        0.0996
     14 C           1.5497    6.3285    0.2260 C.ar    1  LIG1        0.0565
     15 C           0.6918    7.4670    0.1773 C.ar    1  LIG1       -0.0090
     16 C          -0.6220    6.9915    0.0616 C.ar    1  LIG1        0.0539
     17 N          -0.5567    5.6118    0.0448 N.ar    1  LIG1       -0.3505
     18 H          -1.3441    4.9793    0.0184 H       1  LIG1        0.1660
     19 C           2.9506    6.3735    0.4248 C.1     1  LIG1       -0.0672
     20 C           4.1431    6.4502    0.6166 C.1     1  LIG1       -0.1138
     21 H           5.1991    6.4720    0.7560 H       1  LIG1        0.1232
     22 C           1.1811    8.8781    0.3099 C.3     1  LIG1       -0.0365
     23 H           0.5003    9.4963    0.9019 H       1  LIG1        0.0279
     24 H           1.3134    9.3652   -0.6646 H       1  LIG1        0.0279
     25 H           2.1581    8.8812    0.7992 H       1  LIG1        0.0279
     26 C          -3.1546    7.2347    0.3400 C.ar    1  LIG1        0.1499
     27 C          -1.8746    7.7331   -0.0262 C.ar    1  LIG1        0.0356
     28 C          -1.8838    9.0453   -0.5309 C.ar    1  LIG1       -0.0324
     29 C          -3.0520    9.8100   -0.5849 C.ar    1  LIG1        0.0514
     30 C          -4.2547    9.2263   -0.0968 C.ar    1  LIG1        0.0892
     31 N          -4.2836    7.9569    0.3044 N.ar    1  LIG1       -0.2344
     32 H          -0.9742    9.4747   -0.9269 H       1  LIG1        0.0638
     33 N          -3.4932    4.7651    1.0941 N.1     1  LIG1       -0.1893
     34 C          -3.3491    5.8755    0.7761 C.1     1  LIG1        0.1198
     35 C          -3.0133   11.0982   -1.1941 C.1     1  LIG1       -0.0675
     36 C          -2.9440   12.1734   -1.7432 C.1     1  LIG1       -0.1138
     37 H          -2.8957   13.1330   -2.2050 H       1  LIG1        0.1232
     38 C          -5.7364   11.1790    0.6055 C.ar    1  LIG1        0.0612
     39 C          -7.0056   11.7876    0.6096 C.ar    1  LIG1       -0.0403
     40 C          -5.5599    9.9450   -0.0610 C.ar    1  LIG1        0.0224
     41 C          -8.0855   11.1953   -0.0242 C.ar    1  LIG1       -0.0189
     42 H          -7.1333   12.7299    1.1312 H       1  LIG1        0.0632
     43 C          -6.6616    9.3432   -0.6727 C.ar    1  LIG1       -0.0097
     44 C          -7.9161    9.9593   -0.6620 C.ar    1  LIG1        0.1176
     45 H          -6.5284    8.3794   -1.1556 H       1  LIG1        0.0661
     46 H          -9.0646   11.6608   -0.0249 H       1  LIG1        0.0654
     47 N          -3.8507   12.3143    1.9805 N.1     1  LIG1       -0.1908
     48 C          -4.6801   11.7975    1.3482 C.1     1  LIG1        0.0998
     49 O          -9.0070    9.4095   -1.2553 O.3     1  LIG1       -0.5067
     50 H          -8.7733    8.5521   -1.6361 H       1  LIG1        0.2921
@<TRIPOS>BOND
     1    37    36    1
     2    36    35    3
     3    50    49    1
     4    49    44    1
     5    35    29    1
     6    45    43    1
     7     9     7    1
     8    11    12    3
     9    32    28    1
    10    43    44   ar
    11    43    40   ar
    12    24    22    1
    13    44    41   ar
    14    12     3    1
    15    29    28   ar
    16    29    30   ar
    17    28    27   ar
    18     3     2   ar
    19     3     4   ar
    20     7     2    1
    21     7    10    1
    22     7     8    1
    23    30    40    1
    24    30    31   ar
    25    40    38   ar
    26    27    16    1
    27    27    26   ar
    28    46    41    1
    29    41    39   ar
    30    18    17    1
    31    17    16   ar
    32    17    13   ar
    33    16    15   ar
    34     2     1   ar
    35    13     4    1
    36    13    14   ar
    37     4     5   ar
    38    15    14   ar
    39    15    22    1
    40    14    19    1
    41    31    26   ar
    42    22    25    1
    43    22    23    1
    44    26    34    1
    45    19    20    3
    46     1     5   ar
    47     1     6    1
    48    38    39   ar
    49    38    48    1
    50    39    42    1
    51    20    21    1
    52    34    33    3
    53    48    47    3
