@<TRIPOS>MOLECULE
mol_data/opt/cam/geoms/mol2/12id12ai4da4ae.out
 46 49 0 0 0
SMALL
GASTEIGER

@<TRIPOS>ATOM
      1 C           0.4616    1.6540   -0.3831 C.ar    1  LIG1        0.0969
      2 C           1.8032    1.7140   -0.2257 C.ar    1  LIG1        0.0054
      3 C           2.0913    3.1140   -0.0434 C.ar    1  LIG1        0.1033
      4 C           0.8913    3.7802   -0.1075 C.ar    1  LIG1        0.1872
      5 O          -0.1013    2.8952   -0.3129 O.2     1  LIG1       -0.4582
      6 H          -0.2225    0.8375   -0.5491 H       1  LIG1        0.1032
      7 C           2.7922    0.5963   -0.2353 C.3     1  LIG1       -0.0355
      8 H           3.3379    0.5452    0.7109 H       1  LIG1        0.0279
      9 H           3.5312    0.7320   -1.0298 H       1  LIG1        0.0279
     10 H           2.2957   -0.3627   -0.3934 H       1  LIG1        0.0279
     11 N           4.3996    4.1904    0.3420 N.1     1  LIG1       -0.1907
     12 C           3.3640    3.7023    0.1669 C.1     1  LIG1        0.1033
     13 C           0.5508    5.1731    0.0030 C.ar    1  LIG1        0.1721
     14 C           1.3015    6.2929    0.2040 C.ar    1  LIG1       -0.0092
     15 C           0.3998    7.3976    0.2163 C.ar    1  LIG1       -0.0040
     16 C          -0.8441    6.8616    0.0058 C.ar    1  LIG1        0.1399
     17 O          -0.7583    5.5028   -0.1118 O.2     1  LIG1       -0.4514
     18 H           2.3724    6.3302    0.3409 H       1  LIG1        0.0659
     19 C           0.7786    8.8195    0.4820 C.3     1  LIG1       -0.0361
     20 H          -0.0618    9.3909    0.8812 H       1  LIG1        0.0279
     21 H           1.1099    9.3238   -0.4293 H       1  LIG1        0.0279
     22 H           1.5920    8.8605    1.2101 H       1  LIG1        0.0279
     23 C          -2.5483    8.5831   -0.6983 C.ar    1  LIG1        0.0630
     24 C          -3.8587    9.0663   -0.6665 C.ar    1  LIG1       -0.0359
     25 C          -2.2034    7.3971   -0.0256 C.ar    1  LIG1        0.0349
     26 C          -4.8644    8.3801    0.0072 C.ar    1  LIG1       -0.0166
     27 H          -4.0926    9.9714   -1.2152 H       1  LIG1        0.0637
     28 C          -3.2273    6.7016    0.6255 C.ar    1  LIG1       -0.0493
     29 C          -4.5248    7.1801    0.6426 C.ar    1  LIG1       -0.0533
     30 H          -2.9831    5.7784    1.1378 H       1  LIG1        0.0625
     31 N          -0.8599    9.8795   -2.1765 N.1     1  LIG1       -0.1908
     32 C          -1.5961    9.2920   -1.5048 C.1     1  LIG1        0.0999
     33 H          -5.2864    6.6298    1.1845 H       1  LIG1        0.0624
     34 C          -6.4998   10.2704    0.1655 C.ar    1  LIG1       -0.0540
     35 C          -7.8009   10.7547    0.1909 C.ar    1  LIG1       -0.0600
     36 C          -6.2525    8.9008    0.0362 C.ar    1  LIG1       -0.0167
     37 C          -8.8761    9.8848    0.0899 C.ar    1  LIG1       -0.0463
     38 H          -7.9771   11.8196    0.2984 H       1  LIG1        0.0618
     39 C          -7.3374    8.0308   -0.0658 C.ar    1  LIG1       -0.0386
     40 C          -8.6496    8.5104   -0.0394 C.ar    1  LIG1        0.0253
     41 H          -7.1716    6.9668   -0.1922 H       1  LIG1        0.0636
     42 H          -9.8940   10.2569    0.1098 H       1  LIG1        0.0630
     43 H          -5.6670   10.9579    0.2705 H       1  LIG1        0.0624
     44 C          -9.7504    7.6006   -0.1523 C.1     1  LIG1       -0.0696
     45 C         -10.6759    6.8368   -0.2463 C.1     1  LIG1       -0.1139
     46 H         -11.4955    6.1609   -0.3308 H       1  LIG1        0.1232
@<TRIPOS>BOND
     1    31    32    3
     2    32    23    1
     3    27    24    1
     4     9     7    1
     5    23    24   ar
     6    23    25   ar
     7    24    26   ar
     8     6     1    1
     9    21    19    1
    10    10     7    1
    11     1     5   ar
    12     1     2   ar
    13    46    45    1
    14     5     4   ar
    15    45    44    3
    16     7     2    1
    17     7     8    1
    18     2     3   ar
    19    41    39    1
    20    44    40    1
    21    17    13   ar
    22    17    16   ar
    23     4     3   ar
    24     4    13    1
    25    39    40   ar
    26    39    36   ar
    27     3    12    1
    28    40    37   ar
    29    25    16    1
    30    25    28   ar
    31    13    14   ar
    32    16    15   ar
    33    26    36    1
    34    26    29   ar
    35    36    34   ar
    36    37    42    1
    37    37    35   ar
    38    34    35   ar
    39    34    43    1
    40    12    11    3
    41    35    38    1
    42    14    15   ar
    43    14    18    1
    44    15    19    1
    45    19    20    1
    46    19    22    1
    47    28    29   ar
    48    28    30    1
    49    29    33    1
