@<TRIPOS>MOLECULE
mol_data/opt/cam/geoms/mol2/12ie12ie-12ie.out
 38 40 0 0 0
SMALL
GASTEIGER

@<TRIPOS>ATOM
      1 C           0.1408    1.8143   -0.3009 C.ar    1  LIG1        0.0968
      2 C           1.4689    1.7518   -0.0624 C.ar    1  LIG1        0.0034
      3 C           1.8978    3.1212    0.1037 C.ar    1  LIG1        0.0763
      4 C           0.7758    3.8973   -0.0569 C.ar    1  LIG1        0.1855
      5 O          -0.2959    3.1055   -0.3044 O.2     1  LIG1       -0.4583
      6 H          -0.6109    1.0633   -0.4841 H       1  LIG1        0.1032
      7 C           2.3405    0.5440    0.0245 C.3     1  LIG1       -0.0355
      8 H           2.8279    0.4825    1.0016 H       1  LIG1        0.0279
      9 H           3.1328    0.5772   -0.7286 H       1  LIG1        0.0279
     10 H           1.7632   -0.3702   -0.1275 H       1  LIG1        0.0279
     11 C           3.2240    3.5235    0.4063 C.1     1  LIG1       -0.0655
     12 C           4.3672    3.7944    0.6728 C.1     1  LIG1       -0.1138
     13 H           5.3735    4.0475    0.9150 H       1  LIG1        0.1232
     14 C           0.5265    5.3131   -0.0142 C.ar    1  LIG1        0.1760
     15 C          -0.6198    6.0520    0.0374 C.ar    1  LIG1        0.0145
     16 C          -0.1932    7.4250    0.0594 C.ar    1  LIG1        0.0771
     17 C           1.1810    7.4087    0.0221 C.ar    1  LIG1        0.1865
     18 O           1.6214    6.1314   -0.0227 O.2     1  LIG1       -0.4470
     19 C          -2.0393    5.5911    0.0622 C.3     1  LIG1       -0.0348
     20 H          -2.1302    4.6026    0.5115 H       1  LIG1        0.0279
     21 H          -2.4507    5.5324   -0.9507 H       1  LIG1        0.0279
     22 H          -2.6529    6.2995    0.6226 H       1  LIG1        0.0279
     23 C          -1.0624    8.5458    0.1139 C.1     1  LIG1       -0.0655
     24 C          -1.8447    9.4596    0.1612 C.1     1  LIG1       -0.1138
     25 H          -2.5218   10.2812    0.2020 H       1  LIG1        0.1232
     26 C           2.1705    8.4537    0.0151 C.ar    1  LIG1        0.1750
     27 C           3.5290    8.4765   -0.1319 C.ar    1  LIG1        0.0138
     28 C           3.8930    9.8688   -0.0473 C.ar    1  LIG1        0.0659
     29 C           2.7346   10.5600    0.1397 C.ar    1  LIG1        0.1083
     30 O           1.6857    9.7210    0.1801 O.2     1  LIG1       -0.4583
     31 H           2.5200   11.6099    0.2578 H       1  LIG1        0.1042
     32 C           4.4852    7.3541   -0.3598 C.3     1  LIG1       -0.0348
     33 H           5.3378    7.4415    0.3198 H       1  LIG1        0.0279
     34 H           4.8853    7.3920   -1.3782 H       1  LIG1        0.0279
     35 H           4.0159    6.3833   -0.2115 H       1  LIG1        0.0279
     36 C           5.2065   10.4047   -0.1400 C.1     1  LIG1       -0.0662
     37 C           6.3255   10.8408   -0.2197 C.1     1  LIG1       -0.1138
     38 H           7.3135   11.2335   -0.2904 H       1  LIG1        0.1232
@<TRIPOS>BOND
     1    34    32    1
     2    21    19    1
     3     9     7    1
     4     6     1    1
     5    32    35    1
     6    32    27    1
     7    32    33    1
     8     5     1   ar
     9     5     4   ar
    10     1     2   ar
    11    38    37    1
    12    37    36    3
    13    36    28    1
    14    27    28   ar
    15    27    26   ar
    16    10     7    1
    17     2     7    1
    18     2     3   ar
    19     4    14    1
    20     4     3   ar
    21    28    29   ar
    22    18    14   ar
    23    18    17   ar
    24    14    15   ar
    25    26    17    1
    26    26    30   ar
    27    17    16   ar
    28     7     8    1
    29    15    16   ar
    30    15    19    1
    31    16    23    1
    32    19    20    1
    33    19    22    1
    34     3    11    1
    35    23    24    3
    36    29    30   ar
    37    29    31    1
    38    24    25    1
    39    11    12    3
    40    12    13    1
