@<TRIPOS>MOLECULE
mol_data/opt/cam/geoms/mol2/12ie12ie-12ie-12ie-.out
 50 53 0 0 0
SMALL
GASTEIGER

@<TRIPOS>ATOM
      1 C           0.0035    1.7789    0.4666 C.ar    1  LIG1        0.0968
      2 C           1.3409    1.7383    0.6549 C.ar    1  LIG1        0.0034
      3 C           1.7968    3.0991    0.4941 C.ar    1  LIG1        0.0763
      4 C           0.6784    3.8471    0.2204 C.ar    1  LIG1        0.1855
      5 O          -0.4164    3.0488    0.2041 O.2     1  LIG1       -0.4583
      6 H          -0.7663    1.0240    0.4860 H       1  LIG1        0.1032
      7 C           2.1995    0.5580    0.9640 C.3     1  LIG1       -0.0355
      8 H           2.7265    0.6953    1.9124 H       1  LIG1        0.0279
      9 H           2.9603    0.4146    0.1916 H       1  LIG1        0.0279
     10 H           1.6052   -0.3554    1.0322 H       1  LIG1        0.0279
     11 C           3.1439    3.5313    0.5985 C.1     1  LIG1       -0.0655
     12 C           4.3000    3.8530    0.6945 C.1     1  LIG1       -0.1138
     13 H           5.3164    4.1630    0.7710 H       1  LIG1        0.1232
     14 C           0.4705    5.2486   -0.0340 C.ar    1  LIG1        0.1760
     15 C          -0.6231    5.9893   -0.3836 C.ar    1  LIG1        0.0145
     16 C          -0.1442    7.3409   -0.4962 C.ar    1  LIG1        0.0771
     17 C           1.1951    7.3128   -0.1926 C.ar    1  LIG1        0.1866
     18 O           1.5702    6.0437    0.0852 O.2     1  LIG1       -0.4470
     19 C          -2.0295    5.5520   -0.6273 C.3     1  LIG1       -0.0348
     20 H          -2.0846    4.4845   -0.8341 H       1  LIG1        0.0279
     21 H          -2.4542    6.1023   -1.4704 H       1  LIG1        0.0279
     22 H          -2.6603    5.7582    0.2436 H       1  LIG1        0.0279
     23 C          -0.9159    8.4525   -0.9267 C.1     1  LIG1       -0.0655
     24 C          -1.5974    9.3690   -1.3086 C.1     1  LIG1       -0.1138
     25 H          -2.1927   10.1826   -1.6540 H       1  LIG1        0.1232
     26 C           2.2157    8.3287   -0.1168 C.ar    1  LIG1        0.1761
     27 C           2.2102    9.6260    0.3042 C.ar    1  LIG1        0.0145
     28 C           3.5565   10.0954    0.1101 C.ar    1  LIG1        0.0771
     29 C           4.2758    9.0334   -0.3808 C.ar    1  LIG1        0.1865
     30 O           3.4673    7.9609   -0.5242 O.2     1  LIG1       -0.4470
     31 C           1.0868   10.4230    0.8759 C.3     1  LIG1       -0.0348
     32 H           0.3305    9.7751    1.3210 H       1  LIG1        0.0279
     33 H           0.5900   11.0226    0.1080 H       1  LIG1        0.0279
     34 H           1.4629   11.1062    1.6408 H       1  LIG1        0.0279
     35 C           4.0101   11.4198    0.3474 C.1     1  LIG1       -0.0655
     36 C           4.3574   12.5549    0.5510 C.1     1  LIG1       -0.1138
     37 H           4.6684   13.5601    0.7192 H       1  LIG1        0.1232
     38 C           5.6624    8.8642   -0.7457 C.ar    1  LIG1        0.1750
     39 C           6.8306    9.3264   -0.2155 C.ar    1  LIG1        0.0138
     40 C           7.8691    8.7872   -1.0584 C.ar    1  LIG1        0.0659
     41 C           7.2408    8.0399   -2.0087 C.ar    1  LIG1        0.1083
     42 O           5.9094    8.0741   -1.8363 O.2     1  LIG1       -0.4583
     43 H           7.6084    7.4504   -2.8334 H       1  LIG1        0.1042
     44 C           7.0439   10.1663    0.9985 C.3     1  LIG1       -0.0348
     45 H           6.2070   10.0778    1.6926 H       1  LIG1        0.0279
     46 H           7.1415   11.2245    0.7401 H       1  LIG1        0.0279
     47 H           7.9608    9.8618    1.5085 H       1  LIG1        0.0279
     48 C           9.2692    8.9786   -0.9045 C.1     1  LIG1       -0.0662
     49 C          10.4515    9.1497   -0.7563 C.1     1  LIG1       -0.1138
     50 H          11.4994    9.2983   -0.6327 H       1  LIG1        0.1232
@<TRIPOS>BOND
     1    43    41    1
     2    41    42   ar
     3    41    40   ar
     4    42    38   ar
     5    25    24    1
     6    21    19    1
     7    24    23    3
     8    40    48    1
     9    40    39   ar
    10    23    16    1
    11    48    49    3
    12    20    19    1
    13    49    50    1
    14    38    29    1
    15    38    39   ar
    16    19    15    1
    17    19    22    1
    18    30    29   ar
    19    30    26   ar
    20    16    15   ar
    21    16    17   ar
    22    15    14   ar
    23    29    28   ar
    24    39    44    1
    25    17    26    1
    26    17    18   ar
    27    26    27   ar
    28    14    18   ar
    29    14     4    1
    30    33    31    1
    31    28    27   ar
    32    28    35    1
    33     9     7    1
    34     5     4   ar
    35     5     1   ar
    36     4     3   ar
    37    27    31    1
    38    35    36    3
    39     1     6    1
    40     1     2   ar
    41     3    11    1
    42     3     2   ar
    43    36    37    1
    44    11    12    3
    45     2     7    1
    46    12    13    1
    47    46    44    1
    48    31    32    1
    49    31    34    1
    50     7    10    1
    51     7     8    1
    52    44    47    1
    53    44    45    1
