@<TRIPOS>MOLECULE
mol_data/opt/cam/geoms/mol2/12ie12ie12ie-12ie.out
 50 53 0 0 0
SMALL
GASTEIGER

@<TRIPOS>ATOM
      1 C           0.4156    1.7113    0.4797 C.ar    1  LIG1        0.0968
      2 C           1.6351    1.7466   -0.1031 C.ar    1  LIG1        0.0034
      3 C           1.9216    3.1474   -0.3035 C.ar    1  LIG1        0.0763
      4 C           0.8461    3.8377    0.1976 C.ar    1  LIG1        0.1855
      5 O          -0.0762    2.9646    0.6720 O.2     1  LIG1       -0.4583
      6 H          -0.2185    0.9015    0.8045 H       1  LIG1        0.1032
      7 C           2.5131    0.6040   -0.4906 C.3     1  LIG1       -0.0355
      8 H           3.4717    0.6484    0.0341 H       1  LIG1        0.0279
      9 H           2.7311    0.6234   -1.5621 H       1  LIG1        0.0279
     10 H           2.0410   -0.3521   -0.2559 H       1  LIG1        0.0279
     11 C           3.0647    3.6697   -0.9635 C.1     1  LIG1       -0.0655
     12 C           4.0418    4.0744   -1.5399 C.1     1  LIG1       -0.1138
     13 H           4.8996    4.4387   -2.0565 H       1  LIG1        0.1232
     14 C           0.5311    5.2404    0.3095 C.ar    1  LIG1        0.1760
     15 C           1.2705    6.3562    0.5617 C.ar    1  LIG1        0.0145
     16 C           0.3365    7.4524    0.5524 C.ar    1  LIG1        0.0771
     17 C          -0.9022    6.9078    0.3069 C.ar    1  LIG1        0.1866
     18 O          -0.7894    5.5703    0.1545 O.2     1  LIG1       -0.4470
     19 C           2.7292    6.4668    0.8510 C.3     1  LIG1       -0.0348
     20 H           2.9060    7.2582    1.5829 H       1  LIG1        0.0279
     21 H           3.2974    6.7131   -0.0503 H       1  LIG1        0.0279
     22 H           3.1265    5.5281    1.2393 H       1  LIG1        0.0279
     23 C           0.6735    8.8045    0.8188 C.1     1  LIG1       -0.0655
     24 C           1.0245    9.9302    1.0650 C.1     1  LIG1       -0.1138
     25 H           1.3201   10.9297    1.2862 H       1  LIG1        0.1232
     26 C          -2.2273    7.4527    0.1961 C.ar    1  LIG1        0.1761
     27 C          -3.4689    6.8847    0.1794 C.ar    1  LIG1        0.0145
     28 C          -4.3918    7.9793    0.0510 C.ar    1  LIG1        0.0771
     29 C          -3.6353    9.1263    0.0012 C.ar    1  LIG1        0.1865
     30 O          -2.3236    8.8130    0.0890 O.2     1  LIG1       -0.4470
     31 C          -3.8572    5.4465    0.2708 C.3     1  LIG1       -0.0348
     32 H          -3.0290    4.8261    0.6090 H       1  LIG1        0.0279
     33 H          -4.1823    5.0724   -0.7053 H       1  LIG1        0.0279
     34 H          -4.7006    5.3279    0.9557 H       1  LIG1        0.0279
     35 C          -5.8037    7.8473   -0.0072 C.1     1  LIG1       -0.0655
     36 C          -6.9947    7.6774   -0.0517 C.1     1  LIG1       -0.1138
     37 H          -8.0510    7.5452   -0.0931 H       1  LIG1        0.1232
     38 C          -3.9790   10.5175   -0.1299 C.ar    1  LIG1        0.1750
     39 C          -3.2546   11.6649   -0.2930 C.ar    1  LIG1        0.0138
     40 C          -4.2336   12.7205   -0.3646 C.ar    1  LIG1        0.0659
     41 C          -5.4525   12.1255   -0.2417 C.ar    1  LIG1        0.1083
     42 O          -5.3168   10.7963   -0.0990 O.2     1  LIG1       -0.4583
     43 H          -6.4585   12.5130   -0.2364 H       1  LIG1        0.1042
     44 C          -1.7794   11.8562   -0.4080 C.3     1  LIG1       -0.0348
     45 H          -1.4550   12.6780    0.2367 H       1  LIG1        0.0279
     46 H          -1.5066   12.1291   -1.4326 H       1  LIG1        0.0279
     47 H          -1.2301   10.9570   -0.1354 H       1  LIG1        0.0279
     48 C          -3.9683   14.1074   -0.5291 C.1     1  LIG1       -0.0662
     49 C          -3.7250   15.2780   -0.6675 C.1     1  LIG1       -0.1138
     50 H          -3.5165   16.3157   -0.7911 H       1  LIG1        0.1232
@<TRIPOS>BOND
     1    13    12    1
     2     9     7    1
     3    12    11    3
     4    46    44    1
     5    11     3    1
     6    50    49    1
     7    33    31    1
     8    49    48    3
     9    48    40    1
    10     7    10    1
    11     7     2    1
    12     7     8    1
    13    44    39    1
    14    44    47    1
    15    44    45    1
    16    40    39   ar
    17    40    41   ar
    18     3     2   ar
    19     3     4   ar
    20    39    38   ar
    21    41    43    1
    22    41    42   ar
    23    38    42   ar
    24    38    29    1
    25     2     1   ar
    26    37    36    1
    27    36    35    3
    28    21    19    1
    29    35    28    1
    30    29    28   ar
    31    29    30   ar
    32    28    27   ar
    33    30    26   ar
    34    18    17   ar
    35    18    14   ar
    36    27    26   ar
    37    27    31    1
    38    26    17    1
    39     4    14    1
    40     4     5   ar
    41    31    32    1
    42    31    34    1
    43    17    16   ar
    44    14    15   ar
    45     1     5   ar
    46     1     6    1
    47    16    15   ar
    48    16    23    1
    49    15    19    1
    50    23    24    3
    51    19    22    1
    52    19    20    1
    53    24    25    1
