@<TRIPOS>MOLECULE
mol_data/opt/cam/geoms/mol2/12ie12ie12ie12ie.out
 50 53 0 0 0
SMALL
GASTEIGER

@<TRIPOS>ATOM
      1 C           0.8557    2.1308    1.8777 C.ar    1  LIG1        0.0968
      2 C           1.8818    1.9175    1.0227 C.ar    1  LIG1        0.0034
      3 C           1.9785    3.1246    0.2372 C.ar    1  LIG1        0.0763
      4 C           1.0034    3.9697    0.7048 C.ar    1  LIG1        0.1855
      5 O           0.3153    3.3651    1.7028 O.2     1  LIG1       -0.4583
      6 H           0.4003    1.5211    2.6421 H       1  LIG1        0.1032
      7 C           2.7349    0.7017    0.8792 C.3     1  LIG1       -0.0355
      8 H           3.7871    0.9342    1.0663 H       1  LIG1        0.0279
      9 H           2.6701    0.2947   -0.1338 H       1  LIG1        0.0279
     10 H           2.4294   -0.0780    1.5798 H       1  LIG1        0.0279
     11 C           2.8683    3.3344   -0.8491 C.1     1  LIG1       -0.0655
     12 C           3.6300    3.4718   -1.7719 C.1     1  LIG1       -0.1138
     13 H           4.2944    3.5958   -2.5957 H       1  LIG1        0.1232
     14 C           0.6042    5.3113    0.3497 C.ar    1  LIG1        0.1760
     15 C           1.3011    6.4219   -0.0233 C.ar    1  LIG1        0.0145
     16 C           0.3067    7.4355   -0.2579 C.ar    1  LIG1        0.0771
     17 C          -0.9099    6.8649    0.0256 C.ar    1  LIG1        0.1866
     18 O          -0.7358    5.5753    0.3898 O.2     1  LIG1       -0.4470
     19 C           2.7755    6.6051   -0.1521 C.3     1  LIG1       -0.0348
     20 H           3.0582    7.6120    0.1636 H       1  LIG1        0.0279
     21 H           3.1056    6.4749   -1.1865 H       1  LIG1        0.0279
     22 H           3.3170    5.8786    0.4553 H       1  LIG1        0.0279
     23 C           0.5649    8.7471   -0.7365 C.1     1  LIG1       -0.0655
     24 C           0.8214    9.8478   -1.1526 C.1     1  LIG1       -0.1138
     25 H           1.0402   10.8195   -1.5312 H       1  LIG1        0.1232
     26 C          -2.2634    7.3658    0.0094 C.ar    1  LIG1        0.1761
     27 C          -2.8176    8.5657    0.3438 C.ar    1  LIG1        0.0145
     28 C          -4.2252    8.4225    0.0799 C.ar    1  LIG1        0.0771
     29 C          -4.4132    7.1354   -0.3606 C.ar    1  LIG1        0.1865
     30 O          -3.2269    6.4912   -0.4092 O.2     1  LIG1       -0.4470
     31 C          -2.1579    9.7848    0.8939 C.3     1  LIG1       -0.0348
     32 H          -2.8168   10.2752    1.6141 H       1  LIG1        0.0279
     33 H          -1.9307   10.5068    0.1046 H       1  LIG1        0.0279
     34 H          -1.2174    9.5358    1.3869 H       1  LIG1        0.0279
     35 C          -5.1968    9.4491    0.2144 C.1     1  LIG1       -0.0655
     36 C          -5.9909   10.3471    0.3309 C.1     1  LIG1       -0.1138
     37 H          -6.6969   11.1401    0.4220 H       1  LIG1        0.1232
     38 C          -5.5832    6.3873   -0.7553 C.ar    1  LIG1        0.1750
     39 C          -6.8671    6.3507   -0.2974 C.ar    1  LIG1        0.0138
     40 C          -7.5395    5.3855   -1.1315 C.ar    1  LIG1        0.0659
     41 C          -6.6043    4.9167   -2.0042 C.ar    1  LIG1        0.1083
     42 O          -5.4179    5.5093   -1.7928 O.2     1  LIG1       -0.4583
     43 H          -6.6469    4.1841   -2.7943 H       1  LIG1        0.1042
     44 C          -7.4792    7.0887    0.8451 C.3     1  LIG1       -0.0348
     45 H          -8.2195    6.4589    1.3438 H       1  LIG1        0.0279
     46 H          -7.9862    7.9973    0.5083 H       1  LIG1        0.0279
     47 H          -6.7236    7.3896    1.5721 H       1  LIG1        0.0279
     48 C          -8.9008    4.9873   -1.0368 C.1     1  LIG1       -0.0662
     49 C         -10.0554    4.6611   -0.9397 C.1     1  LIG1       -0.1138
     50 H         -11.0768    4.3682   -0.8606 H       1  LIG1        0.1232
@<TRIPOS>BOND
     1    43    41    1
     2    13    12    1
     3    41    42   ar
     4    41    40   ar
     5    42    38   ar
     6    12    11    3
     7    25    24    1
     8    21    19    1
     9    24    23    3
    10    40    48    1
    11    40    39   ar
    12    48    49    3
    13    49    50    1
    14    11     3    1
    15    38    29    1
    16    38    39   ar
    17    23    16    1
    18    30    29   ar
    19    30    26   ar
    20    29    28   ar
    21    39    44    1
    22    16    15   ar
    23    16    17   ar
    24    19    15    1
    25    19    20    1
    26    19    22    1
    27     9     7    1
    28    15    14   ar
    29    26    17    1
    30    26    27   ar
    31    17    18   ar
    32    28    35    1
    33    28    27   ar
    34    33    31    1
    35    35    36    3
    36     3     4   ar
    37     3     2   ar
    38    36    37    1
    39    27    31    1
    40    14    18   ar
    41    14     4    1
    42    46    44    1
    43     4     5   ar
    44    44    45    1
    45    44    47    1
    46     7     2    1
    47     7     8    1
    48     7    10    1
    49    31    34    1
    50    31    32    1
    51     2     1   ar
    52     5     1   ar
    53     1     6    1
