@<TRIPOS>MOLECULE
mol_data/opt/cam/geoms/mol2/12ie12ie12ie12ie-.out
 50 53 0 0 0
SMALL
GASTEIGER

@<TRIPOS>ATOM
      1 C           0.9448    2.1665    1.9245 C.ar    1  LIG1        0.0968
      2 C           1.9298    1.9476    1.0240 C.ar    1  LIG1        0.0034
      3 C           1.9883    3.1488    0.2256 C.ar    1  LIG1        0.0763
      4 C           1.0356    3.9971    0.7322 C.ar    1  LIG1        0.1855
      5 O           0.3954    3.3992    1.7659 O.2     1  LIG1       -0.4583
      6 H           0.5267    1.5626    2.7144 H       1  LIG1        0.1032
      7 C           2.7768    0.7314    0.8503 C.3     1  LIG1       -0.0355
      8 H           3.8361    0.9658    0.9888 H       1  LIG1        0.0279
      9 H           2.6673    0.3180   -0.1563 H       1  LIG1        0.0279
     10 H           2.5035   -0.0439    1.5688 H       1  LIG1        0.0279
     11 C           2.8252    3.3505   -0.9034 C.1     1  LIG1       -0.0655
     12 C           3.5415    3.4809   -1.8628 C.1     1  LIG1       -0.1138
     13 H           4.1661    3.5988   -2.7181 H       1  LIG1        0.1232
     14 C           0.6194    5.3359    0.3878 C.ar    1  LIG1        0.1760
     15 C           1.2947    6.4445   -0.0272 C.ar    1  LIG1        0.0145
     16 C           0.2893    7.4565   -0.2196 C.ar    1  LIG1        0.0771
     17 C          -0.9115    6.8881    0.1298 C.ar    1  LIG1        0.1866
     18 O          -0.7182    5.6000    0.4933 O.2     1  LIG1       -0.4470
     19 C           2.7607    6.6278   -0.2313 C.3     1  LIG1       -0.0348
     20 H           3.0571    7.6382    0.0595 H       1  LIG1        0.0279
     21 H           3.0388    6.4873   -1.2796 H       1  LIG1        0.0279
     22 H           3.3329    5.9081    0.3556 H       1  LIG1        0.0279
     23 C           0.5246    8.7625   -0.7240 C.1     1  LIG1       -0.0655
     24 C           0.7628    9.8574   -1.1655 C.1     1  LIG1       -0.1138
     25 H           0.9645   10.8246   -1.5648 H       1  LIG1        0.1232
     26 C          -2.2658    7.3787    0.1793 C.ar    1  LIG1        0.1761
     27 C          -2.8259    8.5809    0.4931 C.ar    1  LIG1        0.0145
     28 C          -4.2467    8.3964    0.3527 C.ar    1  LIG1        0.0771
     29 C          -4.4339    7.0866   -0.0201 C.ar    1  LIG1        0.1865
     30 O          -3.2406    6.4667   -0.1303 O.2     1  LIG1       -0.4470
     31 C          -2.1611    9.8364    0.9465 C.3     1  LIG1       -0.0348
     32 H          -2.7990   10.3571    1.6640 H       1  LIG1        0.0279
     33 H          -1.9772   10.5155    0.1093 H       1  LIG1        0.0279
     34 H          -1.1976    9.6276    1.4131 H       1  LIG1        0.0279
     35 C          -5.2279    9.3913    0.6006 C.1     1  LIG1       -0.0655
     36 C          -6.0205   10.2689    0.8264 C.1     1  LIG1       -0.1138
     37 H          -6.7359   11.0342    1.0203 H       1  LIG1        0.1232
     38 C          -5.6035    6.2951   -0.2952 C.ar    1  LIG1        0.1750
     39 C          -5.7969    4.9720   -0.5769 C.ar    1  LIG1        0.0138
     40 C          -7.2213    4.8294   -0.7456 C.ar    1  LIG1        0.0659
     41 C          -7.7586    6.0659   -0.5509 C.ar    1  LIG1        0.1083
     42 O          -6.7950    6.9624   -0.2783 O.2     1  LIG1       -0.4583
     43 H          -8.7712    6.4350   -0.5738 H       1  LIG1        0.1042
     44 C          -4.7997    3.8679   -0.7027 C.3     1  LIG1       -0.0348
     45 H          -3.8356    4.1450   -0.2795 H       1  LIG1        0.0279
     46 H          -4.6443    3.6046   -1.7541 H       1  LIG1        0.0279
     47 H          -5.1662    2.9699   -0.1988 H       1  LIG1        0.0279
     48 C          -7.9203    3.6287   -1.0469 C.1     1  LIG1       -0.0662
     49 C          -8.4957    2.6024   -1.3008 C.1     1  LIG1       -0.1138
     50 H          -9.0107    1.6973   -1.5264 H       1  LIG1        0.1232
@<TRIPOS>BOND
     1    13    12    1
     2    12    11    3
     3    46    44    1
     4    25    24    1
     5    50    49    1
     6    49    48    3
     7    21    19    1
     8    24    23    3
     9    48    40    1
    10    11     3    1
    11    40    39   ar
    12    40    41   ar
    13    23    16    1
    14    44    39    1
    15    44    45    1
    16    44    47    1
    17    39    38   ar
    18    43    41    1
    19    41    42   ar
    20    38    42   ar
    21    38    29    1
    22    19    15    1
    23    19    20    1
    24    19    22    1
    25    16    15   ar
    26    16    17   ar
    27     9     7    1
    28    30    29   ar
    29    30    26   ar
    30    15    14   ar
    31    29    28   ar
    32    33    31    1
    33    17    26    1
    34    17    18   ar
    35    26    27   ar
    36     3     4   ar
    37     3     2   ar
    38    28    27   ar
    39    28    35    1
    40    14    18   ar
    41    14     4    1
    42    27    31    1
    43    35    36    3
    44     4     5   ar
    45    36    37    1
    46     7     8    1
    47     7     2    1
    48     7    10    1
    49    31    34    1
    50    31    32    1
    51     2     1   ar
    52     5     1   ar
    53     1     6    1
