@<TRIPOS>MOLECULE
mol_data/opt/cam/geoms/mol2/12ie12ie-.out
 26 27 0 0 0
SMALL
GASTEIGER

@<TRIPOS>ATOM
      1 C           0.2058    1.8192    0.0211 C.ar    1  LIG1        0.0968
      2 C           1.5564    1.8085    0.0188 C.ar    1  LIG1        0.0034
      3 C           1.9553    3.1969   -0.0014 C.ar    1  LIG1        0.0763
      4 C           0.7940    3.9291   -0.0102 C.ar    1  LIG1        0.1855
      5 O          -0.2733    3.0958    0.0025 O.2     1  LIG1       -0.4583
      6 H          -0.5377    1.0384    0.0333 H       1  LIG1        0.1032
      7 C           2.4754    0.6334    0.0340 C.3     1  LIG1       -0.0355
      8 H           3.1273    0.6575    0.9118 H       1  LIG1        0.0279
      9 H           3.1232    0.6315   -0.8472 H       1  LIG1        0.0279
     10 H           1.9163   -0.3043    0.0492 H       1  LIG1        0.0279
     11 C           3.2967    3.6598   -0.0068 C.1     1  LIG1       -0.0655
     12 C           4.4529    3.9960   -0.0099 C.1     1  LIG1       -0.1138
     13 H           5.4704    4.3117   -0.0131 H       1  LIG1        0.1232
     14 C           0.5224    5.3444   -0.0302 C.ar    1  LIG1        0.1750
     15 C          -0.6217    6.0898    0.0007 C.ar    1  LIG1        0.0138
     16 C          -0.1793    7.4615   -0.0471 C.ar    1  LIG1        0.0659
     17 C           1.1808    7.4257   -0.1008 C.ar    1  LIG1        0.1083
     18 O           1.6199    6.1550   -0.0916 O.2     1  LIG1       -0.4583
     19 H           1.9320    8.1976   -0.1458 H       1  LIG1        0.1042
     20 C          -2.0476    5.6522    0.0648 C.3     1  LIG1       -0.0348
     21 H          -2.1295    4.5822    0.2457 H       1  LIG1        0.0279
     22 H          -2.5653    5.8829   -0.8716 H       1  LIG1        0.0279
     23 H          -2.5739    6.1872    0.8602 H       1  LIG1        0.0279
     24 C          -1.0083    8.6162   -0.0345 C.1     1  LIG1       -0.0662
     25 C          -1.7262    9.5823   -0.0219 C.1     1  LIG1       -0.1138
     26 H          -2.3561   10.4416   -0.0116 H       1  LIG1        0.1232
@<TRIPOS>BOND
     1    22    20    1
     2     9     7    1
     3    19    17    1
     4    17    18   ar
     5    17    16   ar
     6    18    14   ar
     7    16    24    1
     8    16    15   ar
     9    24    25    3
    10    14     4    1
    11    14    15   ar
    12    25    26    1
    13    13    12    1
    14     4     3   ar
    15     4     5   ar
    16    12    11    3
    17    11     3    1
    18     3     2   ar
    19    15    20    1
    20     5     1   ar
    21     2     1   ar
    22     2     7    1
    23     1     6    1
    24     7    10    1
    25     7     8    1
    26    20    21    1
    27    20    23    1
