@<TRIPOS>MOLECULE
mol_data/opt/cam/geoms/mol2/12ie12ie-12ie-12ie.out
 50 53 0 0 0
SMALL
GASTEIGER

@<TRIPOS>ATOM
      1 C           0.0089    1.7676   -0.0096 C.ar    1  LIG1        0.0968
      2 C           1.2742    1.7127    0.4616 C.ar    1  LIG1        0.0034
      3 C           1.7268    3.0829    0.5188 C.ar    1  LIG1        0.0763
      4 C           0.6800    3.8497    0.0690 C.ar    1  LIG1        0.1855
      5 O          -0.3680    3.0544   -0.2549 O.2     1  LIG1       -0.4583
      6 H          -0.7311    1.0124   -0.2214 H       1  LIG1        0.1032
      7 C           2.0674    0.5110    0.8527 C.3     1  LIG1       -0.0355
      8 H           2.3738    0.5684    1.9009 H       1  LIG1        0.0279
      9 H           2.9798    0.4325    0.2549 H       1  LIG1        0.0279
     10 H           1.4893   -0.4050    0.7153 H       1  LIG1        0.0279
     11 C           3.0036    3.5048    0.9709 C.1     1  LIG1       -0.0655
     12 C           4.0994    3.8056    1.3703 C.1     1  LIG1       -0.1138
     13 H           5.0627    4.0885    1.7272 H       1  LIG1        0.1232
     14 C           0.4959    5.2632   -0.1151 C.ar    1  LIG1        0.1760
     15 C          -0.5752    6.0183   -0.5005 C.ar    1  LIG1        0.0145
     16 C          -0.0989    7.3751   -0.5066 C.ar    1  LIG1        0.0771
     17 C           1.2152    7.3351   -0.1048 C.ar    1  LIG1        0.1866
     18 O           1.5784    6.0525    0.1289 O.2     1  LIG1       -0.4470
     19 C          -1.9505    5.5742   -0.8780 C.3     1  LIG1       -0.0348
     20 H          -2.3134    4.7912   -0.2108 H       1  LIG1        0.0279
     21 H          -1.9717    5.1697   -1.8946 H       1  LIG1        0.0279
     22 H          -2.6397    6.4198   -0.8417 H       1  LIG1        0.0279
     23 C          -0.8474    8.5082   -0.9213 C.1     1  LIG1       -0.0655
     24 C          -1.5091    9.4441   -1.2910 C.1     1  LIG1       -0.1138
     25 H          -2.0846   10.2762   -1.6257 H       1  LIG1        0.1232
     26 C           2.2278    8.3380    0.1007 C.ar    1  LIG1        0.1761
     27 C           2.2117    9.6212    0.5617 C.ar    1  LIG1        0.0145
     28 C           3.5818   10.0612    0.5336 C.ar    1  LIG1        0.0771
     29 C           4.3219    8.9987    0.0717 C.ar    1  LIG1        0.1865
     30 O           3.5093    7.9555   -0.1960 O.2     1  LIG1       -0.4470
     31 C           1.0574   10.4256    1.0558 C.3     1  LIG1       -0.0348
     32 H           0.2534    9.7831    1.4171 H       1  LIG1        0.0279
     33 H           0.6408   11.0547    0.2641 H       1  LIG1        0.0279
     34 H           1.3807   11.0817    1.8670 H       1  LIG1        0.0279
     35 C           4.0400   11.3386    0.9487 C.1     1  LIG1       -0.0655
     36 C           4.3799   12.4340    1.3148 C.1     1  LIG1       -0.1138
     37 H           4.6979   13.3997    1.6333 H       1  LIG1        0.1232
     38 C           5.7252    8.7932   -0.1623 C.ar    1  LIG1        0.1750
     39 C           6.4534    7.7052   -0.5551 C.ar    1  LIG1        0.0138
     40 C           7.8189    8.1652   -0.5948 C.ar    1  LIG1        0.0659
     41 C           7.7959    9.4765   -0.2251 C.ar    1  LIG1        0.1083
     42 O           6.5383    9.8710    0.0393 O.2     1  LIG1       -0.4583
     43 H           8.5704   10.2175   -0.1100 H       1  LIG1        0.1042
     44 C           5.9906    6.3268   -0.8961 C.3     1  LIG1       -0.0348
     45 H           6.7829    5.6045   -0.6870 H       1  LIG1        0.0279
     46 H           5.7522    6.2462   -1.9618 H       1  LIG1        0.0279
     47 H           5.0947    6.0473   -0.3415 H       1  LIG1        0.0279
     48 C           8.9617    7.3941   -0.9420 C.1     1  LIG1       -0.0662
     49 C           9.9184    6.7255   -1.2363 C.1     1  LIG1       -0.1138
     50 H          10.7694    6.1402   -1.4983 H       1  LIG1        0.1232
@<TRIPOS>BOND
     1    46    44    1
     2    21    19    1
     3    25    24    1
     4    50    49    1
     5    24    23    3
     6    49    48    3
     7    48    40    1
     8    23    16    1
     9    44    45    1
    10    44    39    1
    11    44    47    1
    12    19    22    1
    13    19    15    1
    14    19    20    1
    15    40    39   ar
    16    40    41   ar
    17    39    38   ar
    18    16    15   ar
    19    16    17   ar
    20    15    14   ar
    21     5     1   ar
    22     5     4   ar
    23    41    43    1
    24    41    42   ar
    25     6     1    1
    26    30    29   ar
    27    30    26   ar
    28    38    42   ar
    29    38    29    1
    30    14     4    1
    31    14    18   ar
    32    17    26    1
    33    17    18   ar
    34     1     2   ar
    35     4     3   ar
    36    29    28   ar
    37    26    27   ar
    38     9     7    1
    39    33    31    1
    40     2     3   ar
    41     2     7    1
    42     3    11    1
    43    28    27   ar
    44    28    35    1
    45    27    31    1
    46    10     7    1
    47     7     8    1
    48    35    36    3
    49    11    12    3
    50    31    32    1
    51    31    34    1
    52    36    37    1
    53    12    13    1
