@<TRIPOS>MOLECULE
mol_data/opt/cam/geoms/mol2/12ie12ie-12ie12ie.out
 50 53 0 0 0
SMALL
GASTEIGER

@<TRIPOS>ATOM
      1 C           0.1157    1.7660    0.0699 C.ar    1  LIG1        0.0968
      2 C           1.4588    1.7060    0.2021 C.ar    1  LIG1        0.0034
      3 C           1.9093    3.0784    0.2117 C.ar    1  LIG1        0.0763
      4 C           0.7825    3.8531    0.0784 C.ar    1  LIG1        0.1855
      5 O          -0.3115    3.0578   -0.0088 O.2     1  LIG1       -0.4583
      6 H          -0.6534    1.0122    0.0156 H       1  LIG1        0.1032
      7 C           2.3264    0.4981    0.3216 C.3     1  LIG1       -0.0355
      8 H           2.8928    0.5140    1.2570 H       1  LIG1        0.0279
      9 H           3.0537    0.4554   -0.4941 H       1  LIG1        0.0279
     10 H           1.7323   -0.4176    0.2974 H       1  LIG1        0.0279
     11 C           3.2596    3.4861    0.3609 C.1     1  LIG1       -0.0655
     12 C           4.4242    3.7611    0.5003 C.1     1  LIG1       -0.1138
     13 H           5.4503    4.0177    0.6285 H       1  LIG1        0.1232
     14 C           0.5403    5.2685    0.0179 C.ar    1  LIG1        0.1760
     15 C          -0.6064    6.0087    0.0524 C.ar    1  LIG1        0.0145
     16 C          -0.1838    7.3784   -0.0495 C.ar    1  LIG1        0.0771
     17 C           1.1888    7.3596   -0.1367 C.ar    1  LIG1        0.1866
     18 O           1.6317    6.0822   -0.0957 O.2     1  LIG1       -0.4470
     19 C          -2.0212    5.5443    0.1646 C.3     1  LIG1       -0.0348
     20 H          -2.1132    4.7086    0.8594 H       1  LIG1        0.0279
     21 H          -2.4042    5.2058   -0.8031 H       1  LIG1        0.0279
     22 H          -2.6556    6.3645    0.5054 H       1  LIG1        0.0279
     23 C          -1.0505    8.5022   -0.0518 C.1     1  LIG1       -0.0655
     24 C          -1.8260    9.4227   -0.0484 C.1     1  LIG1       -0.1138
     25 H          -2.4928   10.2536   -0.0489 H       1  LIG1        0.1232
     26 C           2.1713    8.4021   -0.2613 C.ar    1  LIG1        0.1761
     27 C           3.5248    8.4159   -0.4507 C.ar    1  LIG1        0.0145
     28 C           3.8844    9.8071   -0.5109 C.ar    1  LIG1        0.0771
     29 C           2.7262   10.5242   -0.3384 C.ar    1  LIG1        0.1865
     30 O           1.6853    9.6752   -0.1897 O.2     1  LIG1       -0.4470
     31 C           4.4794    7.2811   -0.6146 C.3     1  LIG1       -0.0348
     32 H           5.3088    7.3786    0.0924 H       1  LIG1        0.0279
     33 H           4.9151    7.2916   -1.6187 H       1  LIG1        0.0279
     34 H           3.9974    6.3186   -0.4552 H       1  LIG1        0.0279
     35 C           5.1865   10.3066   -0.7780 C.1     1  LIG1       -0.0655
     36 C           6.3009   10.6947   -1.0183 C.1     1  LIG1       -0.1138
     37 H           7.2830   11.0437   -1.2403 H       1  LIG1        0.1232
     38 C           2.4351   11.9361   -0.2852 C.ar    1  LIG1        0.1750
     39 C           3.1025   13.0074    0.2319 C.ar    1  LIG1        0.0138
     40 C           2.2654   14.1471   -0.0495 C.ar    1  LIG1        0.0659
     41 C           1.1665   13.6647   -0.6943 C.ar    1  LIG1        0.1083
     42 O           1.2504   12.3328   -0.8455 O.2     1  LIG1       -0.4583
     43 H           0.2813   14.1425   -1.0826 H       1  LIG1        0.1042
     44 C           4.3930   13.0387    0.9790 C.3     1  LIG1       -0.0348
     45 H           4.3615   13.8131    1.7488 H       1  LIG1        0.0279
     46 H           5.2339   13.2604    0.3158 H       1  LIG1        0.0279
     47 H           4.5987   12.0776    1.4526 H       1  LIG1        0.0279
     48 C           2.5280   15.4987    0.3040 C.1     1  LIG1       -0.0662
     49 C           2.7663   16.6372    0.6138 C.1     1  LIG1       -0.1138
     50 H           2.9711   17.6475    0.8837 H       1  LIG1        0.1232
@<TRIPOS>BOND
     1    33    31    1
     2    37    36    1
     3    43    41    1
     4    36    35    3
     5    42    41   ar
     6    42    38   ar
     7    21    19    1
     8    35    28    1
     9    41    40   ar
    10    31    34    1
    11    31    27    1
    12    31    32    1
    13    28    27   ar
    14    28    29   ar
    15     9     7    1
    16    27    26   ar
    17    29    38    1
    18    29    30   ar
    19    38    39   ar
    20    26    30   ar
    21    26    17    1
    22    17    18   ar
    23    17    16   ar
    24    18    14   ar
    25    23    16    1
    26    23    24    3
    27    16    15   ar
    28    40    39   ar
    29    40    48    1
    30    25    24    1
    31     5     1   ar
    32     5     4   ar
    33     6     1    1
    34    14    15   ar
    35    14     4    1
    36    15    19    1
    37     1     2   ar
    38     4     3   ar
    39    19    22    1
    40    19    20    1
    41     2     3   ar
    42     2     7    1
    43     3    11    1
    44    39    44    1
    45    10     7    1
    46    48    49    3
    47    46    44    1
    48     7     8    1
    49    11    12    3
    50    12    13    1
    51    49    50    1
    52    44    47    1
    53    44    45    1
