@<TRIPOS>MOLECULE
mol_data/opt/cam/geoms/mol2/12ie12ie-12ie12ie-.out
 50 53 0 0 0
SMALL
GASTEIGER

@<TRIPOS>ATOM
      1 C           0.2057    1.7346    0.0656 C.ar    1  LIG1        0.0968
      2 C           1.5082    1.7324   -0.2924 C.ar    1  LIG1        0.0034
      3 C           1.9005    3.1220   -0.3357 C.ar    1  LIG1        0.0763
      4 C           0.7856    3.8467    0.0092 C.ar    1  LIG1        0.1855
      5 O          -0.2481    3.0060    0.2557 O.2     1  LIG1       -0.4583
      6 H          -0.5157    0.9493    0.2253 H       1  LIG1        0.1032
      7 C           2.3863    0.5641   -0.5923 C.3     1  LIG1       -0.0355
      8 H           3.2407    0.5308    0.0895 H       1  LIG1        0.0279
      9 H           2.7873    0.6264   -1.6078 H       1  LIG1        0.0279
     10 H           1.8379   -0.3753   -0.4984 H       1  LIG1        0.0279
     11 C           3.1890    3.5912   -0.6986 C.1     1  LIG1       -0.0655
     12 C           4.2998    3.9259   -1.0235 C.1     1  LIG1       -0.1138
     13 H           5.2758    4.2365   -1.3168 H       1  LIG1        0.1232
     14 C           0.5198    5.2531    0.1519 C.ar    1  LIG1        0.1760
     15 C          -0.6269    5.9756    0.3118 C.ar    1  LIG1        0.0145
     16 C          -0.2088    7.3489    0.3968 C.ar    1  LIG1        0.0771
     17 C           1.1611    7.3517    0.2737 C.ar    1  LIG1        0.1866
     18 O           1.6053    6.0829    0.1256 O.2     1  LIG1       -0.4470
     19 C          -2.0396    5.5018    0.4002 C.3     1  LIG1       -0.0348
     20 H          -2.3601    5.4211    1.4439 H       1  LIG1        0.0279
     21 H          -2.1615    4.5228   -0.0611 H       1  LIG1        0.0279
     22 H          -2.7066    6.2155   -0.0885 H       1  LIG1        0.0279
     23 C          -1.0847    8.4469    0.5982 C.1     1  LIG1       -0.0655
     24 C          -1.8824    9.3308    0.7801 C.1     1  LIG1       -0.1138
     25 H          -2.5755   10.1222    0.9496 H       1  LIG1        0.1232
     26 C           2.1515    8.3934    0.2818 C.ar    1  LIG1        0.1761
     27 C           3.5096    8.4005    0.4267 C.ar    1  LIG1        0.0145
     28 C           3.8981    9.7825    0.3545 C.ar    1  LIG1        0.0771
     29 C           2.7436   10.5062    0.1721 C.ar    1  LIG1        0.1865
     30 O           1.6832    9.6706    0.1281 O.2     1  LIG1       -0.4470
     31 C           4.4494    7.2637    0.6525 C.3     1  LIG1       -0.0348
     32 H           4.7652    7.2301    1.7004 H       1  LIG1        0.0279
     33 H           5.3532    7.4019    0.0533 H       1  LIG1        0.0279
     34 H           3.9997    6.3058    0.3978 H       1  LIG1        0.0279
     35 C           5.2330   10.2559    0.4475 C.1     1  LIG1       -0.0655
     36 C           6.3830   10.6026    0.5290 C.1     1  LIG1       -0.1138
     37 H           7.3949   10.9276    0.6019 H       1  LIG1        0.1232
     38 C           2.4886   11.9136    0.0148 C.ar    1  LIG1        0.1750
     39 C           1.3804   12.6504   -0.2969 C.ar    1  LIG1        0.0138
     40 C           1.8284   14.0206   -0.2980 C.ar    1  LIG1        0.0659
     41 C           3.1553   13.9932    0.0079 C.ar    1  LIG1        0.1083
     42 O           3.5694   12.7296    0.2001 O.2     1  LIG1       -0.4583
     43 H           3.8961   14.7683    0.1204 H       1  LIG1        0.1042
     44 C          -0.0079   12.2029   -0.6107 C.3     1  LIG1       -0.0348
     45 H          -0.1750   11.1653   -0.3272 H       1  LIG1        0.0279
     46 H          -0.2109   12.3030   -1.6820 H       1  LIG1        0.0279
     47 H          -0.7332   12.8340   -0.0895 H       1  LIG1        0.0279
     48 C           1.0331   15.1683   -0.5651 C.1     1  LIG1       -0.0662
     49 C           0.3446   16.1290   -0.7926 C.1     1  LIG1       -0.1138
     50 H          -0.2590   16.9836   -0.9943 H       1  LIG1        0.1232
@<TRIPOS>BOND
     1    46    44    1
     2     9     7    1
     3    13    12    1
     4    12    11    3
     5    50    49    1
     6    49    48    3
     7    11     3    1
     8    44    45    1
     9    44    39    1
    10    44    47    1
    11     7    10    1
    12     7     2    1
    13     7     8    1
    14    48    40    1
    15     3     2   ar
    16     3     4   ar
    17    40    39   ar
    18    40    41   ar
    19    39    38   ar
    20     2     1   ar
    21    22    19    1
    22    21    19    1
    23    41    43    1
    24    41    42   ar
    25     4    14    1
    26     4     5   ar
    27    38    29    1
    28    38    42   ar
    29    33    31    1
    30     1     6    1
    31     1     5   ar
    32    18    14   ar
    33    18    17   ar
    34    30    29   ar
    35    30    26   ar
    36    14    15   ar
    37    29    28   ar
    38    17    26    1
    39    17    16   ar
    40    26    27   ar
    41    15    16   ar
    42    15    19    1
    43    28    27   ar
    44    28    35    1
    45    16    23    1
    46    34    31    1
    47    19    20    1
    48    27    31    1
    49    35    36    3
    50    36    37    1
    51    23    24    3
    52    31    32    1
    53    24    25    1
