@<TRIPOS>MOLECULE
mol_data/opt/cam/geoms/mol2/12ie12ie12ie-12ie-.out
 50 53 0 0 0
SMALL
GASTEIGER

@<TRIPOS>ATOM
      1 C           0.4327    1.7531    0.7527 C.ar    1  LIG1        0.0968
      2 C           1.6695    1.7494    0.2067 C.ar    1  LIG1        0.0034
      3 C           1.9536    3.1305   -0.1038 C.ar    1  LIG1        0.0763
      4 C           0.8588    3.8516    0.3035 C.ar    1  LIG1        0.1855
      5 O          -0.0725    3.0139    0.8222 O.2     1  LIG1       -0.4583
      6 H          -0.2062    0.9683    1.1260 H       1  LIG1        0.1032
      7 C           2.5660    0.5855   -0.0550 C.3     1  LIG1       -0.0355
      8 H           3.5069    0.6817    0.4943 H       1  LIG1        0.0279
      9 H           2.8186    0.5164   -1.1168 H       1  LIG1        0.0279
     10 H           2.0917   -0.3512    0.2444 H       1  LIG1        0.0279
     11 C           3.1132    3.6030   -0.7724 C.1     1  LIG1       -0.0655
     12 C           4.1050    3.9630   -1.3534 C.1     1  LIG1       -0.1138
     13 H           4.9760    4.2877   -1.8745 H       1  LIG1        0.1232
     14 C           0.5315    5.2559    0.2865 C.ar    1  LIG1        0.1760
     15 C           1.2571    6.3966    0.4566 C.ar    1  LIG1        0.0145
     16 C           0.3170    7.4792    0.3263 C.ar    1  LIG1        0.0771
     17 C          -0.9109    6.9032    0.1028 C.ar    1  LIG1        0.1866
     18 O          -0.7875    5.5586    0.0741 O.2     1  LIG1       -0.4470
     19 C           2.7081    6.5466    0.7663 C.3     1  LIG1       -0.0348
     20 H           2.8639    7.4147    1.4106 H       1  LIG1        0.0279
     21 H           3.2970    6.6956   -0.1430 H       1  LIG1        0.0279
     22 H           3.0995    5.6586    1.2645 H       1  LIG1        0.0279
     23 C           0.6342    8.8564    0.4521 C.1     1  LIG1       -0.0655
     24 C           0.9512   10.0116    0.5713 C.1     1  LIG1       -0.1138
     25 H           1.2101   11.0403    0.6702 H       1  LIG1        0.1232
     26 C          -2.2315    7.4398   -0.0884 C.ar    1  LIG1        0.1761
     27 C          -3.4660    6.8710   -0.2296 C.ar    1  LIG1        0.0145
     28 C          -4.3728    7.9743   -0.3997 C.ar    1  LIG1        0.0771
     29 C          -3.6199    9.1206   -0.3290 C.ar    1  LIG1        0.1865
     30 O          -2.3198    8.7993   -0.1439 O.2     1  LIG1       -0.4470
     31 C          -3.8590    5.4308   -0.2406 C.3     1  LIG1       -0.0348
     32 H          -3.0270    4.7857    0.0354 H       1  LIG1        0.0279
     33 H          -4.2089    5.1353   -1.2348 H       1  LIG1        0.0279
     34 H          -4.6868    5.2581    0.4527 H       1  LIG1        0.0279
     35 C          -5.7642    7.8606   -0.6595 C.1     1  LIG1       -0.0655
     36 C          -6.9387    7.7263   -0.8892 C.1     1  LIG1       -0.1138
     37 H          -7.9767    7.6131   -1.1020 H       1  LIG1        0.1232
     38 C          -3.9449   10.5241   -0.4085 C.ar    1  LIG1        0.1750
     39 C          -4.9994   11.2643    0.0389 C.ar    1  LIG1        0.0138
     40 C          -4.7140   12.6169   -0.3711 C.ar    1  LIG1        0.0659
     41 C          -3.5130   12.5766   -1.0131 C.ar    1  LIG1        0.1083
     42 O          -3.0332   11.3226   -1.0456 O.2     1  LIG1       -0.4583
     43 H          -2.9072   13.3401   -1.4743 H       1  LIG1        0.1042
     44 C          -6.1862   10.8269    0.8291 C.3     1  LIG1       -0.0348
     45 H          -5.9771    9.9098    1.3816 H       1  LIG1        0.0279
     46 H          -7.0460   10.6284    0.1830 H       1  LIG1        0.0279
     47 H          -6.4741   11.6085    1.5361 H       1  LIG1        0.0279
     48 C          -5.5175   13.7635   -0.1253 C.1     1  LIG1       -0.0662
     49 C          -6.2099   14.7232    0.0946 C.1     1  LIG1       -0.1138
     50 H          -6.8185   15.5770    0.2845 H       1  LIG1        0.1232
@<TRIPOS>BOND
     1    13    12    1
     2    43    41    1
     3    12    11    3
     4    33    31    1
     5     9     7    1
     6    37    36    1
     7    42    41   ar
     8    42    38   ar
     9    41    40   ar
    10    36    35    3
    11    11     3    1
    12    35    28    1
    13    38    29    1
    14    38    39   ar
    15    28    29   ar
    16    28    27   ar
    17    40    48    1
    18    40    39   ar
    19    29    30   ar
    20    31    27    1
    21    31    32    1
    22    31    34    1
    23    27    26   ar
    24    30    26   ar
    25    21    19    1
    26    48    49    3
    27     3     2   ar
    28     3     4   ar
    29    26    17    1
    30     7     2    1
    31     7    10    1
    32     7     8    1
    33    39    44    1
    34    18    17   ar
    35    18    14   ar
    36    49    50    1
    37    17    16   ar
    38    46    44    1
    39     2     1   ar
    40    14     4    1
    41    14    15   ar
    42     4     5   ar
    43    16    23    1
    44    16    15   ar
    45    23    24    3
    46    15    19    1
    47    24    25    1
    48     1     5   ar
    49     1     6    1
    50    19    22    1
    51    19    20    1
    52    44    45    1
    53    44    47    1
