@<TRIPOS>MOLECULE
mol_data/opt/cam/geoms/mol2/12ie12ie12ie.out
 38 40 0 0 0
SMALL
GASTEIGER

@<TRIPOS>ATOM
      1 C           0.4428    1.8849    1.0755 C.ar    1  LIG1        0.0968
      2 C           1.6354    1.8039    0.4428 C.ar    1  LIG1        0.0034
      3 C           1.8895    3.1329   -0.0600 C.ar    1  LIG1        0.0763
      4 C           0.8250    3.9053    0.3325 C.ar    1  LIG1        0.1855
      5 O          -0.0601    3.1461    1.0221 O.2     1  LIG1       -0.4583
      6 H          -0.1634    1.1574    1.5919 H       1  LIG1        0.1032
      7 C           2.5136    0.6108    0.2644 C.3     1  LIG1       -0.0355
      8 H           3.4939    0.7709    0.7224 H       1  LIG1        0.0279
      9 H           2.6834    0.4039   -0.7959 H       1  LIG1        0.0279
     10 H           2.0677   -0.2768    0.7177 H       1  LIG1        0.0279
     11 C           2.9953    3.5144   -0.8645 C.1     1  LIG1       -0.0655
     12 C           3.9409    3.7979   -1.5547 C.1     1  LIG1       -0.1138
     13 H           4.7701    4.0530   -2.1734 H       1  LIG1        0.1232
     14 C           0.4983    5.3011    0.1592 C.ar    1  LIG1        0.1760
     15 C           1.2460    6.4406    0.1649 C.ar    1  LIG1        0.0145
     16 C           0.3147    7.5097   -0.0843 C.ar    1  LIG1        0.0771
     17 C          -0.9270    6.9327   -0.1868 C.ar    1  LIG1        0.1865
     18 O          -0.8215    5.5931   -0.0447 O.2     1  LIG1       -0.4470
     19 C           2.7102    6.6010    0.3984 C.3     1  LIG1       -0.0348
     20 H           2.9038    7.5228    0.9519 H       1  LIG1        0.0279
     21 H           3.2616    6.6562   -0.5444 H       1  LIG1        0.0279
     22 H           3.1138    5.7585    0.9615 H       1  LIG1        0.0279
     23 C           0.6536    8.8802   -0.2354 C.1     1  LIG1       -0.0655
     24 C           0.9788   10.0323   -0.3673 C.1     1  LIG1       -0.1138
     25 H           1.2611   11.0518   -0.4952 H       1  LIG1        0.1232
     26 C          -2.2503    7.4689   -0.4013 C.ar    1  LIG1        0.1750
     27 C          -2.8819    8.5970    0.0316 C.ar    1  LIG1        0.0138
     28 C          -4.2014    8.5388   -0.5473 C.ar    1  LIG1        0.0659
     29 C          -4.2546    7.3804   -1.2622 C.ar    1  LIG1        0.1083
     30 O          -3.0868    6.7212   -1.1864 O.2     1  LIG1       -0.4583
     31 H          -5.0349    6.9196   -1.8467 H       1  LIG1        0.1042
     32 C          -2.3795    9.6628    0.9460 C.3     1  LIG1       -0.0348
     33 H          -3.1906   10.0232    1.5829 H       1  LIG1        0.0279
     34 H          -1.9892   10.5178    0.3869 H       1  LIG1        0.0279
     35 H          -1.5714    9.2924    1.5784 H       1  LIG1        0.0279
     36 C          -5.2432    9.4909   -0.3776 C.1     1  LIG1       -0.0662
     37 C          -6.1140   10.3069   -0.2201 C.1     1  LIG1       -0.1138
     38 H          -6.8893   11.0255   -0.0864 H       1  LIG1        0.1232
@<TRIPOS>BOND
     1    13    12    1
     2    31    29    1
     3    12    11    3
     4    29    30   ar
     5    29    28   ar
     6    30    26   ar
     7    11     3    1
     8     9     7    1
     9    28    36    1
    10    28    27   ar
    11    21    19    1
    12    25    24    1
    13    26    17    1
    14    26    27   ar
    15    36    37    3
    16    24    23    3
    17    23    16    1
    18    37    38    1
    19    17    16   ar
    20    17    18   ar
    21    16    15   ar
    22     3     4   ar
    23     3     2   ar
    24    18    14   ar
    25    27    32    1
    26    14    15   ar
    27    14     4    1
    28    15    19    1
    29     7     2    1
    30     7    10    1
    31     7     8    1
    32     4     5   ar
    33    34    32    1
    34    19    20    1
    35    19    22    1
    36     2     1   ar
    37    32    35    1
    38    32    33    1
    39     5     1   ar
    40     1     6    1
