@<TRIPOS>MOLECULE
mol_data/opt/cam/geoms/mol2/12ie6fd6eh-6ah-.out
 49 52 0 0 0
SMALL
GASTEIGER

@<TRIPOS>ATOM
      1 C           0.5185    1.7165    1.2460 C.ar    1  LIG1        0.0967
      2 C           1.6499    1.6213    0.5188 C.ar    1  LIG1        0.0033
      3 C           1.8958    2.9475   -0.0003 C.ar    1  LIG1        0.0734
      4 C           0.8825    3.7534    0.4585 C.ar    1  LIG1        0.1555
      5 O           0.0413    2.9972    1.2213 O.2     1  LIG1       -0.4612
      6 H          -0.0587    1.0092    1.8190 H       1  LIG1        0.1032
      7 C           2.4972    0.4176    0.2767 C.3     1  LIG1       -0.0355
      8 H           3.5162    0.5787    0.6388 H       1  LIG1        0.0279
      9 H           2.5648    0.1969   -0.7920 H       1  LIG1        0.0279
     10 H           2.0891   -0.4594    0.7821 H       1  LIG1        0.0279
     11 C           2.9971    3.2866   -0.8290 C.1     1  LIG1       -0.0656
     12 C           3.9465    3.5281   -1.5301 C.1     1  LIG1       -0.1138
     13 H           4.7823    3.7509   -2.1535 H       1  LIG1        0.1232
     14 C          -0.6109    5.7676    0.8557 C.ar    1  LIG1        0.2239
     15 C           0.5521    5.1645    0.2999 C.ar    1  LIG1        0.0810
     16 C           1.3858    6.0041   -0.4271 C.ar    1  LIG1       -0.0264
     17 C           1.0764    7.3527   -0.5902 C.ar    1  LIG1        0.0787
     18 C          -0.1015    7.8442    0.0019 C.ar    1  LIG1        0.0949
     19 N          -0.9003    7.0486    0.7016 N.ar    1  LIG1       -0.2110
     20 H           2.2851    5.6087   -0.8812 H       1  LIG1        0.0640
     21 O          -1.5041    5.0966    1.5848 O.3     1  LIG1       -0.4919
     22 H          -1.2357    4.1690    1.6712 H       1  LIG1        0.2938
     23 N           2.6937    8.8223   -1.9780 N.1     1  LIG1       -0.1908
     24 C           1.9560    8.1775   -1.3622 C.1     1  LIG1        0.1013
     25 C          -1.7964    9.6420   -0.5349 C.ar    1  LIG1        0.1231
     26 C          -0.5087    9.2666   -0.1103 C.ar    1  LIG1        0.0373
     27 C           0.3856   10.2782    0.2041 C.ar    1  LIG1       -0.0271
     28 C           0.0126   11.6178    0.1234 C.ar    1  LIG1        0.0516
     29 C          -1.3213   11.8936   -0.2488 C.ar    1  LIG1        0.0945
     30 N          -2.1646   10.9230   -0.5887 N.ar    1  LIG1       -0.2359
     31 H           1.3949   10.0308    0.5169 H       1  LIG1        0.0644
     32 C          -2.7679    8.6832   -0.9813 C.1     1  LIG1       -0.0491
     33 C          -3.5883    7.9048   -1.3900 C.1     1  LIG1       -0.1124
     34 H          -4.3221    7.2139   -1.7354 H       1  LIG1        0.1232
     35 N           0.9284   12.6158    0.4299 N.pl3   1  LIG1       -0.3563
     36 H           1.8939   12.3382    0.3213 H       1  LIG1        0.1424
     37 H           0.7392   13.5105    0.0003 H       1  LIG1        0.1424
     38 C          -2.7251   13.6143   -1.3758 C.ar    1  LIG1        0.0369
     39 C          -1.8635   13.2748   -0.3283 C.ar    1  LIG1        0.0220
     40 C          -1.5805   14.2490    0.6267 C.ar    1  LIG1       -0.0289
     41 C          -2.1525   15.5165    0.5090 C.ar    1  LIG1        0.0435
     42 C          -2.9833   15.7437   -0.5935 C.ar    1  LIG1        0.0482
     43 N          -3.2637   14.8221   -1.5072 N.ar    1  LIG1       -0.2608
     44 H          -0.9447   14.0192    1.4767 H       1  LIG1        0.0643
     45 H          -3.4448   16.7216   -0.7272 H       1  LIG1        0.0848
     46 H          -2.9798   12.8695   -2.1225 H       1  LIG1        0.0836
     47 N          -1.9557   16.4973    1.4711 N.pl3   1  LIG1       -0.3568
     48 H          -1.1162   16.4134    2.0237 H       1  LIG1        0.1424
     49 H          -2.1340   17.4446    1.1731 H       1  LIG1        0.1424
@<TRIPOS>BOND
     1    13    12    1
     2    46    38    1
     3    23    24    3
     4    34    33    1
     5    12    11    3
     6    43    38   ar
     7    43    42   ar
     8    33    32    3
     9    38    39   ar
    10    24    17    1
    11    32    25    1
    12    20    16    1
    13    11     3    1
    14     9     7    1
    15    45    42    1
    16    42    41   ar
    17    17    16   ar
    18    17    18   ar
    19    30    25   ar
    20    30    29   ar
    21    25    26   ar
    22    16    15   ar
    23    39    29    1
    24    39    40   ar
    25    29    28   ar
    26    26    18    1
    27    26    27   ar
    28     3     4   ar
    29     3     2   ar
    30    37    35    1
    31    18    19   ar
    32    28    27   ar
    33    28    35    1
    34    27    31    1
    35     7     2    1
    36     7     8    1
    37     7    10    1
    38    15     4    1
    39    15    14   ar
    40    36    35    1
    41     4     5   ar
    42    41    40   ar
    43    41    47    1
    44     2     1   ar
    45    40    44    1
    46    19    14   ar
    47    14    21    1
    48    49    47    1
    49     5     1   ar
    50     1     6    1
    51    47    48    1
    52    21    22    1
