@<TRIPOS>MOLECULE
mol_data/opt/cam/geoms/mol2/12ie12ie.out
 26 27 0 0 0
SMALL
GASTEIGER

@<TRIPOS>ATOM
      1 C           0.2180    1.8625    0.5102 C.ar    1  LIG1        0.0968
      2 C           1.5249    1.8215    0.1653 C.ar    1  LIG1        0.0034
      3 C           1.8736    3.1832   -0.1642 C.ar    1  LIG1        0.0763
      4 C           0.7396    3.9310    0.0292 C.ar    1  LIG1        0.1855
      5 O          -0.2726    3.1283    0.4374 O.2     1  LIG1       -0.4583
      6 H          -0.4831    1.1025    0.8171 H       1  LIG1        0.1032
      7 C           2.4334    0.6393    0.1052 C.3     1  LIG1       -0.0355
      8 H           3.2810    0.7586    0.7861 H       1  LIG1        0.0279
      9 H           2.8437    0.5107   -0.9003 H       1  LIG1        0.0279
     10 H           1.9051   -0.2767    0.3774 H       1  LIG1        0.0279
     11 C           3.1309    3.6188   -0.6596 C.1     1  LIG1       -0.0655
     12 C           4.2065    3.9503   -1.0884 C.1     1  LIG1       -0.1138
     13 H           5.1531    4.2484   -1.4766 H       1  LIG1        0.1232
     14 C           0.4489    5.3391   -0.1094 C.ar    1  LIG1        0.1750
     15 C           1.1608    6.4691    0.1630 C.ar    1  LIG1        0.0138
     16 C           0.2952    7.5619   -0.2075 C.ar    1  LIG1        0.0659
     17 C          -0.8617    6.9987   -0.6542 C.ar    1  LIG1        0.1083
     18 O          -0.7880    5.6580   -0.6033 O.2     1  LIG1       -0.4583
     19 H          -1.7844    7.4206   -1.0194 H       1  LIG1        0.1042
     20 C           2.5220    6.5992    0.7587 C.3     1  LIG1       -0.0348
     21 H           2.5655    7.4771    1.4075 H       1  LIG1        0.0279
     22 H           3.2871    6.7168   -0.0139 H       1  LIG1        0.0279
     23 H           2.7837    5.7150    1.3418 H       1  LIG1        0.0279
     24 C           0.5881    8.9487   -0.0983 C.1     1  LIG1       -0.0662
     25 C           0.8534   10.1183    0.0041 C.1     1  LIG1       -0.1138
     26 H           1.0817   11.1555    0.0907 H       1  LIG1        0.1232
@<TRIPOS>BOND
     1    13    12    1
     2    12    11    3
     3    19    17    1
     4     9     7    1
     5    11     3    1
     6    17    18   ar
     7    17    16   ar
     8    18    14   ar
     9    16    24    1
    10    16    15   ar
    11     3     4   ar
    12     3     2   ar
    13    14     4    1
    14    14    15   ar
    15    24    25    3
    16    22    20    1
    17    25    26    1
    18     4     5   ar
    19     7     2    1
    20     7    10    1
    21     7     8    1
    22    15    20    1
    23     2     1   ar
    24     5     1   ar
    25     1     6    1
    26    20    23    1
    27    20    21    1
