@<TRIPOS>MOLECULE
mol_data/opt/cam/geoms/mol2/12if12if-12if-12if-.out
 46 49 0 0 0
SMALL
GASTEIGER

@<TRIPOS>ATOM
      1 C           0.2658    1.7300    0.1089 C.ar    1  LIG1        0.0993
      2 C           1.6079    1.8356   -0.0555 C.ar    1  LIG1        0.0295
      3 C           1.8670    3.2436   -0.0838 C.ar    1  LIG1        0.1687
      4 C           0.6636    3.8781    0.0645 C.ar    1  LIG1        0.2114
      5 O          -0.3313    2.9471    0.1847 O.2     1  LIG1       -0.4557
      6 H          -0.3913    0.8781    0.1874 H       1  LIG1        0.1033
      7 C           2.6288    0.7546   -0.1829 C.3     1  LIG1       -0.0332
      8 H           3.3772    0.8273    0.6111 H       1  LIG1        0.0280
      9 H           3.1623    0.8300   -1.1345 H       1  LIG1        0.0280
     10 H           2.1663   -0.2330   -0.1275 H       1  LIG1        0.0280
     11 O           3.0992    3.7649   -0.2316 O.3     1  LIG1       -0.5030
     12 H           3.0438    4.7331   -0.2164 H       1  LIG1        0.2923
     13 C           0.3584    5.2767    0.1070 C.ar    1  LIG1        0.1809
     14 C          -0.7634    6.0371    0.2737 C.ar    1  LIG1        0.0407
     15 C          -0.3036    7.3903    0.2174 C.ar    1  LIG1        0.1694
     16 C           1.0470    7.3832    0.0130 C.ar    1  LIG1        0.2125
     17 O           1.4507    6.0699   -0.0540 O.2     1  LIG1       -0.4444
     18 C          -2.1766    5.5988    0.4866 C.3     1  LIG1       -0.0325
     19 H          -2.2442    4.5112    0.4863 H       1  LIG1        0.0280
     20 H          -2.8391    5.9706   -0.3039 H       1  LIG1        0.0280
     21 H          -2.5705    5.9530    1.4466 H       1  LIG1        0.0280
     22 O          -1.0744    8.5004    0.3541 O.3     1  LIG1       -0.5029
     23 H          -1.9868    8.2299    0.5087 H       1  LIG1        0.2923
     24 C           2.0962    8.3592   -0.1226 C.ar    1  LIG1        0.1809
     25 C           2.1451    9.7104   -0.3418 C.ar    1  LIG1        0.0407
     26 C           3.5379   10.0246   -0.3777 C.ar    1  LIG1        0.1694
     27 C           4.2446    8.8743   -0.1788 C.ar    1  LIG1        0.2124
     28 O           3.3506    7.8497   -0.0182 O.2     1  LIG1       -0.4444
     29 C           1.0484   10.7014   -0.5654 C.3     1  LIG1       -0.0325
     30 H           0.0681   10.2494   -0.4244 H       1  LIG1        0.0280
     31 H           1.0848   11.1134   -1.5812 H       1  LIG1        0.0280
     32 H           1.1242   11.5413    0.1358 H       1  LIG1        0.0280
     33 O           4.0758   11.2548   -0.5937 O.3     1  LIG1       -0.5029
     34 H           3.3616   11.8799   -0.7634 H       1  LIG1        0.2923
     35 C           5.6440    8.5275   -0.1331 C.ar    1  LIG1        0.1799
     36 C           6.7838    9.2213    0.1692 C.ar    1  LIG1        0.0399
     37 C           7.8459    8.2732    0.0038 C.ar    1  LIG1        0.1581
     38 C           7.2920    7.0937   -0.3674 C.ar    1  LIG1        0.1343
     39 O           5.9394    7.2417   -0.4580 O.2     1  LIG1       -0.4557
     40 H           7.6954    6.1199   -0.5851 H       1  LIG1        0.1068
     41 C           6.9617   10.6320    0.6311 C.3     1  LIG1       -0.0325
     42 H           6.0365   11.2000    0.5446 H       1  LIG1        0.0280
     43 H           7.7150   11.1538    0.0282 H       1  LIG1        0.0280
     44 H           7.2906   10.6718    1.6763 H       1  LIG1        0.0280
     45 O           9.1726    8.5002    0.1946 O.3     1  LIG1       -0.5034
     46 H           9.2913    9.4181    0.4630 H       1  LIG1        0.2923
@<TRIPOS>BOND
     1    31    29    1
     2     9     7    1
     3    34    33    1
     4    33    26    1
     5    40    38    1
     6    29    30    1
     7    29    25    1
     8    29    32    1
     9    39    38   ar
    10    39    35   ar
    11    26    25   ar
    12    26    27   ar
    13    38    37   ar
    14    25    24   ar
    15    20    18    1
    16    11    12    1
    17    11     3    1
    18     7    10    1
    19     7     2    1
    20     7     8    1
    21    27    35    1
    22    27    28   ar
    23    35    36   ar
    24    24    28   ar
    25    24    16    1
    26     3     2   ar
    27     3     4   ar
    28     2     1   ar
    29    17    16   ar
    30    17    13   ar
    31    37    36   ar
    32    37    45    1
    33    16    15   ar
    34    43    41    1
    35     4    13    1
    36     4     5   ar
    37    13    14   ar
    38     1     5   ar
    39     1     6    1
    40    36    41    1
    41    45    46    1
    42    15    14   ar
    43    15    22    1
    44    14    18    1
    45    22    23    1
    46    19    18    1
    47    18    21    1
    48    42    41    1
    49    41    44    1
