@<TRIPOS>MOLECULE
mol_data/opt/cam/geoms/mol2/12if12if12if12if.out
 46 49 0 0 0
SMALL
GASTEIGER

@<TRIPOS>ATOM
      1 C           1.2891    2.1246    1.8871 C.ar    1  LIG1        0.0993
      2 C           2.1502    1.9130    0.8594 C.ar    1  LIG1        0.0295
      3 C           2.0089    3.0699    0.0313 C.ar    1  LIG1        0.1687
      4 C           1.0940    3.8946    0.6193 C.ar    1  LIG1        0.2114
      5 O           0.6412    3.3052    1.7696 O.2     1  LIG1       -0.4557
      6 H           1.0357    1.5309    2.7519 H       1  LIG1        0.1033
      7 C           3.0419    0.7438    0.6028 C.3     1  LIG1       -0.0332
      8 H           4.0935    1.0443    0.5814 H       1  LIG1        0.0280
      9 H           2.8189    0.2843   -0.3642 H       1  LIG1        0.0280
     10 H           2.9225   -0.0173    1.3767 H       1  LIG1        0.0280
     11 O           2.6870    3.2332   -1.1316 O.3     1  LIG1       -0.5030
     12 H           2.3142    3.9878   -1.6058 H       1  LIG1        0.2923
     13 C           0.5787    5.1838    0.2284 C.ar    1  LIG1        0.1809
     14 C           1.2011    6.2781   -0.3106 C.ar    1  LIG1        0.0407
     15 C           0.1516    7.2140   -0.5499 C.ar    1  LIG1        0.1694
     16 C          -1.0157    6.6543   -0.1181 C.ar    1  LIG1        0.2125
     17 O          -0.7584    5.3934    0.3480 O.2     1  LIG1       -0.4444
     18 C           2.6558    6.5123   -0.5611 C.3     1  LIG1       -0.0325
     19 H           2.9769    7.4490   -0.0976 H       1  LIG1        0.0280
     20 H           2.8756    6.6017   -1.6303 H       1  LIG1        0.0280
     21 H           3.2634    5.7036   -0.1514 H       1  LIG1        0.0280
     22 O           0.3643    8.4310   -1.1075 O.3     1  LIG1       -0.5029
     23 H          -0.4899    8.8414   -1.2952 H       1  LIG1        0.2923
     24 C          -2.3632    7.1661   -0.0848 C.ar    1  LIG1        0.1809
     25 C          -2.8500    8.4052    0.2364 C.ar    1  LIG1        0.0407
     26 C          -4.2546    8.3174    0.0032 C.ar    1  LIG1        0.1694
     27 C          -4.5325    7.0457   -0.4056 C.ar    1  LIG1        0.2124
     28 O          -3.3655    6.3353   -0.4759 O.2     1  LIG1       -0.4444
     29 C          -2.1252    9.5979    0.7705 C.3     1  LIG1       -0.0325
     30 H          -2.6034    9.9564    1.6860 H       1  LIG1        0.0280
     31 H          -2.1401   10.4339    0.0630 H       1  LIG1        0.0280
     32 H          -1.0854    9.3596    1.0009 H       1  LIG1        0.0280
     33 O          -5.0987    9.3618    0.1874 O.3     1  LIG1       -0.5029
     34 H          -5.9751    9.1134   -0.1348 H       1  LIG1        0.2923
     35 C          -5.7827    6.4063   -0.7365 C.ar    1  LIG1        0.1799
     36 C          -7.0137    6.4717   -0.1445 C.ar    1  LIG1        0.0399
     37 C          -7.8649    5.6740   -0.9730 C.ar    1  LIG1        0.1581
     38 C          -7.1040    5.1778   -1.9812 C.ar    1  LIG1        0.1343
     39 O          -5.8245    5.6281   -1.8513 O.2     1  LIG1       -0.4557
     40 H          -7.3042    4.5209   -2.8122 H       1  LIG1        0.1068
     41 C          -7.4170    7.1443    1.1275 C.3     1  LIG1       -0.0325
     42 H          -7.9486    6.4425    1.7755 H       1  LIG1        0.0280
     43 H          -8.0996    7.9823    0.9496 H       1  LIG1        0.0280
     44 H          -6.5468    7.5182    1.6700 H       1  LIG1        0.0280
     45 O          -9.1812    5.4976   -0.6890 O.3     1  LIG1       -0.5034
     46 H          -9.5683    4.8803   -1.3201 H       1  LIG1        0.2923
@<TRIPOS>BOND
     1    40    38    1
     2    38    39   ar
     3    38    37   ar
     4    39    35   ar
     5    20    18    1
     6    12    11    1
     7    46    45    1
     8    23    22    1
     9    11     3    1
    10    22    15    1
    11    37    45    1
    12    37    36   ar
    13    35    27    1
    14    35    36   ar
    15    18    14    1
    16    18    21    1
    17    18    19    1
    18    15    14   ar
    19    15    16   ar
    20    28    27   ar
    21    28    24   ar
    22    27    26   ar
    23     9     7    1
    24    14    13   ar
    25    36    41    1
    26    34    33    1
    27    16    24    1
    28    16    17   ar
    29    24    25   ar
    30    26    33    1
    31    26    25   ar
    32     3     4   ar
    33     3     2   ar
    34    31    29    1
    35    13    17   ar
    36    13     4    1
    37    25    29    1
    38     8     7    1
    39     7     2    1
    40     7    10    1
    41     4     5   ar
    42    29    32    1
    43    29    30    1
    44     2     1   ar
    45    43    41    1
    46    41    44    1
    47    41    42    1
    48     5     1   ar
    49     1     6    1
