@<TRIPOS>MOLECULE
mol_data/opt/cam/geoms/mol2/12if12if-12if.out
 35 37 0 0 0
SMALL
GASTEIGER

@<TRIPOS>ATOM
      1 C           0.2356    1.7716    0.0823 C.ar    1  LIG1        0.0993
      2 C           1.5848    1.8456   -0.0363 C.ar    1  LIG1        0.0295
      3 C           1.8721    3.2465   -0.0888 C.ar    1  LIG1        0.1687
      4 C           0.6805    3.9109    0.0030 C.ar    1  LIG1        0.2114
      5 O          -0.3364    3.0028    0.1085 O.2     1  LIG1       -0.4557
      6 H          -0.4424    0.9359    0.1565 H       1  LIG1        0.1033
      7 C           2.5852    0.7401   -0.1027 C.3     1  LIG1       -0.0332
      8 H           3.3028    0.8099    0.7195 H       1  LIG1        0.0280
      9 H           3.1577    0.7844   -1.0334 H       1  LIG1        0.0280
     10 H           2.0980   -0.2356   -0.0480 H       1  LIG1        0.0280
     11 O           3.1193    3.7480   -0.2124 O.3     1  LIG1       -0.5030
     12 H           3.0577    4.7135   -0.2573 H       1  LIG1        0.2923
     13 C           0.3964    5.3165    0.0035 C.ar    1  LIG1        0.1809
     14 C          -0.7299    6.0856    0.0347 C.ar    1  LIG1        0.0407
     15 C          -0.2614    7.4386    0.0061 C.ar    1  LIG1        0.1694
     16 C           1.1021    7.4182   -0.0433 C.ar    1  LIG1        0.2124
     17 O           1.5111    6.1029   -0.0466 O.2     1  LIG1       -0.4444
     18 C          -2.1615    5.6591    0.0876 C.3     1  LIG1       -0.0325
     19 H          -2.2407    4.5726    0.0945 H       1  LIG1        0.0280
     20 H          -2.7224    6.0279   -0.7790 H       1  LIG1        0.0280
     21 H          -2.6599    6.0323    0.9900 H       1  LIG1        0.0280
     22 O          -1.0253    8.5555    0.0291 O.3     1  LIG1       -0.5029
     23 H          -1.9520    8.2957    0.0851 H       1  LIG1        0.2923
     24 C           2.1231    8.4277   -0.0839 C.ar    1  LIG1        0.1799
     25 C           3.4832    8.3770    0.0603 C.ar    1  LIG1        0.0399
     26 C           3.9132    9.7319   -0.0961 C.ar    1  LIG1        0.1581
     27 C           2.8124   10.4956   -0.3116 C.ar    1  LIG1        0.1343
     28 O           1.7042    9.6978   -0.3079 O.2     1  LIG1       -0.4557
     29 H           2.6493   11.5486   -0.4715 H       1  LIG1        0.1068
     30 C           4.3808    7.2135    0.3354 C.3     1  LIG1       -0.0325
     31 H           5.3024    7.5591    0.8082 H       1  LIG1        0.0280
     32 H           4.6697    6.6916   -0.5842 H       1  LIG1        0.0280
     33 H           3.9084    6.4897    1.0031 H       1  LIG1        0.0280
     34 O           5.2237   10.0821   -0.0125 O.3     1  LIG1       -0.5034
     35 H           5.3062   11.0387   -0.0946 H       1  LIG1        0.2923
@<TRIPOS>BOND
     1     9     7    1
     2    20    18    1
     3    32    30    1
     4    29    27    1
     5    27    28   ar
     6    27    26   ar
     7    28    24   ar
     8    12    11    1
     9    11     3    1
    10     7    10    1
    11     7     2    1
    12     7     8    1
    13    26    34    1
    14    26    25   ar
    15    35    34    1
    16     3     2   ar
    17     3     4   ar
    18    24    16    1
    19    24    25   ar
    20    17    16   ar
    21    17    13   ar
    22    16    15   ar
    23     2     1   ar
    24     4    13    1
    25     4     5   ar
    26    13    14   ar
    27    15    22    1
    28    15    14   ar
    29    22    23    1
    30    14    18    1
    31    25    30    1
    32     1     5   ar
    33     1     6    1
    34    18    19    1
    35    18    21    1
    36    30    31    1
    37    30    33    1
