@<TRIPOS>MOLECULE
mol_data/opt/cam/geoms/mol2/12if12if-12if12if-.out
 46 49 0 0 0
SMALL
GASTEIGER

@<TRIPOS>ATOM
      1 C           0.2743    1.6711    0.0141 C.ar    1  LIG1        0.0993
      2 C           1.6256    1.7617   -0.0598 C.ar    1  LIG1        0.0295
      3 C           1.8995    3.1661   -0.0609 C.ar    1  LIG1        0.1687
      4 C           0.6983    3.8160    0.0130 C.ar    1  LIG1        0.2114
      5 O          -0.3116    2.8950    0.0593 O.2     1  LIG1       -0.4557
      6 H          -0.3967    0.8269    0.0425 H       1  LIG1        0.1033
      7 C           2.6399    0.6690   -0.1280 C.3     1  LIG1       -0.0332
      8 H           3.3314    0.7221    0.7175 H       1  LIG1        0.0280
      9 H           3.2395    0.7471   -1.0392 H       1  LIG1        0.0280
     10 H           2.1623   -0.3128   -0.1168 H       1  LIG1        0.0280
     11 O           3.1447    3.6817   -0.1284 O.3     1  LIG1       -0.5030
     12 H           3.0779    4.6478   -0.1337 H       1  LIG1        0.2923
     13 C           0.3967    5.2169    0.0440 C.ar    1  LIG1        0.1809
     14 C          -0.7420    5.9692    0.0790 C.ar    1  LIG1        0.0407
     15 C          -0.2931    7.3275    0.0891 C.ar    1  LIG1        0.1694
     16 C           1.0724    7.3274    0.0589 C.ar    1  LIG1        0.2125
     17 O           1.5009    6.0197    0.0302 O.2     1  LIG1       -0.4444
     18 C          -2.1679    5.5212    0.1022 C.3     1  LIG1       -0.0325
     19 H          -2.2316    4.4340    0.0751 H       1  LIG1        0.0280
     20 H          -2.7242    5.9076   -0.7596 H       1  LIG1        0.0280
     21 H          -2.6816    5.8597    1.0096 H       1  LIG1        0.0280
     22 O          -1.0730    8.4347    0.1239 O.3     1  LIG1       -0.5029
     23 H          -1.9974    8.1624    0.1532 H       1  LIG1        0.2923
     24 C           2.0686    8.3556    0.0551 C.ar    1  LIG1        0.1809
     25 C           3.4388    8.3343    0.1019 C.ar    1  LIG1        0.0407
     26 C           3.8256    9.7058    0.0634 C.ar    1  LIG1        0.1694
     27 C           2.6864   10.4597    0.0013 C.ar    1  LIG1        0.2124
     28 O           1.6013    9.6297   -0.0060 O.2     1  LIG1       -0.4444
     29 C           4.3768    7.1726    0.1821 C.3     1  LIG1       -0.0325
     30 H           5.3828    7.5284    0.4111 H       1  LIG1        0.0280
     31 H           4.4324    6.6259   -0.7655 H       1  LIG1        0.0280
     32 H           4.0829    6.4687    0.9654 H       1  LIG1        0.0280
     33 O           5.1092   10.1235    0.0940 O.3     1  LIG1       -0.5029
     34 H           5.1090   11.0919    0.0705 H       1  LIG1        0.2923
     35 C           2.4957   11.8786   -0.0459 C.ar    1  LIG1        0.1799
     36 C           1.4124   12.7061   -0.0979 C.ar    1  LIG1        0.0399
     37 C           1.9636   14.0323   -0.1221 C.ar    1  LIG1        0.1581
     38 C           3.3128   13.9305   -0.0835 C.ar    1  LIG1        0.1343
     39 O           3.6548   12.5996   -0.0360 O.2     1  LIG1       -0.4557
     40 H           4.1166   14.6453   -0.0831 H       1  LIG1        0.1068
     41 C          -0.0426   12.3615   -0.1254 C.3     1  LIG1       -0.0325
     42 H          -0.1938   11.2833   -0.0682 H       1  LIG1        0.0280
     43 H          -0.5209   12.7142   -1.0470 H       1  LIG1        0.0280
     44 H          -0.5763   12.8153    0.7184 H       1  LIG1        0.0280
     45 O           1.2642   15.1941   -0.1734 O.3     1  LIG1       -0.5034
     46 H           0.3233   14.9866   -0.1992 H       1  LIG1        0.2923
@<TRIPOS>BOND
     1    43    41    1
     2     9     7    1
     3    31    29    1
     4    20    18    1
     5    46    45    1
     6    45    37    1
     7    12    11    1
     8    11     3    1
     9     7    10    1
    10     7     2    1
    11     7     8    1
    12    41    36    1
    13    41    42    1
    14    41    44    1
    15    37    36   ar
    16    37    38   ar
    17    36    35   ar
    18    38    40    1
    19    38    39   ar
    20     3     2   ar
    21     3     4   ar
    22     2     1   ar
    23    35    39   ar
    24    35    27    1
    25    28    27   ar
    26    28    24   ar
    27    27    26   ar
    28     4    13    1
    29     4     5   ar
    30     1     6    1
    31     1     5   ar
    32    17    13   ar
    33    17    16   ar
    34    13    14   ar
    35    24    16    1
    36    24    25   ar
    37    16    15   ar
    38    26    33    1
    39    26    25   ar
    40    34    33    1
    41    19    18    1
    42    14    15   ar
    43    14    18    1
    44    15    22    1
    45    25    29    1
    46    18    21    1
    47    22    23    1
    48    29    30    1
    49    29    32    1
