@<TRIPOS>MOLECULE
mol_data/opt/cam/geoms/mol2/12if12if.out
 24 25 0 0 0
SMALL
GASTEIGER

@<TRIPOS>ATOM
      1 C           0.3201    1.8534    0.6904 C.ar    1  LIG1        0.0993
      2 C           1.5312    1.8477    0.0776 C.ar    1  LIG1        0.0295
      3 C           1.7414    3.2081   -0.3101 C.ar    1  LIG1        0.1687
      4 C           0.6615    3.9318    0.1036 C.ar    1  LIG1        0.2114
      5 O          -0.2256    3.0905    0.7214 O.2     1  LIG1       -0.4557
      6 H          -0.2670    1.0668    1.1389 H       1  LIG1        0.1033
      7 C           2.4549    0.7025   -0.1734 C.3     1  LIG1       -0.0332
      8 H           3.4188    0.8553    0.3207 H       1  LIG1        0.0280
      9 H           2.6562    0.5866   -1.2421 H       1  LIG1        0.0280
     10 H           2.0293   -0.2329    0.1960 H       1  LIG1        0.0280
     11 O           2.8406    3.6239   -0.9871 O.3     1  LIG1       -0.5030
     12 H           2.6986    4.5347   -1.2766 H       1  LIG1        0.2923
     13 C           0.3563    5.3374   -0.0138 C.ar    1  LIG1        0.1798
     14 C           1.1406    6.4461    0.1445 C.ar    1  LIG1        0.0399
     15 C           0.2887    7.5506   -0.1754 C.ar    1  LIG1        0.1581
     16 C          -0.9330    7.0476   -0.4845 C.ar    1  LIG1        0.1343
     17 O          -0.9009    5.6874   -0.3976 O.2     1  LIG1       -0.4557
     18 H          -1.8754    7.4935   -0.7585 H       1  LIG1        0.1068
     19 C           2.5543    6.5448    0.6188 C.3     1  LIG1       -0.0325
     20 H           2.6306    7.2625    1.4400 H       1  LIG1        0.0280
     21 H           3.2267    6.9004   -0.1694 H       1  LIG1        0.0280
     22 H           2.9208    5.5793    0.9725 H       1  LIG1        0.0280
     23 O           0.7288    8.8347   -0.1221 O.3     1  LIG1       -0.5034
     24 H          -0.0008    9.4344   -0.3147 H       1  LIG1        0.2923
@<TRIPOS>BOND
     1    12    11    1
     2     9     7    1
     3    11     3    1
     4    18    16    1
     5    16    17   ar
     6    16    15   ar
     7    17    13   ar
     8    24    23    1
     9     3     2   ar
    10     3     4   ar
    11    15    23    1
    12    15    14   ar
    13     7     2    1
    14     7    10    1
    15     7     8    1
    16    21    19    1
    17    13     4    1
    18    13    14   ar
    19     2     1   ar
    20     4     5   ar
    21    14    19    1
    22    19    22    1
    23    19    20    1
    24     1     5   ar
    25     1     6    1
