@<TRIPOS>MOLECULE
mol_data/opt/cam/geoms/mol2/12if12if-12if-12if.out
 46 49 0 0 0
SMALL
GASTEIGER

@<TRIPOS>ATOM
      1 C           0.3486    1.7576   -0.0569 C.ar    1  LIG1        0.0993
      2 C           1.6873    1.8910   -0.2305 C.ar    1  LIG1        0.0295
      3 C           1.9208    3.3032   -0.2215 C.ar    1  LIG1        0.1687
      4 C           0.7085    3.9125   -0.0440 C.ar    1  LIG1        0.2114
      5 O          -0.2687    2.9618    0.0587 O.2     1  LIG1       -0.4557
      6 H          -0.2931    0.8925    0.0033 H       1  LIG1        0.1033
      7 C           2.7247    0.8314   -0.3979 C.3     1  LIG1       -0.0332
      8 H           3.4793    0.8934    0.3911 H       1  LIG1        0.0280
      9 H           3.2479    0.9424   -1.3518 H       1  LIG1        0.0280
     10 H           2.2791   -0.1650   -0.3669 H       1  LIG1        0.0280
     11 O           3.1407    3.8577   -0.3683 O.3     1  LIG1       -0.5030
     12 H           3.0530    4.8230   -0.3376 H       1  LIG1        0.2923
     13 C           0.3850    5.3053    0.0428 C.ar    1  LIG1        0.1809
     14 C          -0.7448    6.0498    0.2236 C.ar    1  LIG1        0.0407
     15 C          -0.2973    7.4090    0.2169 C.ar    1  LIG1        0.1694
     16 C           1.0551    7.4215    0.0252 C.ar    1  LIG1        0.2125
     17 O           1.4714    6.1144   -0.0821 O.2     1  LIG1       -0.4444
     18 C          -2.1554    5.5911    0.4076 C.3     1  LIG1       -0.0325
     19 H          -2.2120    4.5033    0.3721 H       1  LIG1        0.0280
     20 H          -2.8135    5.9817   -0.3774 H       1  LIG1        0.0280
     21 H          -2.5625    5.9104    1.3742 H       1  LIG1        0.0280
     22 O          -1.0789    8.5074    0.3827 O.3     1  LIG1       -0.5029
     23 H          -1.9898    8.2249    0.5237 H       1  LIG1        0.2923
     24 C           2.0995    8.4074   -0.0633 C.ar    1  LIG1        0.1809
     25 C           2.1509    9.7652   -0.2308 C.ar    1  LIG1        0.0407
     26 C           3.5436   10.0895   -0.2247 C.ar    1  LIG1        0.1694
     27 C           4.2470    8.9294   -0.0677 C.ar    1  LIG1        0.2124
     28 O           3.3565    7.8950    0.0326 O.2     1  LIG1       -0.4444
     29 C           1.0524   10.7610   -0.4202 C.3     1  LIG1       -0.0325
     30 H           0.0720   10.2960   -0.3311 H       1  LIG1        0.0280
     31 H           1.1134   11.2351   -1.4070 H       1  LIG1        0.0280
     32 H           1.1047   11.5568    0.3327 H       1  LIG1        0.0280
     33 O           4.0832   11.3250   -0.3586 O.3     1  LIG1       -0.5029
     34 H           3.3675   11.9660   -0.4383 H       1  LIG1        0.2923
     35 C           5.6439    8.6003    0.0027 C.ar    1  LIG1        0.1799
     36 C           6.3069    7.4293    0.2541 C.ar    1  LIG1        0.0399
     37 C           7.6918    7.7766    0.1720 C.ar    1  LIG1        0.1581
     38 C           7.7738    9.1014   -0.1112 C.ar    1  LIG1        0.1343
     39 O           6.5144    9.6173   -0.2184 O.2     1  LIG1       -0.4557
     40 H           8.5915    9.7881   -0.2561 H       1  LIG1        0.1068
     41 C           5.7742    6.0653    0.5554 C.3     1  LIG1       -0.0325
     42 H           6.4853    5.5162    1.1765 H       1  LIG1        0.0280
     43 H           5.6216    5.4755   -0.3551 H       1  LIG1        0.0280
     44 H           4.8205    6.1171    1.0820 H       1  LIG1        0.0280
     45 O           8.6754    6.8593    0.3703 O.3     1  LIG1       -0.5034
     46 H           9.5337    7.2938    0.3135 H       1  LIG1        0.2923
@<TRIPOS>BOND
     1    31    29    1
     2     9     7    1
     3    34    33    1
     4    29    30    1
     5    29    25    1
     6    29    32    1
     7     7    10    1
     8     7     2    1
     9     7     8    1
    10    20    18    1
    11    11    12    1
    12    11     3    1
    13    33    26    1
    14    43    41    1
    15    40    38    1
    16    25    26   ar
    17    25    24   ar
    18     2     3   ar
    19     2     1   ar
    20    26    27   ar
    21     3     4   ar
    22    39    38   ar
    23    39    35   ar
    24    38    37   ar
    25    17    16   ar
    26    17    13   ar
    27    27    35    1
    28    27    28   ar
    29    24    16    1
    30    24    28   ar
    31     1     6    1
    32     1     5   ar
    33     4    13    1
    34     4     5   ar
    35    35    36   ar
    36    16    15   ar
    37    13    14   ar
    38    37    36   ar
    39    37    45    1
    40    15    14   ar
    41    15    22    1
    42    14    18    1
    43    36    41    1
    44    46    45    1
    45    19    18    1
    46    22    23    1
    47    18    21    1
    48    41    44    1
    49    41    42    1
