@<TRIPOS>MOLECULE
mol_data/opt/cam/geoms/mol2/12if4ia-4hd4eh.out
 53 56 0 0 0
SMALL
GASTEIGER

@<TRIPOS>ATOM
      1 C           0.3829    1.6161   -0.5515 C.ar    1  LIG1        0.0991
      2 C           1.7210    1.6051   -0.3333 C.ar    1  LIG1        0.0294
      3 C           2.0591    2.9784   -0.1152 C.ar    1  LIG1        0.1655
      4 C           0.9142    3.7164   -0.1901 C.ar    1  LIG1        0.1765
      5 O          -0.1242    2.8699   -0.4841 O.2     1  LIG1       -0.4589
      6 H          -0.3256    0.8293   -0.7600 H       1  LIG1        0.1033
      7 C           2.6678    0.4512   -0.3346 C.3     1  LIG1       -0.0332
      8 H           3.1311    0.3163    0.6471 H       1  LIG1        0.0280
      9 H           3.4774    0.6100   -1.0526 H       1  LIG1        0.0280
     10 H           2.1558   -0.4767   -0.5976 H       1  LIG1        0.0280
     11 O           3.3408    3.3940    0.0818 O.3     1  LIG1       -0.5030
     12 H           3.3980    4.3329   -0.1331 H       1  LIG1        0.2923
     13 C           1.1193    5.9633    0.9154 C.ar    1  LIG1       -0.0391
     14 C           0.8348    7.3285    0.8845 C.ar    1  LIG1       -0.0504
     15 C           0.6311    5.1513   -0.1260 C.ar    1  LIG1        0.0238
     16 C           0.0575    7.9108   -0.1198 C.ar    1  LIG1       -0.0158
     17 H           1.1952    7.9521    1.6969 H       1  LIG1        0.0626
     18 C          -0.1643    5.7270   -1.1232 C.ar    1  LIG1       -0.0501
     19 C          -0.4508    7.0802   -1.1229 C.ar    1  LIG1       -0.0533
     20 H          -0.5507    5.0907   -1.9120 H       1  LIG1        0.0625
     21 C           1.8571    5.3872    2.0976 C.3     1  LIG1       -0.0390
     22 H           2.0147    6.1513    2.8609 H       1  LIG1        0.0278
     23 H           2.8314    4.9660    1.8373 H       1  LIG1        0.0278
     24 H           1.2836    4.5702    2.5444 H       1  LIG1        0.0278
     25 H          -1.0561    7.5059   -1.9165 H       1  LIG1        0.0624
     26 C           0.7071   10.3605    0.0534 C.ar    1  LIG1        0.0330
     27 C           0.3209   11.7053    0.0541 C.ar    1  LIG1       -0.0315
     28 C          -0.2765    9.3587   -0.1030 C.ar    1  LIG1        0.0040
     29 C          -0.9967   12.1034   -0.1070 C.ar    1  LIG1        0.0025
     30 H           1.0844   12.4653    0.1784 H       1  LIG1        0.0643
     31 C          -1.5949    9.7601   -0.2695 C.ar    1  LIG1       -0.0343
     32 C          -1.9748   11.1039   -0.2735 C.ar    1  LIG1        0.0602
     33 H          -2.3610    9.0021   -0.3902 H       1  LIG1        0.0637
     34 N           2.0393   10.0431    0.2331 N.pl3   1  LIG1       -0.3575
     35 H           2.3281    9.1278   -0.0771 H       1  LIG1        0.1423
     36 H           2.6975   10.7766    0.0190 H       1  LIG1        0.1423
     37 N          -4.4895   11.6225   -0.6149 N.1     1  LIG1       -0.1908
     38 C          -3.3604   11.4141   -0.4660 C.1     1  LIG1        0.0998
     39 C          -0.6995   14.4872   -0.9055 C.ar    1  LIG1        0.0325
     40 C          -1.0749   15.8328   -0.8072 C.ar    1  LIG1       -0.0440
     41 C          -1.3463   13.5483   -0.0749 C.ar    1  LIG1        0.0005
     42 C          -2.0561   16.2518    0.0696 C.ar    1  LIG1       -0.0399
     43 H          -0.5843   16.5553   -1.4499 H       1  LIG1        0.0630
     44 C          -2.3284   13.9813    0.8074 C.ar    1  LIG1       -0.0321
     45 C          -2.7072   15.3243    0.8902 C.ar    1  LIG1        0.0252
     46 H          -2.8158   13.2583    1.4529 H       1  LIG1        0.0642
     47 H          -2.3272   17.3019    0.1210 H       1  LIG1        0.0636
     48 C           0.2944   14.1225   -1.8693 C.1     1  LIG1       -0.0691
     49 C           1.1324   13.8692   -2.6972 C.1     1  LIG1       -0.1139
     50 H           1.8606   13.6360   -3.4389 H       1  LIG1        0.1232
     51 N          -3.6679   15.7266    1.8022 N.pl3   1  LIG1       -0.3579
     52 H          -4.1159   16.6092    1.6075 H       1  LIG1        0.1423
     53 H          -4.3209   15.0140    2.0924 H       1  LIG1        0.1423
@<TRIPOS>BOND
     1    50    49    1
     2    49    48    3
     3    25    19    1
     4    20    18    1
     5    48    39    1
     6    43    40    1
     7    18    19   ar
     8    18    15   ar
     9    19    16   ar
    10     9     7    1
    11    39    40   ar
    12    39    41   ar
    13    40    42   ar
    14     6     1    1
    15    37    38    3
    16    10     7    1
    17     1     5   ar
    18     1     2   ar
    19     5     4   ar
    20    38    32    1
    21    33    31    1
    22     7     2    1
    23     7     8    1
    24     2     3   ar
    25    32    31   ar
    26    32    29   ar
    27    31    28   ar
    28     4    15    1
    29     4     3   ar
    30    12    11    1
    31    15    13   ar
    32    16    28    1
    33    16    14   ar
    34     3    11    1
    35    29    41    1
    36    29    27   ar
    37    28    26   ar
    38    35    34    1
    39    41    44   ar
    40    36    34    1
    41    26    27   ar
    42    26    34    1
    43    27    30    1
    44    42    47    1
    45    42    45   ar
    46    44    45   ar
    47    44    46    1
    48    14    13   ar
    49    14    17    1
    50    45    51    1
    51    13    21    1
    52    52    51    1
    53    51    53    1
    54    23    21    1
    55    21    24    1
    56    21    22    1
