@<TRIPOS>MOLECULE
mol_data/opt/cam/geoms/mol2/12if12if-12if12if.out
 46 49 0 0 0
SMALL
GASTEIGER

@<TRIPOS>ATOM
      1 C           0.3422    1.7019    0.2643 C.ar    1  LIG1        0.0993
      2 C           1.6920    1.8265    0.2167 C.ar    1  LIG1        0.0295
      3 C           1.9273    3.2354    0.1324 C.ar    1  LIG1        0.1687
      4 C           0.7076    3.8536    0.1342 C.ar    1  LIG1        0.2114
      5 O          -0.2777    2.9088    0.2164 O.2     1  LIG1       -0.4557
      6 H          -0.3060    0.8422    0.3316 H       1  LIG1        0.1033
      7 C           2.7367    0.7610    0.2444 C.3     1  LIG1       -0.0332
      8 H           3.4091    0.8930    1.0967 H       1  LIG1        0.0280
      9 H           3.3526    0.7917   -0.6588 H       1  LIG1        0.0280
     10 H           2.2857   -0.2308    0.3159 H       1  LIG1        0.0280
     11 O           3.1595    3.7828    0.0704 O.3     1  LIG1       -0.5030
     12 H           3.0662    4.7464    0.0473 H       1  LIG1        0.2923
     13 C           0.3685    5.2450    0.0663 C.ar    1  LIG1        0.1809
     14 C          -0.7861    5.9713    0.1090 C.ar    1  LIG1        0.0407
     15 C          -0.3750    7.3373   -0.0089 C.ar    1  LIG1        0.1694
     16 C           0.9864    7.3666   -0.1142 C.ar    1  LIG1        0.2125
     17 O           1.4480    6.0692   -0.0664 O.2     1  LIG1       -0.4444
     18 C          -2.1958    5.4942    0.2479 C.3     1  LIG1       -0.0325
     19 H          -2.2301    4.4083    0.3286 H       1  LIG1        0.0280
     20 H          -2.8045    5.7806   -0.6177 H       1  LIG1        0.0280
     21 H          -2.6736    5.9093    1.1428 H       1  LIG1        0.0280
     22 O          -1.1808    8.4223   -0.0192 O.3     1  LIG1       -0.5029
     23 H          -2.0972    8.1305    0.0492 H       1  LIG1        0.2923
     24 C           1.9609    8.4083   -0.2600 C.ar    1  LIG1        0.1809
     25 C           3.3112    8.3831   -0.4993 C.ar    1  LIG1        0.0407
     26 C           3.6916    9.7552   -0.5376 C.ar    1  LIG1        0.1694
     27 C           2.5784   10.5141   -0.3164 C.ar    1  LIG1        0.2124
     28 O           1.5046    9.6789   -0.1476 O.2     1  LIG1       -0.4444
     29 C           4.2295    7.2235   -0.7173 C.3     1  LIG1       -0.0325
     30 H           5.1427    7.5644   -1.2089 H       1  LIG1        0.0280
     31 H           3.7709    6.4595   -1.3495 H       1  LIG1        0.0280
     32 H           4.5278    6.7526    0.2263 H       1  LIG1        0.0280
     33 O           4.9603   10.1627   -0.7881 O.3     1  LIG1       -0.5029
     34 H           4.9513   11.1150   -0.9507 H       1  LIG1        0.2923
     35 C           2.3960   11.9417   -0.2546 C.ar    1  LIG1        0.1799
     36 C           3.1660   12.9242    0.3059 C.ar    1  LIG1        0.0399
     37 C           2.5039   14.1479   -0.0276 C.ar    1  LIG1        0.1581
     38 C           1.3922   13.8307   -0.7381 C.ar    1  LIG1        0.1343
     39 O           1.3205   12.4780   -0.8920 O.2     1  LIG1       -0.4557
     40 H           0.5917   14.4104   -1.1685 H       1  LIG1        0.1068
     41 C           4.3882   12.7972    1.1564 C.3     1  LIG1       -0.0325
     42 H           4.2818   13.3959    2.0649 H       1  LIG1        0.0280
     43 H           5.2859   13.1630    0.6460 H       1  LIG1        0.0280
     44 H           4.5595   11.7591    1.4474 H       1  LIG1        0.0280
     45 O           2.9825   15.3552    0.3722 O.3     1  LIG1       -0.5034
     46 H           2.3703   16.0494    0.1034 H       1  LIG1        0.2923
@<TRIPOS>BOND
     1    31    29    1
     2    30    29    1
     3    40    38    1
     4    34    33    1
     5    39    38   ar
     6    39    35   ar
     7    33    26    1
     8    38    37   ar
     9    29    25    1
    10    29    32    1
    11     9     7    1
    12    20    18    1
    13    26    25   ar
    14    26    27   ar
    15    25    24   ar
    16    27    35    1
    17    27    28   ar
    18    24    28   ar
    19    24    16    1
    20    35    36   ar
    21    16    17   ar
    22    16    15   ar
    23    17    13   ar
    24    37    36   ar
    25    37    45    1
    26    22    15    1
    27    22    23    1
    28    15    14   ar
    29    12    11    1
    30    13    14   ar
    31    13     4    1
    32    11     3    1
    33    46    45    1
    34    14    18    1
    35     3     4   ar
    36     3     2   ar
    37     4     5   ar
    38     5     1   ar
    39     2     7    1
    40     2     1   ar
    41     7    10    1
    42     7     8    1
    43    18    19    1
    44    18    21    1
    45     1     6    1
    46    36    41    1
    47    43    41    1
    48    41    44    1
    49    41    42    1
