@<TRIPOS>MOLECULE
mol_data/opt/cam/geoms/mol2/12if12if12if-12if-.out
 46 49 0 0 0
SMALL
GASTEIGER

@<TRIPOS>ATOM
      1 C           0.8008    1.6524    0.7645 C.ar    1  LIG1        0.0993
      2 C           1.8713    1.7706   -0.0613 C.ar    1  LIG1        0.0295
      3 C           1.9017    3.1564   -0.4123 C.ar    1  LIG1        0.1687
      4 C           0.8680    3.7727    0.2325 C.ar    1  LIG1        0.2114
      5 O           0.1783    2.8376    0.9589 O.2     1  LIG1       -0.4557
      6 H           0.3706    0.8038    1.2737 H       1  LIG1        0.1033
      7 C           2.8153    0.7170   -0.5377 C.3     1  LIG1       -0.0332
      8 H           3.8403    0.9323   -0.2226 H       1  LIG1        0.0280
      9 H           2.8201    0.6586   -1.6297 H       1  LIG1        0.0280
     10 H           2.5388   -0.2638   -0.1454 H       1  LIG1        0.0280
     11 O           2.8175    3.6814   -1.2624 O.3     1  LIG1       -0.5030
     12 H           2.5577    4.5851   -1.4836 H       1  LIG1        0.2923
     13 C           0.4335    5.1458    0.2506 C.ar    1  LIG1        0.1809
     14 C           1.1338    6.3222    0.2690 C.ar    1  LIG1        0.0407
     15 C           0.1445    7.3495    0.2096 C.ar    1  LIG1        0.1694
     16 C          -1.0779    6.7361    0.1784 C.ar    1  LIG1        0.2125
     17 O          -0.9091    5.3809    0.1930 O.2     1  LIG1       -0.4444
     18 C           2.6057    6.5438    0.4013 C.3     1  LIG1       -0.0325
     19 H           2.8073    7.2694    1.1935 H       1  LIG1        0.0280
     20 H           3.0403    6.9563   -0.5156 H       1  LIG1        0.0280
     21 H           3.1279    5.6166    0.6441 H       1  LIG1        0.0280
     22 O           0.4371    8.6647    0.2193 O.3     1  LIG1       -0.5029
     23 H          -0.3919    9.1683    0.2122 H       1  LIG1        0.2923
     24 C          -2.3920    7.3035    0.1585 C.ar    1  LIG1        0.1809
     25 C          -3.6694    6.8239    0.1856 C.ar    1  LIG1        0.0407
     26 C          -4.5004    7.9885    0.1618 C.ar    1  LIG1        0.1694
     27 C          -3.7012    9.0936    0.1083 C.ar    1  LIG1        0.2124
     28 O          -2.3937    8.6642    0.1058 O.2     1  LIG1       -0.4444
     29 C          -4.1435    5.4077    0.2494 C.3     1  LIG1       -0.0325
     30 H          -3.2988    4.7198    0.2801 H       1  LIG1        0.0280
     31 H          -4.7524    5.1463   -0.6239 H       1  LIG1        0.0280
     32 H          -4.7488    5.2250    1.1452 H       1  LIG1        0.0280
     33 O          -5.8583    8.0009    0.1974 O.3     1  LIG1       -0.5029
     34 H          -6.1767    7.0941    0.2751 H       1  LIG1        0.2923
     35 C          -3.8954   10.5215    0.0783 C.ar    1  LIG1        0.1799
     36 C          -4.9402   11.3412   -0.2506 C.ar    1  LIG1        0.0399
     37 C          -4.4438   12.6703   -0.0433 C.ar    1  LIG1        0.1581
     38 C          -3.1593   12.5726    0.3753 C.ar    1  LIG1        0.1343
     39 O          -2.8135   11.2544    0.4562 O.2     1  LIG1       -0.4557
     40 H          -2.4057   13.2955    0.6355 H       1  LIG1        0.1068
     41 C          -6.3049   11.0136   -0.7653 C.3     1  LIG1       -0.0325
     42 H          -6.4903    9.9407   -0.7526 H       1  LIG1        0.0280
     43 H          -6.4379   11.3695   -1.7938 H       1  LIG1        0.0280
     44 H          -7.0833   11.4820   -0.1507 H       1  LIG1        0.0280
     45 O          -5.1250   13.8285   -0.2417 O.3     1  LIG1       -0.5034
     46 H          -6.0207   13.6151   -0.5264 H       1  LIG1        0.2923
@<TRIPOS>BOND
     1    43    41    1
     2     9     7    1
     3    12    11    1
     4    11     3    1
     5    41    42    1
     6    41    36    1
     7    41    44    1
     8    31    29    1
     9     7     8    1
    10     7    10    1
    11     7     2    1
    12    46    45    1
    13    20    18    1
    14     3     2   ar
    15     3     4   ar
    16    36    37   ar
    17    36    35   ar
    18    45    37    1
    19     2     1   ar
    20    37    38   ar
    21    35    27    1
    22    35    39   ar
    23    28    27   ar
    24    28    24   ar
    25    27    26   ar
    26    24    16    1
    27    24    25   ar
    28    26    25   ar
    29    26    33    1
    30    16    17   ar
    31    16    15   ar
    32    25    29    1
    33    17    13   ar
    34    33    34    1
    35    15    22    1
    36    15    14   ar
    37    23    22    1
    38     4    13    1
    39     4     5   ar
    40    29    30    1
    41    29    32    1
    42    13    14   ar
    43    14    18    1
    44    38    39   ar
    45    38    40    1
    46    18    21    1
    47    18    19    1
    48     1     5   ar
    49     1     6    1
