@<TRIPOS>MOLECULE
mol_data/opt/cam/geoms/mol2/12if12if12if12if-.out
 46 49 0 0 0
SMALL
GASTEIGER

@<TRIPOS>ATOM
      1 C           1.4290    2.0939    1.7873 C.ar    1  LIG1        0.0993
      2 C           2.2322    1.9137    0.7080 C.ar    1  LIG1        0.0295
      3 C           2.0493    3.0961   -0.0747 C.ar    1  LIG1        0.1687
      4 C           1.1702    3.9032    0.5878 C.ar    1  LIG1        0.2114
      5 O           0.7789    3.2783    1.7423 O.2     1  LIG1       -0.4557
      6 H           1.2222    1.4740    2.6460 H       1  LIG1        0.1033
      7 C           3.1063    0.7527    0.3671 C.3     1  LIG1       -0.0332
      8 H           4.1559    1.0530    0.3004 H       1  LIG1        0.0280
      9 H           2.8319    0.3252   -0.6015 H       1  LIG1        0.0280
     10 H           3.0257   -0.0332    1.1210 H       1  LIG1        0.0280
     11 O           2.6634    3.2942   -1.2671 O.3     1  LIG1       -0.5030
     12 H           2.2740    4.0688   -1.6933 H       1  LIG1        0.2923
     13 C           0.6380    5.2044    0.2666 C.ar    1  LIG1        0.1809
     14 C           1.2306    6.3141   -0.2742 C.ar    1  LIG1        0.0407
     15 C           0.1714    7.2571   -0.4277 C.ar    1  LIG1        0.1694
     16 C          -0.9711    6.6862    0.0544 C.ar    1  LIG1        0.2125
     17 O          -0.6905    5.4114    0.4680 O.2     1  LIG1       -0.4444
     18 C           2.6690    6.5560   -0.5998 C.3     1  LIG1       -0.0325
     19 H           3.0176    7.4774   -0.1257 H       1  LIG1        0.0280
     20 H           2.8272    6.6801   -1.6764 H       1  LIG1        0.0280
     21 H           3.2980    5.7350   -0.2515 H       1  LIG1        0.0280
     22 O           0.3566    8.4875   -0.9647 O.3     1  LIG1       -0.5029
     23 H          -0.5041    8.9067   -1.0931 H       1  LIG1        0.2923
     24 C          -2.3142    7.1901    0.1783 C.ar    1  LIG1        0.1809
     25 C          -2.7985    8.4238    0.5214 C.ar    1  LIG1        0.0407
     26 C          -4.2161    8.3169    0.3970 C.ar    1  LIG1        0.1694
     27 C          -4.4985    7.0366    0.0112 C.ar    1  LIG1        0.2124
     28 O          -3.3341    6.3402   -0.1362 O.2     1  LIG1       -0.4444
     29 C          -2.0584    9.6285    1.0050 C.3     1  LIG1       -0.0325
     30 H          -2.5110   10.0046    1.9261 H       1  LIG1        0.0280
     31 H          -2.0985   10.4499    0.2813 H       1  LIG1        0.0280
     32 H          -1.0112    9.3975    1.2084 H       1  LIG1        0.0280
     33 O          -5.0675    9.3310    0.6594 O.3     1  LIG1       -0.5029
     34 H          -5.9708    9.0036    0.5350 H       1  LIG1        0.2923
     35 C          -5.7581    6.3883   -0.2185 C.ar    1  LIG1        0.1799
     36 C          -6.1509    5.1302   -0.5678 C.ar    1  LIG1        0.0399
     37 C          -7.5852    5.1914   -0.6159 C.ar    1  LIG1        0.1581
     38 C          -7.9639    6.4523   -0.3004 C.ar    1  LIG1        0.1343
     39 O          -6.8407    7.2034   -0.0523 O.2     1  LIG1       -0.4557
     40 H          -8.9155    6.9463   -0.2135 H       1  LIG1        0.1068
     41 C          -5.3164    3.9214   -0.8454 C.3     1  LIG1       -0.0325
     42 H          -4.2569    4.1431   -0.7212 H       1  LIG1        0.0280
     43 H          -5.4622    3.5589   -1.8697 H       1  LIG1        0.0280
     44 H          -5.5629    3.0990   -0.1637 H       1  LIG1        0.0280
     45 O          -8.4262    4.1726   -0.9229 O.3     1  LIG1       -0.5034
     46 H          -7.9045    3.3821   -1.1015 H       1  LIG1        0.2923
@<TRIPOS>BOND
     1    43    41    1
     2    12    11    1
     3    20    18    1
     4    11     3    1
     5    46    45    1
     6    23    22    1
     7    22    15    1
     8    45    37    1
     9    41    42    1
    10    41    36    1
    11    41    44    1
    12    37    36   ar
    13    37    38   ar
    14     9     7    1
    15    18    14    1
    16    18    21    1
    17    18    19    1
    18    36    35   ar
    19    15    14   ar
    20    15    16   ar
    21    38    40    1
    22    38    39   ar
    23    14    13   ar
    24    35    39   ar
    25    35    27    1
    26    28    27   ar
    27    28    24   ar
    28     3     4   ar
    29     3     2   ar
    30    27    26   ar
    31    16    24    1
    32    16    17   ar
    33    24    25   ar
    34    13    17   ar
    35    13     4    1
    36    31    29    1
    37     8     7    1
    38     7     2    1
    39     7    10    1
    40    26    25   ar
    41    26    33    1
    42    25    29    1
    43    34    33    1
    44     4     5   ar
    45     2     1   ar
    46    29    32    1
    47    29    30    1
    48     5     1   ar
    49     1     6    1
