@<TRIPOS>MOLECULE
mol_data/opt/cam/geoms/mol2/12if12if-.out
 24 25 0 0 0
SMALL
GASTEIGER

@<TRIPOS>ATOM
      1 C           0.2077    1.7741    0.0677 C.ar    1  LIG1        0.0993
      2 C           1.5633    1.8064    0.0340 C.ar    1  LIG1        0.0295
      3 C           1.8953    3.1981   -0.0058 C.ar    1  LIG1        0.1687
      4 C           0.7223    3.8983    0.0067 C.ar    1  LIG1        0.2114
      5 O          -0.3266    3.0224    0.0522 O.2     1  LIG1       -0.4557
      6 H          -0.4991    0.9600    0.1035 H       1  LIG1        0.1033
      7 C           2.5312    0.6704    0.0364 C.3     1  LIG1       -0.0332
      8 H           3.2013    0.7271    0.8988 H       1  LIG1        0.0280
      9 H           3.1585    0.6869   -0.8593 H       1  LIG1        0.0280
     10 H           2.0117   -0.2894    0.0709 H       1  LIG1        0.0280
     11 O           3.1616    3.6650   -0.0472 O.3     1  LIG1       -0.5030
     12 H           3.1229    4.6326   -0.0684 H       1  LIG1        0.2923
     13 C           0.4814    5.3144   -0.0198 C.ar    1  LIG1        0.1798
     14 C          -0.6233    6.1133   -0.0113 C.ar    1  LIG1        0.0399
     15 C          -0.1108    7.4548   -0.0545 C.ar    1  LIG1        0.1581
     16 C           1.2406    7.3882   -0.0857 C.ar    1  LIG1        0.1343
     17 O           1.6191    6.0673   -0.0647 O.2     1  LIG1       -0.4557
     18 H           2.0243    8.1241   -0.1216 H       1  LIG1        0.1068
     19 C          -2.0674    5.7292    0.0325 C.3     1  LIG1       -0.0325
     20 H          -2.1784    4.6457    0.0594 H       1  LIG1        0.0280
     21 H          -2.6087    6.0954   -0.8478 H       1  LIG1        0.0280
     22 H          -2.5655    6.1349    0.9209 H       1  LIG1        0.0280
     23 O          -0.8416    8.5979   -0.0629 O.3     1  LIG1       -0.5034
     24 H          -1.7773    8.3689   -0.0354 H       1  LIG1        0.2923
@<TRIPOS>BOND
     1     9     7    1
     2    21    19    1
     3    18    16    1
     4    16    17   ar
     5    16    15   ar
     6    12    11    1
     7    17    13   ar
     8    23    15    1
     9    23    24    1
    10    15    14   ar
    11    11     3    1
    12    13    14   ar
    13    13     4    1
    14    14    19    1
    15     3     4   ar
    16     3     2   ar
    17     4     5   ar
    18    19    20    1
    19    19    22    1
    20     2     7    1
    21     2     1   ar
    22     7    10    1
    23     7     8    1
    24     5     1   ar
    25     1     6    1
