@<TRIPOS>MOLECULE
mol_data/opt/cam/geoms/mol2/12if12if12if.out
 35 37 0 0 0
SMALL
GASTEIGER

@<TRIPOS>ATOM
      1 C           0.6822    1.8666    1.2231 C.ar    1  LIG1        0.0993
      2 C           1.7221    1.8044    0.3529 C.ar    1  LIG1        0.0295
      3 C           1.7744    3.1068   -0.2346 C.ar    1  LIG1        0.1687
      4 C           0.7831    3.8582    0.3272 C.ar    1  LIG1        0.2114
      5 O           0.0995    3.0864    1.2290 O.2     1  LIG1       -0.4557
      6 H           0.2500    1.1335    1.8867 H       1  LIG1        0.1033
      7 C           2.6179    0.6534    0.0352 C.3     1  LIG1       -0.0332
      8 H           3.6598    0.8838    0.2758 H       1  LIG1        0.0280
      9 H           2.5803    0.4089   -1.0301 H       1  LIG1        0.0280
     10 H           2.3286   -0.2360    0.5989 H       1  LIG1        0.0280
     11 O           2.6704    3.4493   -1.1931 O.3     1  LIG1       -0.5030
     12 H           2.4186    4.3059   -1.5621 H       1  LIG1        0.2923
     13 C           0.3874    5.2288    0.1151 C.ar    1  LIG1        0.1809
     14 C           1.1319    6.3636   -0.0672 C.ar    1  LIG1        0.0407
     15 C           0.1746    7.3930   -0.3105 C.ar    1  LIG1        0.1694
     16 C          -1.0686    6.8374   -0.2285 C.ar    1  LIG1        0.2124
     17 O          -0.9416    5.4972    0.0188 O.2     1  LIG1       -0.4444
     18 C           2.6128    6.5465    0.0154 C.3     1  LIG1       -0.0325
     19 H           2.8586    7.3632    0.6994 H       1  LIG1        0.0280
     20 H           3.0462    6.8113   -0.9550 H       1  LIG1        0.0280
     21 H           3.1036    5.6406    0.3755 H       1  LIG1        0.0280
     22 O           0.5230    8.6783   -0.5645 O.3     1  LIG1       -0.5029
     23 H          -0.2696    9.1706   -0.8152 H       1  LIG1        0.2923
     24 C          -2.3811    7.4236   -0.3491 C.ar    1  LIG1        0.1799
     25 C          -2.8886    8.6037    0.1200 C.ar    1  LIG1        0.0399
     26 C          -4.2262    8.6577   -0.3853 C.ar    1  LIG1        0.1581
     27 C          -4.4388    7.5230   -1.0987 C.ar    1  LIG1        0.1343
     28 O          -3.3091    6.7611   -1.0910 O.2     1  LIG1       -0.4557
     29 H          -5.2880    7.1248   -1.6302 H       1  LIG1        0.1068
     30 C          -2.2593    9.6106    1.0273 C.3     1  LIG1       -0.0325
     31 H          -2.9264    9.8367    1.8634 H       1  LIG1        0.0280
     32 H          -2.0681   10.5605    0.5162 H       1  LIG1        0.0280
     33 H          -1.3152    9.2424    1.4330 H       1  LIG1        0.0280
     34 O          -5.0533    9.7004   -0.1143 O.3     1  LIG1       -0.5034
     35 H          -5.9252    9.5269   -0.4867 H       1  LIG1        0.2923
@<TRIPOS>BOND
     1    29    27    1
     2    12    11    1
     3    11     3    1
     4    27    28   ar
     5    27    26   ar
     6    28    24   ar
     7     9     7    1
     8    20    18    1
     9    23    22    1
    10    22    15    1
    11    35    34    1
    12    26    34    1
    13    26    25   ar
    14    24    16    1
    15    24    25   ar
    16    15    16   ar
    17    15    14   ar
    18     3     4   ar
    19     3     2   ar
    20    16    17   ar
    21    14    18    1
    22    14    13   ar
    23    18    21    1
    24    18    19    1
    25    17    13   ar
    26     7     8    1
    27     7     2    1
    28     7    10    1
    29    13     4    1
    30    25    30    1
    31     4     5   ar
    32     2     1   ar
    33    32    30    1
    34    30    33    1
    35    30    31    1
    36     1     5   ar
    37     1     6    1
