@<TRIPOS>MOLECULE
mol_data/opt/cam/geoms/mol2/12if12if12if-12if.out
 46 49 0 0 0
SMALL
GASTEIGER

@<TRIPOS>ATOM
      1 C           0.7448    1.7224    0.9099 C.ar    1  LIG1        0.0993
      2 C           1.8236    1.7925    0.0893 C.ar    1  LIG1        0.0295
      3 C           1.8673    3.1593   -0.3285 C.ar    1  LIG1        0.1687
      4 C           0.8326    3.8136    0.2758 C.ar    1  LIG1        0.2114
      5 O           0.1295    2.9199    1.0405 O.2     1  LIG1       -0.4557
      6 H           0.3035    0.9027    1.4557 H       1  LIG1        0.1033
      7 C           2.7638    0.7103   -0.3262 C.3     1  LIG1       -0.0332
      8 H           3.7874    0.9328   -0.0117 H       1  LIG1        0.0280
      9 H           2.7786    0.5992   -1.4141 H       1  LIG1        0.0280
     10 H           2.4757   -0.2484    0.1100 H       1  LIG1        0.0280
     11 O           2.7951    3.6364   -1.1939 O.3     1  LIG1       -0.5030
     12 H           2.5406    4.5280   -1.4652 H       1  LIG1        0.2923
     13 C           0.4084    5.1891    0.2223 C.ar    1  LIG1        0.1809
     14 C           1.1166    6.3603    0.1959 C.ar    1  LIG1        0.0407
     15 C           0.1355    7.3889    0.0705 C.ar    1  LIG1        0.1694
     16 C          -1.0915    6.7851    0.0510 C.ar    1  LIG1        0.2125
     17 O          -0.9313    5.4312    0.1323 O.2     1  LIG1       -0.4444
     18 C           2.5880    6.5786    0.3387 C.3     1  LIG1       -0.0325
     19 H           2.7862    7.3208    1.1164 H       1  LIG1        0.0280
     20 H           3.0328    6.9679   -0.5833 H       1  LIG1        0.0280
     21 H           3.1035    5.6549    0.6076 H       1  LIG1        0.0280
     22 O           0.4389    8.7027    0.0123 O.3     1  LIG1       -0.5029
     23 H          -0.3858    9.2044   -0.0689 H       1  LIG1        0.2923
     24 C          -2.4058    7.3499   -0.0226 C.ar    1  LIG1        0.1809
     25 C          -3.6769    6.8567   -0.0795 C.ar    1  LIG1        0.0407
     26 C          -4.5231    8.0094   -0.1454 C.ar    1  LIG1        0.1694
     27 C          -3.7328    9.1224   -0.1286 C.ar    1  LIG1        0.2124
     28 O          -2.4194    8.7150   -0.0538 O.2     1  LIG1       -0.4444
     29 C          -4.1379    5.4348   -0.0729 C.3     1  LIG1       -0.0325
     30 H          -3.2904    4.7522   -0.0191 H       1  LIG1        0.0280
     31 H          -4.7038    5.1931   -0.9800 H       1  LIG1        0.0280
     32 H          -4.7838    5.2266    0.7880 H       1  LIG1        0.0280
     33 O          -5.8747    8.0136   -0.2093 O.3     1  LIG1       -0.5029
     34 H          -6.1892    7.1026   -0.1829 H       1  LIG1        0.2923
     35 C          -3.9843   10.5358   -0.1657 C.ar    1  LIG1        0.1799
     36 C          -3.1805   11.6250    0.0372 C.ar    1  LIG1        0.0399
     37 C          -4.0427   12.7498   -0.1525 C.ar    1  LIG1        0.1581
     38 C          -5.2821   12.2795   -0.4434 C.ar    1  LIG1        0.1343
     39 O          -5.2535   10.9145   -0.4556 O.2     1  LIG1       -0.4557
     40 H          -6.2316   12.7449   -0.6505 H       1  LIG1        0.1068
     41 C          -1.7305   11.6990    0.3941 C.3     1  LIG1       -0.0325
     42 H          -1.5101   12.6657    0.8512 H       1  LIG1        0.0280
     43 H          -1.0854   11.6066   -0.4872 H       1  LIG1        0.0280
     44 H          -1.4507   10.9178    1.1047 H       1  LIG1        0.0280
     45 O          -3.5939   14.0263   -0.0276 O.3     1  LIG1       -0.5034
     46 H          -4.3298   14.6381   -0.1410 H       1  LIG1        0.2923
@<TRIPOS>BOND
     1    12    11    1
     2     9     7    1
     3    11     3    1
     4    31    29    1
     5    40    38    1
     6    20    18    1
     7    43    41    1
     8    39    38   ar
     9    39    35   ar
    10    38    37   ar
    11     3     2   ar
    12     3     4   ar
    13     7     8    1
    14     7     2    1
    15     7    10    1
    16    33    34    1
    17    33    26    1
    18    35    27    1
    19    35    36   ar
    20    37    45    1
    21    37    36   ar
    22    26    27   ar
    23    26    25   ar
    24    46    45    1
    25    27    28   ar
    26    25    29    1
    27    25    24   ar
    28    29    30    1
    29    29    32    1
    30    23    22    1
    31    28    24   ar
    32    24    16    1
    33    22    15    1
    34    36    41    1
    35    16    15   ar
    36    16    17   ar
    37    15    14   ar
    38     2     1   ar
    39    17    13   ar
    40    14    13   ar
    41    14    18    1
    42    13     4    1
    43     4     5   ar
    44    18    21    1
    45    18    19    1
    46    41    42    1
    47    41    44    1
    48     1     5   ar
    49     1     6    1
