@<TRIPOS>MOLECULE
mol_data/opt/cam/geoms/mol2/12if6el-12il4fl.out
 57 60 0 0 0
SMALL
GASTEIGER

@<TRIPOS>ATOM
      1 C           0.9589    1.6673    1.5430 C.ar    1  LIG1        0.0991
      2 C           1.6206    1.5544    0.3629 C.ar    1  LIG1        0.0294
      3 C           1.5662    2.8655   -0.2010 C.ar    1  LIG1        0.1656
      4 C           0.8858    3.6719    0.6685 C.ar    1  LIG1        0.1790
      5 O           0.5044    2.9232    1.7457 O.2     1  LIG1       -0.4588
      6 H           0.7362    0.9534    2.3208 H       1  LIG1        0.1033
      7 C           2.2610    0.3524   -0.2481 C.3     1  LIG1       -0.0332
      8 H           3.3385    0.4950   -0.3705 H       1  LIG1        0.0280
      9 H           1.8484    0.1503   -1.2405 H       1  LIG1        0.0280
     10 H           2.1051   -0.5327    0.3721 H       1  LIG1        0.0280
     11 O           2.1107    3.1726   -1.4097 O.3     1  LIG1       -0.5030
     12 H           1.6927    3.9759   -1.7450 H       1  LIG1        0.2923
     13 C          -0.6313    5.6577    1.0741 C.ar    1  LIG1        0.1249
     14 C           0.5694    5.0913    0.6080 C.ar    1  LIG1        0.0582
     15 C           1.4984    5.9582    0.0190 C.ar    1  LIG1       -0.0043
     16 C           1.2243    7.3124   -0.0835 C.ar    1  LIG1        0.1497
     17 C           0.0147    7.7974    0.4598 C.ar    1  LIG1        0.1492
     18 N          -0.8705    6.9711    1.0048 N.ar    1  LIG1       -0.2309
     19 H           2.4410    5.5566   -0.3315 H       1  LIG1        0.0663
     20 C          -1.6843    4.8576    1.6348 C.1     1  LIG1       -0.0491
     21 C          -2.5888    4.2076    2.0880 C.1     1  LIG1       -0.1124
     22 H          -3.3880    3.6331    2.4956 H       1  LIG1        0.1232
     23 O           2.0393    8.2098   -0.6833 O.3     1  LIG1       -0.4928
     24 C           3.2525    7.7493   -1.2421 C.3     1  LIG1        0.0789
     25 H           3.7346    8.6234   -1.6780 H       1  LIG1        0.0660
     26 H           3.9098    7.3172   -0.4793 H       1  LIG1        0.0660
     27 H           3.0760    7.0061   -2.0283 H       1  LIG1        0.0660
     28 C          -0.3463    9.2178    0.4190 C.ar    1  LIG1        0.1640
     29 C           0.3339   10.3851    0.6176 C.ar    1  LIG1        0.0393
     30 C          -0.6480   11.4185    0.4973 C.ar    1  LIG1        0.1693
     31 C          -1.8589   10.8221    0.2578 C.ar    1  LIG1        0.1810
     32 O          -1.6625    9.4742    0.1980 O.2     1  LIG1       -0.4490
     33 C           1.7690   10.6331    0.9482 C.3     1  LIG1       -0.0325
     34 H           1.8555   11.5584    1.5209 H       1  LIG1        0.0280
     35 H           2.3759   10.7395    0.0447 H       1  LIG1        0.0280
     36 H           2.1942    9.8163    1.5338 H       1  LIG1        0.0280
     37 O          -0.3107   12.7276    0.6233 O.3     1  LIG1       -0.4910
     38 C          -0.6961   13.5762   -0.4443 C.3     1  LIG1        0.0790
     39 H          -0.2062   14.5351   -0.2678 H       1  LIG1        0.0660
     40 H          -0.3631   13.1711   -1.4069 H       1  LIG1        0.0660
     41 H          -1.7776   13.7293   -0.4694 H       1  LIG1        0.0660
     42 C          -3.7961   12.3640    0.6836 C.ar    1  LIG1        0.1278
     43 C          -5.1150   12.7150    0.4434 C.ar    1  LIG1       -0.0160
     44 C          -3.2342   11.2589    0.0204 C.ar    1  LIG1        0.0657
     45 C          -5.9125   11.9777   -0.4289 C.ar    1  LIG1       -0.0165
     46 H          -5.5402   13.5723    0.9593 H       1  LIG1        0.0655
     47 C          -4.0429   10.5230   -0.8416 C.ar    1  LIG1       -0.0057
     48 C          -5.3716   10.8700   -1.0717 C.ar    1  LIG1        0.1210
     49 H          -3.6392    9.6531   -1.3448 H       1  LIG1        0.0662
     50 H          -6.9403   12.2775   -0.5873 H       1  LIG1        0.0655
     51 O          -3.0073   13.0514    1.5595 O.3     1  LIG1       -0.5061
     52 H          -3.5348   13.7301    1.9958 H       1  LIG1        0.2922
     53 O          -6.0508   10.0704   -1.9438 O.3     1  LIG1       -0.4951
     54 C          -7.4048   10.3684   -2.1894 C.3     1  LIG1        0.0788
     55 H          -7.7618    9.6154   -2.8920 H       1  LIG1        0.0660
     56 H          -8.0051   10.3157   -1.2727 H       1  LIG1        0.0660
     57 H          -7.5284   11.3623   -2.6374 H       1  LIG1        0.0660
@<TRIPOS>BOND
     1    55    54    1
     2    57    54    1
     3    54    53    1
     4    54    56    1
     5    27    24    1
     6    53    48    1
     7    12    11    1
     8    25    24    1
     9    11     3    1
    10    40    38    1
    11    49    47    1
    12    24    23    1
    13    24    26    1
    14     9     7    1
    15    48    47   ar
    16    48    45   ar
    17    47    44   ar
    18    23    16    1
    19    50    45    1
    20    41    38    1
    21    38    39    1
    22    38    37    1
    23    45    43   ar
    24     8     7    1
    25    19    15    1
    26     7     2    1
    27     7    10    1
    28     3     2   ar
    29     3     4   ar
    30    16    15   ar
    31    16    17   ar
    32    15    14   ar
    33    44    31    1
    34    44    42   ar
    35    35    33    1
    36    32    31   ar
    37    32    28   ar
    38    31    30   ar
    39     2     1   ar
    40    28    17    1
    41    28    29   ar
    42    43    42   ar
    43    43    46    1
    44    17    18   ar
    45    30    29   ar
    46    30    37    1
    47    14     4    1
    48    14    13   ar
    49    29    33    1
    50     4     5   ar
    51    42    51    1
    52    33    34    1
    53    33    36    1
    54    18    13   ar
    55    13    20    1
    56     1     5   ar
    57     1     6    1
    58    51    52    1
    59    20    21    3
    60    21    22    1
