@<TRIPOS>MOLECULE
mol_data/opt/cam/geoms/mol2/12ig12ig12ig-.out
 35 37 0 0 0
SMALL
GASTEIGER

@<TRIPOS>ATOM
      1 C           0.6041    1.9847    1.3395 C.ar    1  LIG1        0.0967
      2 C           1.6212    1.8121    0.4600 C.ar    1  LIG1        0.0012
      3 C           1.7607    3.0812   -0.1996 C.ar    1  LIG1        0.0566
      4 C           0.8293    3.9172    0.3461 C.ar    1  LIG1        0.1833
      5 O           0.1088    3.2416    1.2886 O.2     1  LIG1       -0.4584
      6 H           0.1327    1.3171    2.0440 H       1  LIG1        0.1032
      7 C           2.4174    0.5756    0.2013 C.3     1  LIG1       -0.0357
      8 H           3.4760    0.7242    0.4358 H       1  LIG1        0.0279
      9 H           2.3551    0.2806   -0.8505 H       1  LIG1        0.0279
     10 H           2.0544   -0.2567    0.8077 H       1  LIG1        0.0279
     11 S           2.9093    3.3779   -1.5037 S.3     1  LIG1       -0.1386
     12 H           2.3243    4.4990   -1.9587 H       1  LIG1        0.1072
     13 C           0.4801    5.2997    0.0981 C.ar    1  LIG1        0.1758
     14 C           1.2328    6.4367    0.0217 C.ar    1  LIG1        0.0123
     15 C           0.3054    7.4858   -0.2862 C.ar    1  LIG1        0.0573
     16 C          -0.9355    6.9189   -0.3381 C.ar    1  LIG1        0.1843
     17 O          -0.8347    5.5782   -0.1163 O.2     1  LIG1       -0.4472
     18 C           2.7007    6.5894    0.2491 C.3     1  LIG1       -0.0349
     19 H           2.8967    7.3546    1.0064 H       1  LIG1        0.0279
     20 H           3.2203    6.8971   -0.6640 H       1  LIG1        0.0279
     21 H           3.1430    5.6525    0.5895 H       1  LIG1        0.0279
     22 S           0.7884    9.1590   -0.5600 S.3     1  LIG1       -0.1386
     23 H          -0.3838    9.5588   -1.0816 H       1  LIG1        0.1072
     24 C          -2.2539    7.4620   -0.5867 C.ar    1  LIG1        0.1748
     25 C          -2.9408    8.5083   -0.0446 C.ar    1  LIG1        0.0116
     26 C          -4.2020    8.5341   -0.7374 C.ar    1  LIG1        0.0462
     27 C          -4.1760    7.5073   -1.6248 C.ar    1  LIG1        0.1061
     28 O          -3.0049    6.8486   -1.5560 O.2     1  LIG1       -0.4584
     29 H          -4.8961    7.1477   -2.3429 H       1  LIG1        0.1041
     30 C          -2.5190    9.4057    1.0707 C.3     1  LIG1       -0.0350
     31 H          -3.2529    9.3846    1.8814 H       1  LIG1        0.0279
     32 H          -2.4418   10.4453    0.7385 H       1  LIG1        0.0279
     33 H          -1.5533    9.1021    1.4765 H       1  LIG1        0.0279
     34 S          -5.5105    9.7098   -0.5652 S.3     1  LIG1       -0.1393
     35 H          -5.9962    9.2748    0.6127 H       1  LIG1        0.1072
@<TRIPOS>BOND
     1    29    27    1
     2    12    11    1
     3    27    28   ar
     4    27    26   ar
     5    28    24   ar
     6    11     3    1
     7    23    22    1
     8     9     7    1
     9    26    34    1
    10    26    25   ar
    11    20    18    1
    12    24    16    1
    13    24    25   ar
    14    34    35    1
    15    22    15    1
    16    16    15   ar
    17    16    17   ar
    18    15    14   ar
    19     3     4   ar
    20     3     2   ar
    21    17    13   ar
    22    25    30    1
    23    14    13   ar
    24    14    18    1
    25    13     4    1
    26     7     8    1
    27     7     2    1
    28     7    10    1
    29    18    21    1
    30    18    19    1
    31     4     5   ar
    32     2     1   ar
    33    32    30    1
    34    30    33    1
    35    30    31    1
    36     5     1   ar
    37     1     6    1
