@<TRIPOS>MOLECULE
mol_data/opt/cam/geoms/mol2/12ig12ig-.out
 24 25 0 0 0
SMALL
GASTEIGER

@<TRIPOS>ATOM
      1 C           0.3372    1.8873    0.7428 C.ar    1  LIG1        0.0967
      2 C           1.5552    1.8328    0.1501 C.ar    1  LIG1        0.0012
      3 C           1.7940    3.1661   -0.3300 C.ar    1  LIG1        0.0566
      4 C           0.7108    3.9171    0.0249 C.ar    1  LIG1        0.1833
      5 O          -0.1927    3.1298    0.6799 O.2     1  LIG1       -0.4584
      6 H          -0.2652    1.1385    1.2334 H       1  LIG1        0.1032
      7 C           2.4557    0.6512   -0.0013 C.3     1  LIG1       -0.0357
      8 H           3.4096    0.8063    0.5123 H       1  LIG1        0.0279
      9 H           2.6806    0.4597   -1.0549 H       1  LIG1        0.0279
     10 H           1.9946   -0.2472    0.4140 H       1  LIG1        0.0279
     11 S           3.2267    3.6282   -1.2474 S.3     1  LIG1       -0.1386
     12 H           2.7349    4.7938   -1.7011 H       1  LIG1        0.1072
     13 C           0.3701    5.3096   -0.1757 C.ar    1  LIG1        0.1747
     14 C           1.0411    6.4708    0.0721 C.ar    1  LIG1        0.0116
     15 C           0.1623    7.5203   -0.3730 C.ar    1  LIG1        0.0462
     16 C          -0.9584    6.9132   -0.8395 C.ar    1  LIG1        0.1061
     17 O          -0.8525    5.5756   -0.7369 O.2     1  LIG1       -0.4584
     18 H          -1.8737    7.2988   -1.2605 H       1  LIG1        0.1041
     19 C           2.3748    6.6399    0.7202 C.3     1  LIG1       -0.0350
     20 H           2.3000    7.2933    1.5942 H       1  LIG1        0.0279
     21 H           3.0942    7.1022    0.0378 H       1  LIG1        0.0279
     22 H           2.7780    5.6797    1.0442 H       1  LIG1        0.0279
     23 S           0.4802    9.2587   -0.4121 S.3     1  LIG1       -0.1393
     24 H           0.3483    9.5010    0.9056 H       1  LIG1        0.1072
@<TRIPOS>BOND
     1    12    11    1
     2    18    16    1
     3    11     3    1
     4     9     7    1
     5    16    17   ar
     6    16    15   ar
     7    17    13   ar
     8    23    15    1
     9    23    24    1
    10    15    14   ar
    11     3     4   ar
    12     3     2   ar
    13    13     4    1
    14    13    14   ar
    15     7     2    1
    16     7    10    1
    17     7     8    1
    18     4     5   ar
    19    21    19    1
    20    14    19    1
    21     2     1   ar
    22     5     1   ar
    23    19    22    1
    24    19    20    1
    25     1     6    1
