@<TRIPOS>MOLECULE
mol_data/opt/cam/geoms/mol2/12ig12ig-12ig12ig-.out
 46 49 0 0 0
SMALL
GASTEIGER

@<TRIPOS>ATOM
      1 C           1.1747    2.3562    2.2059 C.ar    1  LIG1        0.0967
      2 C           1.9124    1.9473    1.1445 C.ar    1  LIG1        0.0012
      3 C           1.8189    3.0197    0.1926 C.ar    1  LIG1        0.0566
      4 C           1.0479    3.9914    0.7631 C.ar    1  LIG1        0.1833
      5 O           0.6415    3.5814    2.0002 O.2     1  LIG1       -0.4584
      6 H           0.9413    1.8895    3.1504 H       1  LIG1        0.1032
      7 C           2.6477    0.6589    0.9734 C.3     1  LIG1       -0.0357
      8 H           3.7241    0.8234    0.8629 H       1  LIG1        0.0279
      9 H           2.3063    0.1269    0.0803 H       1  LIG1        0.0279
     10 H           2.4963    0.0054    1.8349 H       1  LIG1        0.0279
     11 S           2.5484    2.9626   -1.4114 S.3     1  LIG1       -0.1386
     12 H           1.8138    3.9565   -1.9394 H       1  LIG1        0.1072
     13 C           0.5967    5.2877    0.3039 C.ar    1  LIG1        0.1758
     14 C           1.2598    6.3491   -0.2430 C.ar    1  LIG1        0.0123
     15 C           0.2489    7.3276   -0.5179 C.ar    1  LIG1        0.0573
     16 C          -0.9377    6.8060   -0.0879 C.ar    1  LIG1        0.1843
     17 O          -0.7345    5.5518    0.4032 O.2     1  LIG1       -0.4472
     18 C           2.7269    6.5005   -0.4762 C.3     1  LIG1       -0.0349
     19 H           3.1011    7.4142   -0.0044 H       1  LIG1        0.0279
     20 H           2.9602    6.5684   -1.5436 H       1  LIG1        0.0279
     21 H           3.2775    5.6545   -0.0636 H       1  LIG1        0.0279
     22 S           0.5804    8.8697   -1.3049 S.3     1  LIG1       -0.1386
     23 H          -0.7001    9.1595   -1.5913 H       1  LIG1        0.1072
     24 C          -2.2921    7.3162   -0.0847 C.ar    1  LIG1        0.1758
     25 C          -2.8278    8.4954    0.3487 C.ar    1  LIG1        0.0123
     26 C          -4.2259    8.4113    0.0432 C.ar    1  LIG1        0.0573
     27 C          -4.4390    7.1841   -0.5161 C.ar    1  LIG1        0.1843
     28 O          -3.2574    6.5126   -0.6085 O.2     1  LIG1       -0.4472
     29 C          -2.1383    9.6264    1.0381 C.3     1  LIG1       -0.0349
     30 H          -2.6283    9.8542    1.9896 H       1  LIG1        0.0279
     31 H          -2.1621   10.5399    0.4352 H       1  LIG1        0.0279
     32 H          -1.0952    9.3833    1.2430 H       1  LIG1        0.0279
     33 S          -5.3659    9.7217    0.3446 S.3     1  LIG1       -0.1386
     34 H          -6.3665    9.2073   -0.3904 H       1  LIG1        0.1072
     35 C          -5.6280    6.5234   -1.0110 C.ar    1  LIG1        0.1748
     36 C          -6.8565    6.2965   -0.4636 C.ar    1  LIG1        0.0116
     37 C          -7.6002    5.5967   -1.4776 C.ar    1  LIG1        0.0462
     38 C          -6.7658    5.4533   -2.5386 C.ar    1  LIG1        0.1061
     39 O          -5.5692    6.0117   -2.2816 O.2     1  LIG1       -0.4584
     40 H          -6.8917    4.9939   -3.5064 H       1  LIG1        0.1041
     41 C          -7.3280    6.6353    0.9112 C.3     1  LIG1       -0.0350
     42 H          -7.6658    5.7367    1.4353 H       1  LIG1        0.0279
     43 H          -8.1769    7.3248    0.8820 H       1  LIG1        0.0279
     44 H          -6.5322    7.0938    1.4993 H       1  LIG1        0.0279
     45 S          -9.2939    5.0935   -1.4267 S.3     1  LIG1       -0.1393
     46 H          -9.1485    4.0386   -0.6031 H       1  LIG1        0.1072
@<TRIPOS>BOND
     1    40    38    1
     2    38    39   ar
     3    38    37   ar
     4    39    35   ar
     5    12    11    1
     6    23    22    1
     7    20    18    1
     8    37    45    1
     9    37    36   ar
    10    45    46    1
    11    11     3    1
    12    22    15    1
    13    35    27    1
    14    35    36   ar
    15    28    27   ar
    16    28    24   ar
    17    15    14   ar
    18    15    16   ar
    19    27    26   ar
    20    18    14    1
    21    18    21    1
    22    18    19    1
    23    36    41    1
    24    34    33    1
    25    14    13   ar
    26    16    24    1
    27    16    17   ar
    28    24    25   ar
    29    26    33    1
    30    26    25   ar
    31     9     7    1
    32     3     4   ar
    33     3     2   ar
    34    13    17   ar
    35    13     4    1
    36    25    29    1
    37    31    29    1
    38     4     5   ar
    39     8     7    1
    40    43    41    1
    41    41    42    1
    42    41    44    1
    43     7     2    1
    44     7    10    1
    45    29    32    1
    46    29    30    1
    47     2     1   ar
    48     5     1   ar
    49     1     6    1
