@<TRIPOS>MOLECULE
mol_data/opt/cam/geoms/mol2/12ig12ig12ig.out
 35 37 0 0 0
SMALL
GASTEIGER

@<TRIPOS>ATOM
      1 C           0.6074    1.9887    1.3463 C.ar    1  LIG1        0.0967
      2 C           1.6233    1.8140    0.4657 C.ar    1  LIG1        0.0012
      3 C           1.7611    3.0812   -0.1978 C.ar    1  LIG1        0.0566
      4 C           0.8302    3.9184    0.3469 C.ar    1  LIG1        0.1833
      5 O           0.1115    3.2452    1.2925 O.2     1  LIG1       -0.4584
      6 H           0.1375    1.3228    2.0535 H       1  LIG1        0.1032
      7 C           2.4197    0.5771    0.2093 C.3     1  LIG1       -0.0357
      8 H           3.4786    0.7269    0.4419 H       1  LIG1        0.0279
      9 H           2.3560    0.2791   -0.8415 H       1  LIG1        0.0279
     10 H           2.0579   -0.2536    0.8187 H       1  LIG1        0.0279
     11 S           2.9076    3.3746   -1.5045 S.3     1  LIG1       -0.1386
     12 H           2.3221    4.4949   -1.9611 H       1  LIG1        0.1072
     13 C           0.4802    5.3001    0.0955 C.ar    1  LIG1        0.1758
     14 C           1.2325    6.4370    0.0152 C.ar    1  LIG1        0.0123
     15 C           0.3045    7.4851   -0.2947 C.ar    1  LIG1        0.0573
     16 C          -0.9363    6.9176   -0.3438 C.ar    1  LIG1        0.1843
     17 O          -0.8349    5.5776   -0.1185 O.2     1  LIG1       -0.4472
     18 C           2.7006    6.5907    0.2405 C.3     1  LIG1       -0.0349
     19 H           2.8974    7.3585    0.9948 H       1  LIG1        0.0279
     20 H           3.2193    6.8951   -0.6743 H       1  LIG1        0.0279
     21 H           3.1433    5.6549    0.5836 H       1  LIG1        0.0279
     22 S           0.7869    9.1576   -0.5737 S.3     1  LIG1       -0.1386
     23 H          -0.3854    9.5554   -1.0966 H       1  LIG1        0.1072
     24 C          -2.2551    7.4595   -0.5926 C.ar    1  LIG1        0.1748
     25 C          -2.9416    8.5077   -0.0535 C.ar    1  LIG1        0.0116
     26 C          -4.2037    8.5306   -0.7447 C.ar    1  LIG1        0.0462
     27 C          -4.1786    7.5004   -1.6282 C.ar    1  LIG1        0.1061
     28 O          -3.0072    6.8423   -1.5586 O.2     1  LIG1       -0.4584
     29 H          -4.8997    7.1379   -2.3438 H       1  LIG1        0.1041
     30 C          -2.5188    9.4094    1.0580 C.3     1  LIG1       -0.0350
     31 H          -3.2519    9.3913    1.8694 H       1  LIG1        0.0279
     32 H          -2.4420   10.4477    0.7217 H       1  LIG1        0.0279
     33 H          -1.5527    9.1075    1.4641 H       1  LIG1        0.0279
     34 S          -5.5123    9.7065   -0.5754 S.3     1  LIG1       -0.1393
     35 H          -5.9959    9.2765    0.6051 H       1  LIG1        0.1072
@<TRIPOS>BOND
     1    29    27    1
     2    12    11    1
     3    27    28   ar
     4    27    26   ar
     5    28    24   ar
     6    11     3    1
     7    23    22    1
     8     9     7    1
     9    26    34    1
    10    26    25   ar
    11    20    18    1
    12    24    16    1
    13    24    25   ar
    14    34    35    1
    15    22    15    1
    16    16    15   ar
    17    16    17   ar
    18    15    14   ar
    19     3     4   ar
    20     3     2   ar
    21    17    13   ar
    22    25    30    1
    23    14    13   ar
    24    14    18    1
    25    13     4    1
    26     7     8    1
    27     7     2    1
    28     7    10    1
    29    18    21    1
    30    18    19    1
    31     4     5   ar
    32     2     1   ar
    33    32    30    1
    34    30    33    1
    35    30    31    1
    36     5     1   ar
    37     1     6    1
