@<TRIPOS>MOLECULE
mol_data/opt/cam/geoms/mol2/12ig12ig12ig-12ig.out
 46 49 0 0 0
SMALL
GASTEIGER

@<TRIPOS>ATOM
      1 C           1.1043    2.3464    2.2504 C.ar    1  LIG1        0.0967
      2 C           1.8772    1.9445    1.2116 C.ar    1  LIG1        0.0012
      3 C           1.8140    3.0224    0.2634 C.ar    1  LIG1        0.0566
      4 C           1.0234    3.9899    0.8137 C.ar    1  LIG1        0.1833
      5 O           0.5768    3.5723    2.0343 O.2     1  LIG1       -0.4584
      6 H           0.8402    1.8741    3.1839 H       1  LIG1        0.1032
      7 C           2.6192    0.6578    1.0574 C.3     1  LIG1       -0.0357
      8 H           3.6984    0.8239    0.9836 H       1  LIG1        0.0279
      9 H           2.3080    0.1306    0.1506 H       1  LIG1        0.0279
     10 H           2.4401   -0.0008    1.9097 H       1  LIG1        0.0279
     11 S           2.5962    2.9753   -1.3159 S.3     1  LIG1       -0.1386
     12 H           1.8783    3.9715   -1.8622 H       1  LIG1        0.1072
     13 C           0.5862    5.2885    0.3474 C.ar    1  LIG1        0.1758
     14 C           1.2658    6.3537   -0.1711 C.ar    1  LIG1        0.0123
     15 C           0.2634    7.3328   -0.4737 C.ar    1  LIG1        0.0573
     16 C          -0.9361    6.8075   -0.0863 C.ar    1  LIG1        0.1843
     17 O          -0.7479    5.5507    0.4041 O.2     1  LIG1       -0.4472
     18 C           2.7397    6.5079   -0.3548 C.3     1  LIG1       -0.0349
     19 H           3.0971    7.4189    0.1348 H       1  LIG1        0.0279
     20 H           3.0080    6.5827   -1.4134 H       1  LIG1        0.0279
     21 H           3.2773    5.6598    0.0705 H       1  LIG1        0.0279
     22 S           0.6191    8.8798   -1.2404 S.3     1  LIG1       -0.1386
     23 H          -0.6516    9.1699   -1.5676 H       1  LIG1        0.1072
     24 C          -2.2905    7.3164   -0.1249 C.ar    1  LIG1        0.1758
     25 C          -2.8416    8.4925    0.2972 C.ar    1  LIG1        0.0123
     26 C          -4.2288    8.4089   -0.0548 C.ar    1  LIG1        0.0573
     27 C          -4.4218    7.1846   -0.6278 C.ar    1  LIG1        0.1843
     28 O          -3.2370    6.5149   -0.6849 O.2     1  LIG1       -0.4472
     29 C          -2.1766    9.6203    1.0153 C.3     1  LIG1       -0.0349
     30 H          -2.6982    9.8423    1.9513 H       1  LIG1        0.0279
     31 H          -2.1813   10.5371    0.4171 H       1  LIG1        0.0279
     32 H          -1.1406    9.3771    1.2535 H       1  LIG1        0.0279
     33 S          -5.3796    9.7164    0.2161 S.3     1  LIG1       -0.1386
     34 H          -6.3548    9.2052   -0.5544 H       1  LIG1        0.1072
     35 C          -5.5931    6.5256   -1.1655 C.ar    1  LIG1        0.1748
     36 C          -6.8387    6.2943   -0.6602 C.ar    1  LIG1        0.0116
     37 C          -7.5477    5.5996   -1.7022 C.ar    1  LIG1        0.0462
     38 C          -6.6785    5.4631   -2.7359 C.ar    1  LIG1        0.1061
     39 O          -5.4917    6.0212   -2.4363 O.2     1  LIG1       -0.4584
     40 H          -6.7718    5.0091   -3.7099 H       1  LIG1        0.1041
     41 C          -7.3558    6.6249    0.7002 C.3     1  LIG1       -0.0350
     42 H          -7.7095    5.7229    1.2077 H       1  LIG1        0.0279
     43 H          -8.2041    7.3136    0.6468 H       1  LIG1        0.0279
     44 H          -6.5804    7.0808    1.3168 H       1  LIG1        0.0279
     45 S          -9.2416    5.0945   -1.7102 S.3     1  LIG1       -0.1393
     46 H          -9.1222    4.0350   -0.8882 H       1  LIG1        0.1072
@<TRIPOS>BOND
     1    40    38    1
     2    38    39   ar
     3    38    37   ar
     4    39    35   ar
     5    12    11    1
     6    45    37    1
     7    45    46    1
     8    37    36   ar
     9    23    22    1
    10    20    18    1
    11    11     3    1
    12    22    15    1
    13    35    36   ar
    14    35    27    1
    15    28    27   ar
    16    28    24   ar
    17    36    41    1
    18    27    26   ar
    19    34    33    1
    20    15    14   ar
    21    15    16   ar
    22    18    14    1
    23    18    21    1
    24    18    19    1
    25    14    13   ar
    26    24    16    1
    27    24    25   ar
    28    16    17   ar
    29    26    33    1
    30    26    25   ar
    31     9     7    1
    32     3     4   ar
    33     3     2   ar
    34    25    29    1
    35    13    17   ar
    36    13     4    1
    37    31    29    1
    38    43    41    1
    39    41    42    1
    40    41    44    1
    41     4     5   ar
    42     8     7    1
    43    29    32    1
    44    29    30    1
    45     7     2    1
    46     7    10    1
    47     2     1   ar
    48     5     1   ar
    49     1     6    1
