@<TRIPOS>MOLECULE
mol_data/opt/cam/geoms/mol2/12ig.out
 13 13 0 0 0
SMALL
GASTEIGER

@<TRIPOS>ATOM
      1 C           0.0989    1.9105    0.0913 C.ar    1  LIG1        0.0957
      2 C           1.4520    1.8949    0.0169 C.ar    1  LIG1        0.0004
      3 C           1.8364    3.2806   -0.0470 C.ar    1  LIG1        0.0454
      4 C           0.6907    4.0037   -0.0068 C.ar    1  LIG1        0.1051
      5 O          -0.3834    3.1772    0.0796 O.2     1  LIG1       -0.4696
      6 H          -0.6358    1.1231    0.1569 H       1  LIG1        0.1032
      7 H           0.4816    5.0611   -0.0281 H       1  LIG1        0.1041
      8 C           2.3610    0.7097    0.0041 C.3     1  LIG1       -0.0357
      9 H           3.0633    0.7385    0.8430 H       1  LIG1        0.0279
     10 H           2.9535    0.6716   -0.9154 H       1  LIG1        0.0279
     11 H           1.7923   -0.2196    0.0745 H       1  LIG1        0.0279
     12 S           3.5141    3.8230   -0.1579 S.3     1  LIG1       -0.1393
     13 H           3.2552    5.1395   -0.1111 H       1  LIG1        0.1072
@<TRIPOS>BOND
     1    10     8    1
     2    12    13    1
     3    12     3    1
     4     3     4   ar
     5     3     2   ar
     6     7     4    1
     7     4     5   ar
     8     8     2    1
     9     8    11    1
    10     8     9    1
    11     2     1   ar
    12     5     1   ar
    13     1     6    1
