@<TRIPOS>MOLECULE
mol_data/opt/cam/geoms/mol2/12ig12ig-12ig-.out
 35 37 0 0 0
SMALL
GASTEIGER

@<TRIPOS>ATOM
      1 C           0.6232    1.9874    1.3488 C.ar    1  LIG1        0.0967
      2 C           1.6286    1.8135    0.4561 C.ar    1  LIG1        0.0012
      3 C           1.7587    3.0813   -0.2078 C.ar    1  LIG1        0.0566
      4 C           0.8343    3.9180    0.3487 C.ar    1  LIG1        0.1833
      5 O           0.1266    3.2440    1.3019 O.2     1  LIG1       -0.4584
      6 H           0.1615    1.3209    2.0608 H       1  LIG1        0.1032
      7 C           2.4217    0.5768    0.1891 C.3     1  LIG1       -0.0357
      8 H           3.4835    0.7265    0.4085 H       1  LIG1        0.0279
      9 H           2.3450    0.2794   -0.8610 H       1  LIG1        0.0279
     10 H           2.0677   -0.2543    0.8025 H       1  LIG1        0.0279
     11 S           2.8896    3.3757   -1.5277 S.3     1  LIG1       -0.1386
     12 H           2.2983    4.4958   -1.9771 H       1  LIG1        0.1072
     13 C           0.4813    5.2999    0.1026 C.ar    1  LIG1        0.1758
     14 C           1.2326    6.4369    0.0134 C.ar    1  LIG1        0.0123
     15 C           0.3008    7.4851   -0.2840 C.ar    1  LIG1        0.0573
     16 C          -0.9405    6.9178   -0.3177 C.ar    1  LIG1        0.1843
     17 O          -0.8364    5.5776   -0.0945 O.2     1  LIG1       -0.4472
     18 C           2.7034    6.5904    0.2204 C.3     1  LIG1       -0.0349
     19 H           2.9096    7.3590    0.9715 H       1  LIG1        0.0279
     20 H           3.2109    6.8938   -0.7009 H       1  LIG1        0.0279
     21 H           3.1501    5.6550    0.5591 H       1  LIG1        0.0279
     22 S           0.7799    9.1578   -0.5680 S.3     1  LIG1       -0.1386
     23 H          -0.3995    9.5564   -1.0742 H       1  LIG1        0.1072
     24 C          -2.2624    7.4601   -0.5492 C.ar    1  LIG1        0.1748
     25 C          -2.9418    8.5077   -0.0001 C.ar    1  LIG1        0.0116
     26 C          -4.2126    8.5316   -0.6752 C.ar    1  LIG1        0.0462
     27 C          -4.1989    7.5024   -1.5602 C.ar    1  LIG1        0.1061
     28 O          -3.0268    6.8441   -1.5062 O.2     1  LIG1       -0.4584
     29 H          -4.9291    7.1408   -2.2670 H       1  LIG1        0.1041
     30 C          -2.5046    9.4080    1.1070 C.3     1  LIG1       -0.0350
     31 H          -3.2273    9.3891    1.9277 H       1  LIG1        0.0279
     32 H          -2.4317   10.4466    0.7710 H       1  LIG1        0.0279
     33 H          -1.5335    9.1052    1.5003 H       1  LIG1        0.0279
     34 S          -5.5187    9.7076   -0.4879 S.3     1  LIG1       -0.1393
     35 H          -5.9868    9.2766    0.6985 H       1  LIG1        0.1072
@<TRIPOS>BOND
     1    29    27    1
     2    12    11    1
     3    27    28   ar
     4    27    26   ar
     5    11     3    1
     6    28    24   ar
     7    23    22    1
     8     9     7    1
     9    20    18    1
    10    26    34    1
    11    26    25   ar
    12    22    15    1
    13    24    16    1
    14    24    25   ar
    15    34    35    1
    16    16    15   ar
    17    16    17   ar
    18    15    14   ar
    19     3     4   ar
    20     3     2   ar
    21    17    13   ar
    22    25    30    1
    23    14    13   ar
    24    14    18    1
    25    13     4    1
    26     7     8    1
    27     7     2    1
    28     7    10    1
    29    18    21    1
    30    18    19    1
    31     4     5   ar
    32     2     1   ar
    33    32    30    1
    34    30    33    1
    35    30    31    1
    36     5     1   ar
    37     1     6    1
