@<TRIPOS>MOLECULE
mol_data/opt/cam/geoms/mol2/12ig12ig12ig12ig.out
 46 49 0 0 0
SMALL
GASTEIGER

@<TRIPOS>ATOM
      1 C           1.1587    2.3531    2.1971 C.ar    1  LIG1        0.0967
      2 C           1.9048    1.9464    1.1407 C.ar    1  LIG1        0.0012
      3 C           1.8183    3.0205    0.1900 C.ar    1  LIG1        0.0566
      4 C           1.0426    3.9909    0.7563 C.ar    1  LIG1        0.1833
      5 O           0.6267    3.5785    1.9894 O.2     1  LIG1       -0.4584
      6 H           0.9181    1.8847    3.1388 H       1  LIG1        0.1032
      7 C           2.6417    0.6585    0.9729 C.3     1  LIG1       -0.0357
      8 H           3.7188    0.8234    0.8711 H       1  LIG1        0.0279
      9 H           2.3073    0.1279    0.0763 H       1  LIG1        0.0279
     10 H           2.4838    0.0034    1.8321 H       1  LIG1        0.0279
     11 S           2.5602    2.9664   -1.4084 S.3     1  LIG1       -0.1386
     12 H           1.8294    3.9610   -1.9403 H       1  LIG1        0.1072
     13 C           0.5947    5.2879    0.2959 C.ar    1  LIG1        0.1758
     14 C           1.2617    6.3504   -0.2439 C.ar    1  LIG1        0.0123
     15 C           0.2526    7.3291   -0.5249 C.ar    1  LIG1        0.0573
     16 C          -0.9371    6.8064   -0.1050 C.ar    1  LIG1        0.1843
     17 O          -0.7374    5.5515    0.3855 O.2     1  LIG1       -0.4472
     18 C           2.7305    6.5027   -0.4655 C.3     1  LIG1       -0.0349
     19 H           3.1008    7.4156    0.0108 H       1  LIG1        0.0279
     20 H           2.9720    6.5727   -1.5310 H       1  LIG1        0.0279
     21 H           3.2781    5.6560   -0.0504 H       1  LIG1        0.0279
     22 S           0.5898    8.8728   -1.3066 S.3     1  LIG1       -0.1386
     23 H          -0.6886    9.1627   -1.6024 H       1  LIG1        0.1072
     24 C          -2.2917    7.3163   -0.1113 C.ar    1  LIG1        0.1758
     25 C          -2.8310    8.4946    0.3200 C.ar    1  LIG1        0.0123
     26 C          -4.2268    8.4107    0.0036 C.ar    1  LIG1        0.0573
     27 C          -4.4351    7.1844   -0.5595 C.ar    1  LIG1        0.1843
     28 O          -3.2527    6.5134   -0.6439 O.2     1  LIG1       -0.4472
     29 C          -2.1472    9.6246    1.0166 C.3     1  LIG1       -0.0349
     30 H          -2.6446    9.8506    1.9647 H       1  LIG1        0.0279
     31 H          -2.1666   10.5391    0.4151 H       1  LIG1        0.0279
     32 H          -1.1056    9.3815    1.2291 H       1  LIG1        0.0279
     33 S          -5.3694    9.7202    0.2985 S.3     1  LIG1       -0.1386
     34 H          -6.3641    9.2069   -0.4452 H       1  LIG1        0.1072
     35 C          -5.6201    6.5241   -1.0647 C.ar    1  LIG1        0.1748
     36 C          -6.8527    6.2960   -0.5272 C.ar    1  LIG1        0.0116
     37 C          -7.5884    5.5977   -1.5481 C.ar    1  LIG1        0.0462
     38 C          -6.7458    5.4564   -2.6028 C.ar    1  LIG1        0.1061
     39 O          -5.5513    6.0146   -2.3356 O.2     1  LIG1       -0.4584
     40 H          -6.8640    4.9985   -3.5724 H       1  LIG1        0.1041
     41 C          -7.3350    6.6324    0.8446 C.3     1  LIG1       -0.0350
     42 H          -7.6766    5.7328    1.3644 H       1  LIG1        0.0279
     43 H          -8.1838    7.3217    0.8099 H       1  LIG1        0.0279
     44 H          -6.5439    7.0900    1.4396 H       1  LIG1        0.0279
     45 S          -9.2823    5.0940   -1.5111 S.3     1  LIG1       -0.1393
     46 H          -9.1429    4.0377   -0.6883 H       1  LIG1        0.1072
@<TRIPOS>BOND
     1    40    38    1
     2    38    39   ar
     3    38    37   ar
     4    39    35   ar
     5    12    11    1
     6    23    22    1
     7    37    45    1
     8    37    36   ar
     9    20    18    1
    10    45    46    1
    11    11     3    1
    12    22    15    1
    13    35    27    1
    14    35    36   ar
    15    28    27   ar
    16    28    24   ar
    17    27    26   ar
    18    36    41    1
    19    15    14   ar
    20    15    16   ar
    21    18    14    1
    22    18    21    1
    23    18    19    1
    24    34    33    1
    25    14    13   ar
    26    24    16    1
    27    24    25   ar
    28    16    17   ar
    29    26    33    1
    30    26    25   ar
    31     9     7    1
    32     3     4   ar
    33     3     2   ar
    34    13    17   ar
    35    13     4    1
    36    25    29    1
    37    31    29    1
    38     4     5   ar
    39    43    41    1
    40    41    42    1
    41    41    44    1
    42     8     7    1
    43     7     2    1
    44     7    10    1
    45    29    32    1
    46    29    30    1
    47     2     1   ar
    48     5     1   ar
    49     1     6    1
