@<TRIPOS>MOLECULE
mol_data/opt/cam/geoms/mol2/12ig12ig-12ig-12ig-.out
 46 49 0 0 0
SMALL
GASTEIGER

@<TRIPOS>ATOM
      1 C           0.8894    1.6147    0.0862 C.ar    1  LIG1        0.0967
      2 C           2.1078    1.8981   -0.4364 C.ar    1  LIG1        0.0012
      3 C           2.1773    3.3332   -0.4591 C.ar    1  LIG1        0.0566
      4 C           1.0045    3.7959    0.0662 C.ar    1  LIG1        0.1833
      5 O           0.2054    2.7399    0.3938 O.2     1  LIG1       -0.4584
      6 H           0.3842    0.6828    0.2869 H       1  LIG1        0.1032
      7 C           3.1517    0.9427   -0.9132 C.3     1  LIG1       -0.0357
      8 H           4.0741    1.0336   -0.3312 H       1  LIG1        0.0279
      9 H           3.4076    1.1301   -1.9604 H       1  LIG1        0.0279
     10 H           2.8042   -0.0890   -0.8296 H       1  LIG1        0.0279
     11 S           3.5401    4.2320   -1.1253 S.3     1  LIG1       -0.1386
     12 H           2.8825    5.3936   -1.2810 H       1  LIG1        0.1072
     13 C           0.4874    5.1257    0.3024 C.ar    1  LIG1        0.1758
     14 C           1.0195    6.2307    0.9001 C.ar    1  LIG1        0.0123
     15 C           0.0003    7.2396    0.8145 C.ar    1  LIG1        0.0573
     16 C          -1.0719    6.6672    0.1851 C.ar    1  LIG1        0.1843
     17 O          -0.7833    5.3815   -0.1288 O.2     1  LIG1       -0.4472
     18 C           2.3415    6.3585    1.5797 C.3     1  LIG1       -0.0349
     19 H           2.2214    6.8546    2.5462 H       1  LIG1        0.0279
     20 H           3.0473    6.9572    0.9943 H       1  LIG1        0.0279
     21 H           2.7934    5.3787    1.7397 H       1  LIG1        0.0279
     22 S           0.0273    8.8227    1.5983 S.3     1  LIG1       -0.1386
     23 H           0.9537    9.4029    0.8124 H       1  LIG1        0.1072
     24 C          -2.3919    7.1407   -0.1763 C.ar    1  LIG1        0.1758
     25 C          -2.8362    8.2895   -0.7645 C.ar    1  LIG1        0.0123
     26 C          -4.2569    8.1330   -0.8677 C.ar    1  LIG1        0.0573
     27 C          -4.5653    6.9114   -0.3391 C.ar    1  LIG1        0.1843
     28 O          -3.4260    6.2949    0.0778 O.2     1  LIG1       -0.4472
     29 C          -2.0359    9.4423   -1.2703 C.3     1  LIG1       -0.0349
     30 H          -2.4145    9.7711   -2.2423 H       1  LIG1        0.0279
     31 H          -0.9871    9.1652   -1.3848 H       1  LIG1        0.0279
     32 H          -2.0810   10.2949   -0.5863 H       1  LIG1        0.0279
     33 S          -5.3169    9.3212   -1.6251 S.3     1  LIG1       -0.1386
     34 H          -6.3419    8.4787   -1.8398 H       1  LIG1        0.1072
     35 C          -5.8120    6.1941   -0.1807 C.ar    1  LIG1        0.1748
     36 C          -7.0205    6.5427    0.3476 C.ar    1  LIG1        0.0116
     37 C          -7.8515    5.3781    0.1926 C.ar    1  LIG1        0.0462
     38 C          -7.0822    4.4306   -0.4016 C.ar    1  LIG1        0.1061
     39 O          -5.8461    4.9041   -0.6423 O.2     1  LIG1       -0.4584
     40 H          -7.2817    3.4140   -0.7020 H       1  LIG1        0.1041
     41 C          -7.4008    7.8268    1.0060 C.3     1  LIG1       -0.0350
     42 H          -7.7839    7.6446    2.0141 H       1  LIG1        0.0279
     43 H          -8.1926    8.3398    0.4522 H       1  LIG1        0.0279
     44 H          -6.5454    8.4990    1.0815 H       1  LIG1        0.0279
     45 S          -9.5641    5.2060    0.5947 S.3     1  LIG1       -0.1393
     46 H          -9.4322    5.1128    1.9312 H       1  LIG1        0.1072
@<TRIPOS>BOND
     1    30    29    1
     2     9     7    1
     3    34    33    1
     4    33    26    1
     5    31    29    1
     6    12    11    1
     7    29    25    1
     8    29    32    1
     9    11     3    1
    10     7    10    1
    11     7     2    1
    12     7     8    1
    13    26    25   ar
    14    26    27   ar
    15    25    24   ar
    16    40    38    1
    17    39    38   ar
    18    39    35   ar
    19     3     2   ar
    20     3     4   ar
    21     2     1   ar
    22    38    37   ar
    23    27    35    1
    24    27    28   ar
    25    35    36   ar
    26    24    28   ar
    27    24    16    1
    28    17    16   ar
    29    17    13   ar
    30     4    13    1
    31     4     5   ar
    32     1     6    1
    33     1     5   ar
    34    16    15   ar
    35    37    36   ar
    36    37    45    1
    37    13    14   ar
    38    36    41    1
    39    43    41    1
    40    45    46    1
    41    23    22    1
    42    15    14   ar
    43    15    22    1
    44    14    18    1
    45    20    18    1
    46    41    44    1
    47    41    42    1
    48    18    21    1
    49    18    19    1
