@<TRIPOS>MOLECULE
mol_data/opt/cam/geoms/mol2/12ig12ig12ig-12ig-.out
 46 49 0 0 0
SMALL
GASTEIGER

@<TRIPOS>ATOM
      1 C           1.1312    2.3393    2.2003 C.ar    1  LIG1        0.0967
      2 C           1.8895    1.9382    1.1504 C.ar    1  LIG1        0.0012
      3 C           1.8146    3.0177    0.2049 C.ar    1  LIG1        0.0566
      4 C           1.0327    3.9853    0.7676 C.ar    1  LIG1        0.1833
      5 O           0.6022    3.5661    1.9934 O.2     1  LIG1       -0.4584
      6 H           0.8794    1.8656    3.1365 H       1  LIG1        0.1032
      7 C           2.6278    0.6510    0.9840 C.3     1  LIG1       -0.0357
      8 H           3.7062    0.8160    0.8958 H       1  LIG1        0.0279
      9 H           2.3038    0.1257    0.0806 H       1  LIG1        0.0279
     10 H           2.4596   -0.0089    1.8375 H       1  LIG1        0.0279
     11 S           2.5752    2.9724   -1.3850 S.3     1  LIG1       -0.1386
     12 H           1.8511    3.9704   -1.9197 H       1  LIG1        0.1072
     13 C           0.5906    5.2851    0.3093 C.ar    1  LIG1        0.1758
     14 C           1.2643    6.3504   -0.2166 C.ar    1  LIG1        0.0123
     15 C           0.2590    7.3311   -0.5039 C.ar    1  LIG1        0.0573
     16 C          -0.9358    6.8065   -0.1010 C.ar    1  LIG1        0.1843
     17 O          -0.7423    5.5487    0.3846 O.2     1  LIG1       -0.4472
     18 C           2.7357    6.5032   -0.4200 C.3     1  LIG1       -0.0349
     19 H           3.1007    7.4131    0.0660 H       1  LIG1        0.0279
     20 H           2.9898    6.5793   -1.4821 H       1  LIG1        0.0279
     21 H           3.2781    5.6539   -0.0033 H       1  LIG1        0.0279
     22 S           0.6059    8.8790   -1.2728 S.3     1  LIG1       -0.1386
     23 H          -0.6688    9.1711   -1.5821 H       1  LIG1        0.1072
     24 C          -2.2900    7.3170   -0.1204 C.ar    1  LIG1        0.1758
     25 C          -2.8339    8.4930    0.3112 C.ar    1  LIG1        0.0123
     26 C          -4.2259    8.4115   -0.0221 C.ar    1  LIG1        0.0573
     27 C          -4.4280    7.1885   -0.5945 C.ar    1  LIG1        0.1843
     28 O          -3.2449    6.5175   -0.6688 O.2     1  LIG1       -0.4472
     29 C          -2.1579    9.6188    1.0221 C.3     1  LIG1       -0.0349
     30 H          -2.6665    9.8398    1.9655 H       1  LIG1        0.0279
     31 H          -2.1697   10.5366    0.4256 H       1  LIG1        0.0279
     32 H          -1.1191    9.3739    1.2458 H       1  LIG1        0.0279
     33 S          -5.3714    9.7199    0.2667 S.3     1  LIG1       -0.1386
     34 H          -6.3575    9.2110   -0.4913 H       1  LIG1        0.1072
     35 C          -5.6073    6.5316   -1.1173 C.ar    1  LIG1        0.1748
     36 C          -6.8461    6.3009   -0.5956 C.ar    1  LIG1        0.0116
     37 C          -7.5701    5.6088   -1.6290 C.ar    1  LIG1        0.0462
     38 C          -6.7152    5.4731   -2.6746 C.ar    1  LIG1        0.1061
     39 O          -5.5237    6.0293   -2.3903 O.2     1  LIG1       -0.4584
     40 H          -6.8222    5.0209   -3.6481 H       1  LIG1        0.1041
     41 C          -7.3443    6.6297    0.7723 C.3     1  LIG1       -0.0350
     42 H          -7.6921    5.7272    1.2831 H       1  LIG1        0.0279
     43 H          -8.1925    7.3194    0.7317 H       1  LIG1        0.0279
     44 H          -6.5601    7.0837    1.3791 H       1  LIG1        0.0279
     45 S          -9.2644    5.1055   -1.6148 S.3     1  LIG1       -0.1393
     46 H          -9.1351    4.0446   -0.7963 H       1  LIG1        0.1072
@<TRIPOS>BOND
     1    40    38    1
     2    38    39   ar
     3    38    37   ar
     4    39    35   ar
     5    12    11    1
     6    37    45    1
     7    37    36   ar
     8    45    46    1
     9    23    22    1
    10    20    18    1
    11    11     3    1
    12    22    15    1
    13    35    36   ar
    14    35    27    1
    15    28    27   ar
    16    28    24   ar
    17    36    41    1
    18    27    26   ar
    19    15    14   ar
    20    15    16   ar
    21    34    33    1
    22    18    14    1
    23    18    21    1
    24    18    19    1
    25    14    13   ar
    26    24    16    1
    27    24    25   ar
    28    16    17   ar
    29    26    33    1
    30    26    25   ar
    31     9     7    1
    32     3     4   ar
    33     3     2   ar
    34    13    17   ar
    35    13     4    1
    36    25    29    1
    37    31    29    1
    38    43    41    1
    39     4     5   ar
    40    41    42    1
    41    41    44    1
    42     8     7    1
    43     7     2    1
    44     7    10    1
    45    29    32    1
    46    29    30    1
    47     2     1   ar
    48     5     1   ar
    49     1     6    1
