@<TRIPOS>MOLECULE
mol_data/opt/cam/geoms/mol2/12ig12ig-12ig.out
 35 37 0 0 0
SMALL
GASTEIGER

@<TRIPOS>ATOM
      1 C           0.6220    1.9908    1.3545 C.ar    1  LIG1        0.0967
      2 C           1.6273    1.8142    0.4623 C.ar    1  LIG1        0.0012
      3 C           1.7580    3.0803   -0.2048 C.ar    1  LIG1        0.0566
      4 C           0.8340    3.9188    0.3495 C.ar    1  LIG1        0.1833
      5 O           0.1260    3.2475    1.3044 O.2     1  LIG1       -0.4584
      6 H           0.1601    1.3263    2.0682 H       1  LIG1        0.1032
      7 C           2.4200    0.5764    0.1985 C.3     1  LIG1       -0.0357
      8 H           3.4817    0.7261    0.4181 H       1  LIG1        0.0279
      9 H           2.3436    0.2767   -0.8510 H       1  LIG1        0.0279
     10 H           2.0652   -0.2530    0.8136 H       1  LIG1        0.0279
     11 S           2.8891    3.3710   -1.5255 S.3     1  LIG1       -0.1386
     12 H           2.2978    4.4899   -1.9780 H       1  LIG1        0.1072
     13 C           0.4815    5.3002    0.1000 C.ar    1  LIG1        0.1758
     14 C           1.2330    6.4368    0.0081 C.ar    1  LIG1        0.0123
     15 C           0.3015    7.4845   -0.2919 C.ar    1  LIG1        0.0573
     16 C          -0.9400    6.9174   -0.3242 C.ar    1  LIG1        0.1843
     17 O          -0.8362    5.5778   -0.0978 O.2     1  LIG1       -0.4472
     18 C           2.7039    6.5905    0.2149 C.3     1  LIG1       -0.0349
     19 H           2.9100    7.3590    0.9661 H       1  LIG1        0.0279
     20 H           3.2110    6.8943   -0.7065 H       1  LIG1        0.0279
     21 H           3.1508    5.6551    0.5532 H       1  LIG1        0.0279
     22 S           0.7807    9.1564   -0.5797 S.3     1  LIG1       -0.1386
     23 H          -0.3987    9.5541   -1.0865 H       1  LIG1        0.1072
     24 C          -2.2617    7.4595   -0.5573 C.ar    1  LIG1        0.1748
     25 C          -2.9411    8.5081   -0.0102 C.ar    1  LIG1        0.0116
     26 C          -4.2116    8.5312   -0.6859 C.ar    1  LIG1        0.0462
     27 C          -4.1976    7.5007   -1.5692 C.ar    1  LIG1        0.1061
     28 O          -3.0258    6.8422   -1.5136 O.2     1  LIG1       -0.4584
     29 H          -4.9275    7.1382   -2.2760 H       1  LIG1        0.1041
     30 C          -2.5041    9.4102    1.0955 C.3     1  LIG1       -0.0350
     31 H          -3.2269    9.3927    1.9161 H       1  LIG1        0.0279
     32 H          -2.4312   10.4483    0.7578 H       1  LIG1        0.0279
     33 H          -1.5330    9.1081    1.4894 H       1  LIG1        0.0279
     34 S          -5.5177    9.7077   -0.5007 S.3     1  LIG1       -0.1393
     35 H          -5.9874    9.2774    0.6853 H       1  LIG1        0.1072
@<TRIPOS>BOND
     1    29    27    1
     2    12    11    1
     3    27    28   ar
     4    27    26   ar
     5    11     3    1
     6    28    24   ar
     7    23    22    1
     8     9     7    1
     9    20    18    1
    10    26    34    1
    11    26    25   ar
    12    22    15    1
    13    24    16    1
    14    24    25   ar
    15    34    35    1
    16    16    15   ar
    17    16    17   ar
    18    15    14   ar
    19     3     4   ar
    20     3     2   ar
    21    17    13   ar
    22    25    30    1
    23    14    13   ar
    24    14    18    1
    25    13     4    1
    26     7     8    1
    27     7     2    1
    28     7    10    1
    29    18    21    1
    30    18    19    1
    31     4     5   ar
    32     2     1   ar
    33    32    30    1
    34    30    33    1
    35    30    31    1
    36     5     1   ar
    37     1     6    1
