@<TRIPOS>MOLECULE
mol_data/opt/cam/geoms/mol2/12ig12ig-12ig12ig.out
 46 49 0 0 0
SMALL
GASTEIGER

@<TRIPOS>ATOM
      1 C           1.1434    2.3651    2.2660 C.ar    1  LIG1        0.0967
      2 C           1.8967    1.9529    1.2169 C.ar    1  LIG1        0.0012
      3 C           1.8168    3.0220    0.2600 C.ar    1  LIG1        0.0566
      4 C           1.0371    3.9953    0.8159 C.ar    1  LIG1        0.1833
      5 O           0.6128    3.5893    2.0483 O.2     1  LIG1       -0.4584
      6 H           0.8963    1.9015    3.2085 H       1  LIG1        0.1032
      7 C           2.6349    0.6642    1.0609 C.3     1  LIG1       -0.0357
      8 H           3.7127    0.8288    0.9657 H       1  LIG1        0.0279
      9 H           2.3068    0.1289    0.1649 H       1  LIG1        0.0279
     10 H           2.4711    0.0136    1.9224 H       1  LIG1        0.0279
     11 S           2.5696    2.9597   -1.3329 S.3     1  LIG1       -0.1386
     12 H           1.8425    3.9514   -1.8750 H       1  LIG1        0.1072
     13 C           0.5922    5.2898    0.3456 C.ar    1  LIG1        0.1758
     14 C           1.2629    6.3496   -0.1951 C.ar    1  LIG1        0.0123
     15 C           0.2557    7.3267   -0.4882 C.ar    1  LIG1        0.0573
     16 C          -0.9369    6.8061   -0.0738 C.ar    1  LIG1        0.1843
     17 O          -0.7405    5.5537    0.4245 O.2     1  LIG1       -0.4472
     18 C           2.7332    6.5009   -0.4073 C.3     1  LIG1       -0.0349
     19 H           3.1001    7.4163    0.0668 H       1  LIG1        0.0279
     20 H           2.9821    6.5652   -1.4714 H       1  LIG1        0.0279
     21 H           3.2780    5.6564    0.0162 H       1  LIG1        0.0279
     22 S           0.5982    8.8663   -1.2755 S.3     1  LIG1       -0.1386
     23 H          -0.6782    9.1546   -1.5816 H       1  LIG1        0.1072
     24 C          -2.2914    7.3157   -0.0922 C.ar    1  LIG1        0.1758
     25 C          -2.8338    8.4961    0.3293 C.ar    1  LIG1        0.0123
     26 C          -4.2273    8.4105    0.0036 C.ar    1  LIG1        0.0573
     27 C          -4.4317    7.1813   -0.5546 C.ar    1  LIG1        0.1843
     28 O          -3.2486    6.5100   -0.6274 O.2     1  LIG1       -0.4472
     29 C          -2.1549    9.6298    1.0248 C.3     1  LIG1       -0.0349
     30 H          -2.6589    9.8606    1.9682 H       1  LIG1        0.0279
     31 H          -2.1702   10.5412    0.4185 H       1  LIG1        0.0279
     32 H          -1.1148    9.3879    1.2458 H       1  LIG1        0.0279
     33 S          -5.3720    9.7214    0.2838 S.3     1  LIG1       -0.1386
     34 H          -6.3615    9.2041   -0.4641 H       1  LIG1        0.1072
     35 C          -5.6131    6.5184   -1.0647 C.ar    1  LIG1        0.1748
     36 C          -6.8493    6.2928   -0.5345 C.ar    1  LIG1        0.0116
     37 C          -7.5779    5.5892   -1.5569 C.ar    1  LIG1        0.0462
     38 C          -6.7280    5.4427   -2.6051 C.ar    1  LIG1        0.1061
     39 O          -5.5354    6.0024   -2.3325 O.2     1  LIG1       -0.4584
     40 H          -6.8394    4.9798   -3.5731 H       1  LIG1        0.1041
     41 C          -7.3411    6.6361    0.8321 C.3     1  LIG1       -0.0350
     42 H          -7.6862    5.7391    1.3542 H       1  LIG1        0.0279
     43 H          -8.1897    7.3251    0.7880 H       1  LIG1        0.0279
     44 H          -6.5542    7.0969    1.4302 H       1  LIG1        0.0279
     45 S          -9.2719    5.0855   -1.5292 S.3     1  LIG1       -0.1393
     46 H          -9.1382    4.0335   -0.6999 H       1  LIG1        0.1072
@<TRIPOS>BOND
     1    40    38    1
     2    38    39   ar
     3    38    37   ar
     4    39    35   ar
     5    12    11    1
     6    23    22    1
     7    37    45    1
     8    37    36   ar
     9    45    46    1
    10    20    18    1
    11    11     3    1
    12    22    15    1
    13    35    27    1
    14    35    36   ar
    15    28    27   ar
    16    28    24   ar
    17    27    26   ar
    18    36    41    1
    19    15    14   ar
    20    15    16   ar
    21    34    33    1
    22    18    14    1
    23    18    21    1
    24    18    19    1
    25    14    13   ar
    26    24    16    1
    27    24    25   ar
    28    16    17   ar
    29    26    33    1
    30    26    25   ar
    31     9     7    1
    32     3     4   ar
    33     3     2   ar
    34    25    29    1
    35    13    17   ar
    36    13     4    1
    37    31    29    1
    38    43    41    1
    39     4     5   ar
    40    41    42    1
    41    41    44    1
    42     8     7    1
    43    29    32    1
    44    29    30    1
    45     7     2    1
    46     7    10    1
    47     2     1   ar
    48     5     1   ar
    49     1     6    1
