@<TRIPOS>MOLECULE
mol_data/opt/cam/geoms/mol2/12ig12ig-12ig-12ig.out
 46 49 0 0 0
SMALL
GASTEIGER

@<TRIPOS>ATOM
      1 C           0.8869    1.6146    0.1228 C.ar    1  LIG1        0.0967
      2 C           2.1110    1.8969   -0.3871 C.ar    1  LIG1        0.0012
      3 C           2.1812    3.3319   -0.4107 C.ar    1  LIG1        0.0566
      4 C           1.0031    3.7956    0.1014 C.ar    1  LIG1        0.1833
      5 O           0.2001    2.7403    0.4218 O.2     1  LIG1       -0.4584
      6 H           0.3793    0.6830    0.3191 H       1  LIG1        0.1032
      7 C           3.1596    0.9405   -0.8516 C.3     1  LIG1       -0.0357
      8 H           4.0754    1.0310   -0.2592 H       1  LIG1        0.0279
      9 H           3.4274    1.1271   -1.8959 H       1  LIG1        0.0279
     10 H           2.8104   -0.0909   -0.7713 H       1  LIG1        0.0279
     11 S           3.5513    4.2295   -1.0635 S.3     1  LIG1       -0.1386
     12 H           2.8957    5.3911   -1.2278 H       1  LIG1        0.1072
     13 C           0.4839    5.1259    0.3308 C.ar    1  LIG1        0.1758
     14 C           1.0101    6.2314    0.9328 C.ar    1  LIG1        0.0123
     15 C          -0.0080    7.2405    0.8355 C.ar    1  LIG1        0.0573
     16 C          -1.0738    6.6675    0.1957 C.ar    1  LIG1        0.1843
     17 O          -0.7821    5.3815   -0.1139 O.2     1  LIG1       -0.4472
     18 C           2.3250    6.3596    1.6258 C.3     1  LIG1       -0.0349
     19 H           2.1953    6.8580    2.5899 H       1  LIG1        0.0279
     20 H           3.0375    6.9562    1.0465 H       1  LIG1        0.0279
     21 H           2.7742    5.3797    1.7928 H       1  LIG1        0.0279
     22 S           0.0111    8.8244    1.6178 S.3     1  LIG1       -0.1386
     23 H           0.9449    9.4040    0.8403 H       1  LIG1        0.1072
     24 C          -2.3899    7.1409   -0.1800 C.ar    1  LIG1        0.1758
     25 C          -2.8279    8.2891   -0.7737 C.ar    1  LIG1        0.0123
     26 C          -4.2475    8.1327   -0.8916 C.ar    1  LIG1        0.0573
     27 C          -4.5614    6.9116   -0.3651 C.ar    1  LIG1        0.1843
     28 O          -3.4266    6.2954    0.0641 O.2     1  LIG1       -0.4472
     29 C          -2.0224    9.4415   -1.2724 C.3     1  LIG1       -0.0349
     30 H          -2.3905    9.7691   -2.2488 H       1  LIG1        0.0279
     31 H          -0.9724    9.1643   -1.3752 H       1  LIG1        0.0279
     32 H          -2.0748   10.2948   -0.5898 H       1  LIG1        0.0279
     33 S          -5.2997    9.3203   -1.6608 S.3     1  LIG1       -0.1386
     34 H          -6.3227    8.4778   -1.8845 H       1  LIG1        0.1072
     35 C          -5.8099    6.1945   -0.2188 C.ar    1  LIG1        0.1748
     36 C          -7.0236    6.5435    0.2972 C.ar    1  LIG1        0.0116
     37 C          -7.8530    5.3788    0.1343 C.ar    1  LIG1        0.0462
     38 C          -7.0779    4.4311   -0.4517 C.ar    1  LIG1        0.1061
     39 O          -5.8395    4.9043   -0.6803 O.2     1  LIG1       -0.4584
     40 H          -7.2746    3.4144   -0.7537 H       1  LIG1        0.1041
     41 C          -7.4102    7.8279    0.9513 C.3     1  LIG1       -0.0350
     42 H          -7.8007    7.6464    1.9566 H       1  LIG1        0.0279
     43 H          -8.1985    8.3393    0.3908 H       1  LIG1        0.0279
     44 H          -6.5562    8.5011    1.0325 H       1  LIG1        0.0279
     45 S          -9.5697    5.2071    0.5190 S.3     1  LIG1       -0.1393
     46 H          -9.4514    5.1155    1.8569 H       1  LIG1        0.1072
@<TRIPOS>BOND
     1    30    29    1
     2     9     7    1
     3    34    33    1
     4    33    26    1
     5    31    29    1
     6    29    25    1
     7    29    32    1
     8    12    11    1
     9    11     3    1
    10    26    25   ar
    11    26    27   ar
    12     7    10    1
    13     7     2    1
    14     7     8    1
    15    25    24   ar
    16    40    38    1
    17    39    38   ar
    18    39    35   ar
    19    38    37   ar
    20     3     2   ar
    21     3     4   ar
    22     2     1   ar
    23    27    35    1
    24    27    28   ar
    25    35    36   ar
    26    24    28   ar
    27    24    16    1
    28    17    16   ar
    29    17    13   ar
    30     4    13    1
    31     4     5   ar
    32     1     6    1
    33     1     5   ar
    34    37    36   ar
    35    37    45    1
    36    16    15   ar
    37    36    41    1
    38    13    14   ar
    39    43    41    1
    40    45    46    1
    41    15    14   ar
    42    15    22    1
    43    23    22    1
    44    14    18    1
    45    41    44    1
    46    41    42    1
    47    20    18    1
    48    18    21    1
    49    18    19    1
