@<TRIPOS>MOLECULE
mol_data/opt/cam/geoms/mol2/12ig12ig12ig12ig-.out
 46 49 0 0 0
SMALL
GASTEIGER

@<TRIPOS>ATOM
      1 C           1.1560    2.3551    2.2010 C.ar    1  LIG1        0.0967
      2 C           1.9032    1.9473    1.1458 C.ar    1  LIG1        0.0012
      3 C           1.8179    3.0206    0.1940 C.ar    1  LIG1        0.0566
      4 C           1.0416    3.9915    0.7586 C.ar    1  LIG1        0.1833
      5 O           0.6243    3.5804    1.9916 O.2     1  LIG1       -0.4584
      6 H           0.9143    1.8876    3.1429 H       1  LIG1        0.1032
      7 C           2.6402    0.6592    0.9801 C.3     1  LIG1       -0.0357
      8 H           3.7175    0.8241    0.8794 H       1  LIG1        0.0279
      9 H           2.3068    0.1279    0.0836 H       1  LIG1        0.0279
     10 H           2.4813    0.0050    1.8397 H       1  LIG1        0.0279
     11 S           2.5616    2.9650   -1.4034 S.3     1  LIG1       -0.1386
     12 H           1.8315    3.9592   -1.9371 H       1  LIG1        0.1072
     13 C           0.5943    5.2882    0.2965 C.ar    1  LIG1        0.1758
     14 C           1.2620    6.3502   -0.2435 C.ar    1  LIG1        0.0123
     15 C           0.2532    7.3287   -0.5266 C.ar    1  LIG1        0.0573
     16 C          -0.9370    6.8064   -0.1077 C.ar    1  LIG1        0.1843
     17 O          -0.7379    5.5519    0.3842 O.2     1  LIG1       -0.4472
     18 C           2.7310    6.5022   -0.4635 C.3     1  LIG1       -0.0349
     19 H           3.1008    7.4153    0.0126 H       1  LIG1        0.0279
     20 H           2.9738    6.5714   -1.5287 H       1  LIG1        0.0279
     21 H           3.2781    5.6557   -0.0471 H       1  LIG1        0.0279
     22 S           0.5914    8.8716   -1.3093 S.3     1  LIG1       -0.1386
     23 H          -0.6866    9.1612   -1.6071 H       1  LIG1        0.1072
     24 C          -2.2915    7.3163   -0.1160 C.ar    1  LIG1        0.1758
     25 C          -2.8313    8.4950    0.3135 C.ar    1  LIG1        0.0123
     26 C          -4.2267    8.4108   -0.0045 C.ar    1  LIG1        0.0573
     27 C          -4.4344    7.1840   -0.5666 C.ar    1  LIG1        0.1843
     28 O          -3.2519    6.5129   -0.6490 O.2     1  LIG1       -0.4472
     29 C          -2.1483    9.6257    1.0097 C.3     1  LIG1       -0.0349
     30 H          -2.6469    9.8528    1.9569 H       1  LIG1        0.0279
     31 H          -2.1667   10.5395    0.4073 H       1  LIG1        0.0279
     32 H          -1.1070    9.3826    1.2240 H       1  LIG1        0.0279
     33 S          -5.3696    9.7207    0.2878 S.3     1  LIG1       -0.1386
     34 H          -6.3635    9.2066   -0.4564 H       1  LIG1        0.1072
     35 C          -5.6189    6.5233   -1.0725 C.ar    1  LIG1        0.1748
     36 C          -6.8521    6.2957   -0.5361 C.ar    1  LIG1        0.0116
     37 C          -7.5866    5.5965   -1.5572 C.ar    1  LIG1        0.0462
     38 C          -6.7429    5.4542   -2.6109 C.ar    1  LIG1        0.1061
     39 O          -5.5486    6.0126   -2.3429 O.2     1  LIG1       -0.4584
     40 H          -6.8600    4.9954   -3.5802 H       1  LIG1        0.1041
     41 C          -7.3359    6.6333    0.8347 C.3     1  LIG1       -0.0350
     42 H          -7.6779    5.7342    1.3551 H       1  LIG1        0.0279
     43 H          -8.1847    7.3225    0.7985 H       1  LIG1        0.0279
     44 H          -6.5454    7.0916    1.4301 H       1  LIG1        0.0279
     45 S          -9.2806    5.0928   -1.5217 S.3     1  LIG1       -0.1393
     46 H          -9.1422    4.0374   -0.6976 H       1  LIG1        0.1072
@<TRIPOS>BOND
     1    40    38    1
     2    38    39   ar
     3    38    37   ar
     4    39    35   ar
     5    12    11    1
     6    23    22    1
     7    37    45    1
     8    37    36   ar
     9    20    18    1
    10    45    46    1
    11    11     3    1
    12    22    15    1
    13    35    27    1
    14    35    36   ar
    15    28    27   ar
    16    28    24   ar
    17    27    26   ar
    18    36    41    1
    19    15    14   ar
    20    15    16   ar
    21    18    14    1
    22    18    21    1
    23    18    19    1
    24    34    33    1
    25    14    13   ar
    26    24    16    1
    27    24    25   ar
    28    16    17   ar
    29    26    33    1
    30    26    25   ar
    31     9     7    1
    32     3     4   ar
    33     3     2   ar
    34    13    17   ar
    35    13     4    1
    36    25    29    1
    37    31    29    1
    38     4     5   ar
    39    43    41    1
    40    41    42    1
    41    41    44    1
    42     8     7    1
    43     7     2    1
    44     7    10    1
    45    29    32    1
    46    29    30    1
    47     2     1   ar
    48     5     1   ar
    49     1     6    1
