@<TRIPOS>MOLECULE
mol_data/opt/cam/geoms/mol2/12ig12ig.out
 24 25 0 0 0
SMALL
GASTEIGER

@<TRIPOS>ATOM
      1 C           0.3114    1.8971    0.7519 C.ar    1  LIG1        0.0967
      2 C           1.5294    1.8302    0.1606 C.ar    1  LIG1        0.0012
      3 C           1.7811    3.1604   -0.3217 C.ar    1  LIG1        0.0566
      4 C           0.7047    3.9221    0.0307 C.ar    1  LIG1        0.1833
      5 O          -0.2068    3.1444    0.6861 O.2     1  LIG1       -0.4584
      6 H          -0.2985    1.1548    1.2432 H       1  LIG1        0.1032
      7 C           2.4190    0.6400    0.0122 C.3     1  LIG1       -0.0357
      8 H           3.3746    0.7881    0.5247 H       1  LIG1        0.0279
      9 H           2.6414    0.4433   -1.0409 H       1  LIG1        0.0279
     10 H           1.9501   -0.2529    0.4307 H       1  LIG1        0.0279
     11 S           3.2191    3.6074   -1.2384 S.3     1  LIG1       -0.1386
     12 H           2.7390    4.7769   -1.6944 H       1  LIG1        0.1072
     13 C           0.3773    5.3173   -0.1730 C.ar    1  LIG1        0.1747
     14 C           1.0586    6.4727    0.0743 C.ar    1  LIG1        0.0116
     15 C           0.1903    7.5295   -0.3737 C.ar    1  LIG1        0.0462
     16 C          -0.9352    6.9323   -0.8413 C.ar    1  LIG1        0.1061
     17 O          -0.8419    5.5939   -0.7365 O.2     1  LIG1       -0.4584
     18 H          -1.8460    7.3261   -1.2643 H       1  LIG1        0.1041
     19 C           2.3928    6.6304    0.7242 C.3     1  LIG1       -0.0350
     20 H           2.3225    7.2847    1.5979 H       1  LIG1        0.0279
     21 H           3.1171    7.0861    0.0426 H       1  LIG1        0.0279
     22 H           2.7872    5.6669    1.0492 H       1  LIG1        0.0279
     23 S           0.5243    9.2647   -0.4150 S.3     1  LIG1       -0.1393
     24 H           0.3929    9.5101    0.9022 H       1  LIG1        0.1072
@<TRIPOS>BOND
     1    12    11    1
     2    18    16    1
     3    11     3    1
     4     9     7    1
     5    16    17   ar
     6    16    15   ar
     7    17    13   ar
     8    23    15    1
     9    23    24    1
    10    15    14   ar
    11     3     4   ar
    12     3     2   ar
    13    13     4    1
    14    13    14   ar
    15     7     2    1
    16     7    10    1
    17     7     8    1
    18     4     5   ar
    19    21    19    1
    20    14    19    1
    21     2     1   ar
    22     5     1   ar
    23    19    22    1
    24    19    20    1
    25     1     6    1
