@<TRIPOS>MOLECULE
mol_data/opt/cam/geoms/mol2/12ih13ai-12hh-12ih-.out
 48 51 0 0 0
SMALL
GASTEIGER

@<TRIPOS>ATOM
      1 C           0.4727    1.6617   -0.1802 C.ar    1  LIG1        0.0974
      2 C           1.8258    1.7481   -0.1908 C.ar    1  LIG1        0.0086
      3 C           2.1215    3.1487   -0.0641 C.ar    1  LIG1        0.0753
      4 C           0.9218    3.7953    0.0251 C.ar    1  LIG1        0.1716
      5 O          -0.0997    2.8818   -0.0513 O.2     1  LIG1       -0.4593
      6 H          -0.2027    0.8233   -0.2512 H       1  LIG1        0.1033
      7 C           2.8226    0.6419   -0.3092 C.3     1  LIG1       -0.0350
      8 H           3.4868    0.6092    0.5603 H       1  LIG1        0.0279
      9 H           3.4534    0.7581   -1.1980 H       1  LIG1        0.0279
     10 H           2.3262   -0.3276   -0.3873 H       1  LIG1        0.0279
     11 N           3.3973    3.7133   -0.0083 N.pl3   1  LIG1       -0.3548
     12 H           4.0901    3.1685   -0.5051 H       1  LIG1        0.1424
     13 H           3.4127    4.6738   -0.3294 H       1  LIG1        0.1424
     14 C           0.5700    5.1844    0.1560 C.ar    1  LIG1        0.0847
     15 C           1.3188    6.2775    0.5544 C.ar    1  LIG1       -0.0297
     16 C           0.4872    7.4256    0.4958 C.ar    1  LIG1       -0.0214
     17 C          -0.7527    6.9988    0.0485 C.ar    1  LIG1        0.0875
     18 N          -0.6800    5.6394   -0.1526 N.ar    1  LIG1       -0.3491
     19 H          -1.4539    5.0598   -0.4367 H       1  LIG1        0.1661
     20 H           2.3324    6.2441    0.9283 H       1  LIG1        0.0643
     21 C           0.8676    8.8108    0.9203 C.3     1  LIG1       -0.0376
     22 H          -0.0103    9.3829    1.2294 H       1  LIG1        0.0278
     23 H           1.3718    9.3754    0.1267 H       1  LIG1        0.0278
     24 H           1.5557    8.7758    1.7690 H       1  LIG1        0.0278
     25 C          -1.9921    7.6997   -0.1962 C.ar    1  LIG1        0.1745
     26 C          -2.2975    8.9367   -0.6928 C.ar    1  LIG1        0.0942
     27 C          -3.7249    9.0035   -0.7696 C.ar    1  LIG1        0.0958
     28 C          -4.1974    7.8043   -0.3186 C.ar    1  LIG1        0.1933
     29 O          -3.1383    6.9965    0.0240 O.2     1  LIG1       -0.4464
     30 N          -1.4645    9.9470   -1.2183 N.pl3   1  LIG1       -0.3535
     31 H          -1.3762   10.7417   -0.5930 H       1  LIG1        0.1425
     32 H          -0.5370    9.5943   -1.4221 H       1  LIG1        0.1425
     33 N          -4.4103   10.1194   -1.2427 N.pl3   1  LIG1       -0.3535
     34 H          -3.8402   10.6256   -1.9122 H       1  LIG1        0.1425
     35 H          -5.3159    9.8921   -1.6334 H       1  LIG1        0.1425
     36 C          -5.5303    7.2730   -0.1792 C.ar    1  LIG1        0.1763
     37 C          -6.7097    7.8466    0.2065 C.ar    1  LIG1        0.0191
     38 C          -7.6985    6.8098    0.0930 C.ar    1  LIG1        0.0665
     39 C          -7.0459    5.6981   -0.3335 C.ar    1  LIG1        0.1136
     40 O          -5.7179    5.9664   -0.5042 O.2     1  LIG1       -0.4576
     41 H          -7.3582    4.6845   -0.5262 H       1  LIG1        0.1049
     42 C          -6.9530    9.2236    0.7336 C.3     1  LIG1       -0.0342
     43 H          -7.4865    9.1758    1.6882 H       1  LIG1        0.0279
     44 H          -7.5667    9.8274    0.0535 H       1  LIG1        0.0279
     45 H          -6.0160    9.7604    0.8869 H       1  LIG1        0.0279
     46 N          -9.0386    6.9593    0.4701 N.pl3   1  LIG1       -0.3553
     47 H          -9.4407    7.8320    0.1528 H       1  LIG1        0.1424
     48 H          -9.6245    6.1877    0.1807 H       1  LIG1        0.1424
@<TRIPOS>BOND
     1    34    33    1
     2    35    33    1
     3    32    30    1
     4    33    27    1
     5    30    26    1
     6    30    31    1
     7     9     7    1
     8    27    26   ar
     9    27    28   ar
    10    26    25   ar
    11    41    39    1
    12    12    11    1
    13    40    39   ar
    14    40    36   ar
    15    19    18    1
    16    10     7    1
    17    39    38   ar
    18    13    11    1
    19    28    36    1
    20    28    29   ar
    21     7     2    1
    22     7     8    1
    23     6     1    1
    24    25    29   ar
    25    25    17    1
    26     2     1   ar
    27     2     3   ar
    28     1     5   ar
    29    36    37   ar
    30    18    17   ar
    31    18    14   ar
    32     3    11    1
    33     3     4   ar
    34     5     4   ar
    35     4    14    1
    36    17    16   ar
    37    44    42    1
    38    38    37   ar
    39    38    46    1
    40    23    21    1
    41    47    46    1
    42    14    15   ar
    43    48    46    1
    44    37    42    1
    45    16    15   ar
    46    16    21    1
    47    15    20    1
    48    42    45    1
    49    42    43    1
    50    21    22    1
    51    21    24    1
