@<TRIPOS>MOLECULE
mol_data/opt/cam/geoms/mol2/12ih13la-12fa-13ha.out
 44 47 0 0 0
SMALL
GASTEIGER

@<TRIPOS>ATOM
      1 C           0.0721    1.4408   -0.5690 C.ar    1  LIG1        0.0974
      2 C           1.3972    1.3234   -0.3186 C.ar    1  LIG1        0.0086
      3 C           1.8748    2.6614   -0.0886 C.ar    1  LIG1        0.0755
      4 C           0.7944    3.4891   -0.2305 C.ar    1  LIG1        0.1752
      5 O          -0.3231    2.7372   -0.5179 O.2     1  LIG1       -0.4592
      6 H          -0.6964    0.7162   -0.7894 H       1  LIG1        0.1033
      7 C           2.2246    0.0821   -0.2565 C.3     1  LIG1       -0.0350
      8 H           2.7418    0.0062    0.7050 H       1  LIG1        0.0279
      9 H           2.9915    0.0652   -1.0395 H       1  LIG1        0.0279
     10 H           1.6091   -0.8112   -0.3824 H       1  LIG1        0.0279
     11 N           3.1769    2.9768    0.2989 N.pl3   1  LIG1       -0.3548
     12 H           3.8753    2.4509   -0.2105 H       1  LIG1        0.1424
     13 H           3.3651    3.9725    0.2502 H       1  LIG1        0.1424
     14 C           0.5680    4.9076   -0.1237 C.ar    1  LIG1        0.1266
     15 C           1.4117    6.0030   -0.0355 C.ar    1  LIG1        0.1490
     16 C           0.6291    7.1766    0.0554 C.ar    1  LIG1        0.0093
     17 C          -0.6950    6.7723    0.0102 C.ar    1  LIG1        0.0899
     18 N          -0.7133    5.4113   -0.0948 N.ar    1  LIG1       -0.3463
     19 H          -1.5391    4.8413   -0.1692 H       1  LIG1        0.1662
     20 O           2.7757    5.8933   -0.0551 O.3     1  LIG1       -0.4929
     21 C           3.4884    7.0977    0.1318 C.3     1  LIG1        0.0789
     22 H           4.5478    6.8409    0.1149 H       1  LIG1        0.0660
     23 H           3.2770    7.8116   -0.6724 H       1  LIG1        0.0660
     24 H           3.2419    7.5614    1.0939 H       1  LIG1        0.0660
     25 H           0.9609    8.1987    0.1387 H       1  LIG1        0.0677
     26 C          -1.9037    7.5432    0.0541 C.ar    1  LIG1        0.1930
     27 C          -2.1647    8.8813    0.1036 C.ar    1  LIG1        0.1648
     28 C          -3.5801    9.0455    0.1345 C.ar    1  LIG1        0.0280
     29 C          -4.1061    7.7843    0.0982 C.ar    1  LIG1        0.1573
     30 O          -3.1025    6.8645    0.0455 O.2     1  LIG1       -0.4480
     31 O          -1.2010    9.8399    0.1210 O.3     1  LIG1       -0.5031
     32 H          -1.6194   10.7034    0.2029 H       1  LIG1        0.2923
     33 H          -4.1404    9.9633    0.2358 H       1  LIG1        0.0693
     34 C          -5.4500    7.2847    0.1054 C.ar    1  LIG1        0.1031
     35 C          -6.6471    7.9410   -0.1298 C.ar    1  LIG1        0.0532
     36 C          -7.6875    6.9906    0.0329 C.ar    1  LIG1       -0.0230
     37 C          -7.0999    5.7894    0.3554 C.ar    1  LIG1        0.0041
     38 N          -5.7529    5.9677    0.3908 N.ar    1  LIG1       -0.3568
     39 H          -5.0624    5.2696    0.6079 H       1  LIG1        0.1655
     40 H          -7.5444    4.8263    0.5535 H       1  LIG1        0.0807
     41 N          -6.7775    9.3025   -0.4403 N.pl3   1  LIG1       -0.3562
     42 H          -6.0674    9.6179   -1.0917 H       1  LIG1        0.1424
     43 H          -7.6934    9.5256   -0.8069 H       1  LIG1        0.1424
     44 H          -8.7467    7.1725   -0.0787 H       1  LIG1        0.0651
@<TRIPOS>BOND
     1    42    41    1
     2     9     7    1
     3    43    41    1
     4     6     1    1
     5    23    21    1
     6     1     5   ar
     7     1     2   ar
     8     5     4   ar
     9    41    35    1
    10    10     7    1
    11     2     7    1
    12     2     3   ar
    13     7     8    1
    14     4    14    1
    15     4     3   ar
    16    12    11    1
    17    19    18    1
    18    35    36   ar
    19    35    34   ar
    20    14    18   ar
    21    14    15   ar
    22    18    17   ar
    23     3    11    1
    24    44    36    1
    25    20    15    1
    26    20    21    1
    27    15    16   ar
    28    17    26    1
    29    17    16   ar
    30    36    37   ar
    31    30    26   ar
    32    30    29   ar
    33    26    27   ar
    34    16    25    1
    35    29    34    1
    36    29    28   ar
    37    27    31    1
    38    27    28   ar
    39    34    38   ar
    40    22    21    1
    41    31    32    1
    42    21    24    1
    43    28    33    1
    44    13    11    1
    45    37    38   ar
    46    37    40    1
    47    38    39    1
