@<TRIPOS>MOLECULE
mol_data/opt/cam/geoms/mol2/12ih6ia-12ia-4he.out
 50 53 0 0 0
SMALL
GASTEIGER

@<TRIPOS>ATOM
      1 C           0.7876    1.6525    0.7373 C.ar    1  LIG1        0.0973
      2 C           1.8403    1.7313   -0.1135 C.ar    1  LIG1        0.0086
      3 C           1.9172    3.1144   -0.4912 C.ar    1  LIG1        0.0739
      4 C           0.9058    3.7660    0.1630 C.ar    1  LIG1        0.1573
      5 O           0.2078    2.8565    0.9205 O.2     1  LIG1       -0.4607
      6 H           0.3482    0.8249    1.2727 H       1  LIG1        0.1033
      7 C           2.7442    0.6356   -0.5757 C.3     1  LIG1       -0.0350
      8 H           3.7873    0.8428   -0.3161 H       1  LIG1        0.0279
      9 H           2.6979    0.5017   -1.6626 H       1  LIG1        0.0279
     10 H           2.4698   -0.3178   -0.1196 H       1  LIG1        0.0279
     11 N           2.8879    3.6542   -1.3396 N.pl3   1  LIG1       -0.3548
     12 H           3.2307    2.9854   -2.0171 H       1  LIG1        0.1424
     13 H           2.5842    4.4980   -1.8088 H       1  LIG1        0.1424
     14 C          -0.8147    5.6173    0.3139 C.ar    1  LIG1        0.0497
     15 C           0.5230    5.1714    0.2025 C.ar    1  LIG1        0.0401
     16 C           1.5130    6.1507    0.0977 C.ar    1  LIG1       -0.0472
     17 C           1.1760    7.4929    0.0996 C.ar    1  LIG1       -0.0320
     18 C          -0.1681    7.8384    0.2396 C.ar    1  LIG1        0.1066
     19 N          -1.1282    6.9082    0.3386 N.ar    1  LIG1       -0.2481
     20 H           2.5542    5.8523    0.0263 H       1  LIG1        0.0626
     21 C          -1.9748    4.6644    0.4043 C.3     1  LIG1       -0.0216
     22 H          -1.9924    4.1529    1.3697 H       1  LIG1        0.0293
     23 H          -1.9123    3.8875   -0.3620 H       1  LIG1        0.0293
     24 H          -2.8987    5.2286    0.2828 H       1  LIG1        0.0293
     25 H           1.9398    8.2511   -0.0129 H       1  LIG1        0.0640
     26 C          -0.6019    9.2333    0.2788 C.ar    1  LIG1        0.1567
     27 C           0.0240   10.4145    0.5785 C.ar    1  LIG1       -0.0026
     28 C          -0.9750   11.4248    0.4439 C.ar    1  LIG1       -0.0122
     29 C          -2.1361   10.8007    0.0798 C.ar    1  LIG1        0.1378
     30 O          -1.9092    9.4688   -0.0211 O.2     1  LIG1       -0.4530
     31 C           1.4401   10.6474    1.0050 C.3     1  LIG1       -0.0360
     32 H           1.5208   11.5892    1.5525 H       1  LIG1        0.0279
     33 H           2.1227   10.7101    0.1502 H       1  LIG1        0.0279
     34 H           1.8019    9.8501    1.6585 H       1  LIG1        0.0279
     35 H          -0.8559   12.4739    0.6696 H       1  LIG1        0.0658
     36 C          -3.8087   12.5572   -0.5627 C.ar    1  LIG1        0.0354
     37 C          -5.1492   12.9174   -0.7413 C.ar    1  LIG1       -0.0392
     38 C          -3.5090   11.2394   -0.1568 C.ar    1  LIG1        0.0390
     39 C          -6.1693   12.0079   -0.5454 C.ar    1  LIG1       -0.0446
     40 H          -5.3824   13.9332   -1.0473 H       1  LIG1        0.0636
     41 C          -4.5499   10.3267    0.0173 C.ar    1  LIG1       -0.0339
     42 C          -5.8827   10.6889   -0.1709 C.ar    1  LIG1        0.0255
     43 H          -4.3061    9.3128    0.3113 H       1  LIG1        0.0637
     44 H          -7.2007   12.3088   -0.6906 H       1  LIG1        0.0630
     45 N          -2.8059   13.4976   -0.7599 N.pl3   1  LIG1       -0.3574
     46 H          -1.9208   13.1149   -1.0642 H       1  LIG1        0.1423
     47 H          -3.0878   14.2976   -1.3078 H       1  LIG1        0.1423
     48 C          -6.9348    9.7377    0.0207 C.1     1  LIG1       -0.0696
     49 C          -7.8249    8.9422    0.1797 C.1     1  LIG1       -0.1139
     50 H          -8.6083    8.2347    0.3228 H       1  LIG1        0.1232
@<TRIPOS>BOND
     1    12    11    1
     2    13    11    1
     3     9     7    1
     4    11     3    1
     5    47    45    1
     6    46    45    1
     7    40    37    1
     8    45    36    1
     9    37    36   ar
    10    37    39   ar
    11    44    39    1
    12     7     8    1
    13     7    10    1
    14     7     2    1
    15    36    38   ar
    16    39    42   ar
    17     3     2   ar
    18     3     4   ar
    19    23    21    1
    20    42    41   ar
    21    42    48    1
    22    38    41   ar
    23    38    29    1
    24     2     1   ar
    25    30    29   ar
    26    30    26   ar
    27    25    17    1
    28    41    43    1
    29    48    49    3
    30    20    16    1
    31    29    28   ar
    32    16    17   ar
    33    16    15   ar
    34    17    18   ar
    35    33    31    1
    36     4    15    1
    37     4     5   ar
    38    49    50    1
    39    15    14   ar
    40    18    26    1
    41    18    19   ar
    42    26    27   ar
    43    24    21    1
    44    14    19   ar
    45    14    21    1
    46    21    22    1
    47    28    27   ar
    48    28    35    1
    49    27    31    1
    50     1     5   ar
    51     1     6    1
    52    31    32    1
    53    31    34    1
