@<TRIPOS>MOLECULE
mol_data/opt/cam/geoms/mol2/12ii12ii.out
 28 29 0 0 0
SMALL
GASTEIGER

@<TRIPOS>ATOM
      1 C           0.3286    1.8495    0.7409 C.ar    1  LIG1        0.0959
      2 C           1.5682    1.8127    0.1949 C.ar    1  LIG1       -0.0091
      3 C           1.8448    3.1587   -0.2332 C.ar    1  LIG1        0.0013
      4 C           0.7482    3.8953    0.1069 C.ar    1  LIG1        0.1731
      5 O          -0.1881    3.1004    0.7028 O.2     1  LIG1       -0.4593
      6 H          -0.3002    1.0901    1.1798 H       1  LIG1        0.1032
      7 C           2.4636    0.6261    0.0411 C.3     1  LIG1       -0.0365
      8 H           3.4101    0.7656    0.5732 H       1  LIG1        0.0279
      9 H           2.7091    0.4435   -1.0102 H       1  LIG1        0.0279
     10 H           1.9915   -0.2775    0.4331 H       1  LIG1        0.0279
     11 C           3.0679    3.6211   -0.9567 C.3     1  LIG1       -0.0358
     12 H           3.9457    3.6511   -0.3021 H       1  LIG1        0.0279
     13 H           2.9233    4.6218   -1.3681 H       1  LIG1        0.0279
     14 H           3.3082    2.9475   -1.7851 H       1  LIG1        0.0279
     15 C           0.4260    5.3004   -0.0411 C.ar    1  LIG1        0.1731
     16 C           1.1243    6.4410    0.2278 C.ar    1  LIG1        0.0013
     17 C           0.2670    7.5318   -0.1553 C.ar    1  LIG1       -0.0091
     18 C          -0.8750    6.9588   -0.6070 C.ar    1  LIG1        0.0959
     19 O          -0.8023    5.6080   -0.5512 O.2     1  LIG1       -0.4593
     20 H          -1.7993    7.3686   -0.9843 H       1  LIG1        0.1032
     21 C           2.4782    6.5587    0.8492 C.3     1  LIG1       -0.0358
     22 H           3.2324    6.8960    0.1299 H       1  LIG1        0.0279
     23 H           2.8071    5.5995    1.2533 H       1  LIG1        0.0279
     24 H           2.4689    7.2843    1.6684 H       1  LIG1        0.0279
     25 C           0.5774    8.9898   -0.0493 C.3     1  LIG1       -0.0365
     26 H          -0.2640    9.5978   -0.3892 H       1  LIG1        0.0279
     27 H           1.4495    9.2596   -0.6535 H       1  LIG1        0.0279
     28 H           0.7995    9.2776    0.9835 H       1  LIG1        0.0279
@<TRIPOS>BOND
     1    14    11    1
     2    13    11    1
     3     9     7    1
     4    20    18    1
     5    11    12    1
     6    11     3    1
     7    27    25    1
     8    18    19   ar
     9    18    17   ar
    10    19    15   ar
    11    26    25    1
    12     3     4   ar
    13     3     2   ar
    14    17    25    1
    15    17    16   ar
    16    25    28    1
    17    15     4    1
    18    15    16   ar
    19     7     2    1
    20     7    10    1
    21     7     8    1
    22     4     5   ar
    23    22    21    1
    24     2     1   ar
    25    16    21    1
    26     5     1   ar
    27     1     6    1
    28    21    23    1
    29    21    24    1
