@<TRIPOS>MOLECULE
mol_data/opt/cam/geoms/mol2/12ii12ii12ii12ii.out
 54 57 0 0 0
SMALL
GASTEIGER

@<TRIPOS>ATOM
      1 C           0.8383    1.5889   -0.1018 C.ar    1  LIG1        0.0959
      2 C           1.9921    1.8320    0.5664 C.ar    1  LIG1       -0.0091
      3 C           2.1026    3.2647    0.6434 C.ar    1  LIG1        0.0013
      4 C           1.0072    3.7615   -0.0012 C.ar    1  LIG1        0.1731
      5 O           0.2250    2.7416   -0.4585 O.2     1  LIG1       -0.4593
      6 H           0.3359    0.6773   -0.3867 H       1  LIG1        0.1032
      7 C           2.9481    0.8318    1.1312 C.3     1  LIG1       -0.0365
      8 H           3.0604    0.9520    2.2136 H       1  LIG1        0.0279
      9 H           3.9447    0.9353    0.6904 H       1  LIG1        0.0279
     10 H           2.6062   -0.1887    0.9449 H       1  LIG1        0.0279
     11 C           3.1759    4.0305    1.3470 C.3     1  LIG1       -0.0358
     12 H           2.8970    5.0798    1.4606 H       1  LIG1        0.0279
     13 H           4.1286    3.9935    0.8077 H       1  LIG1        0.0279
     14 H           3.3561    3.6197    2.3452 H       1  LIG1        0.0279
     15 C           0.5571    5.1116   -0.2725 C.ar    1  LIG1        0.1741
     16 C           1.1978    6.2182   -0.7503 C.ar    1  LIG1        0.0020
     17 C           0.2109    7.2598   -0.7956 C.ar    1  LIG1        0.0020
     18 C          -0.9489    6.7007   -0.3421 C.ar    1  LIG1        0.1741
     19 O          -0.7504    5.3929   -0.0198 O.2     1  LIG1       -0.4481
     20 C           2.6136    6.3208   -1.2170 C.3     1  LIG1       -0.0357
     21 H           2.6665    6.8030   -2.1979 H       1  LIG1        0.0279
     22 H           3.0667    5.3317   -1.3044 H       1  LIG1        0.0279
     23 H           3.2303    6.9141   -0.5334 H       1  LIG1        0.0279
     24 C           0.4118    8.6449   -1.3191 C.3     1  LIG1       -0.0357
     25 H           1.0089    9.2599   -0.6373 H       1  LIG1        0.0279
     26 H          -0.5456    9.1463   -1.4717 H       1  LIG1        0.0279
     27 H           0.9379    8.6261   -2.2785 H       1  LIG1        0.0279
     28 C          -2.2832    7.2320   -0.1533 C.ar    1  LIG1        0.1741
     29 C          -2.7454    8.3817    0.4192 C.ar    1  LIG1        0.0020
     30 C          -4.1728    8.3522    0.2718 C.ar    1  LIG1        0.0020
     31 C          -4.4644    7.1729   -0.3501 C.ar    1  LIG1        0.1741
     32 O          -3.3209    6.4842   -0.6192 O.2     1  LIG1       -0.4481
     33 C          -1.9518    9.4489    1.1009 C.3     1  LIG1       -0.0357
     34 H          -2.3875    9.6970    2.0735 H       1  LIG1        0.0279
     35 H          -1.9214   10.3748    0.5164 H       1  LIG1        0.0279
     36 H          -0.9228    9.1244    1.2662 H       1  LIG1        0.0279
     37 C          -5.1249    9.4255    0.6896 C.3     1  LIG1       -0.0357
     38 H          -5.2247    9.4845    1.7789 H       1  LIG1        0.0279
     39 H          -6.1180    9.2487    0.2724 H       1  LIG1        0.0279
     40 H          -4.7831   10.4060    0.3444 H       1  LIG1        0.0279
     41 C          -5.7153    6.5581   -0.7454 C.ar    1  LIG1        0.1731
     42 C          -6.8988    6.3693   -0.0933 C.ar    1  LIG1        0.0013
     43 C          -7.7673    5.7073   -1.0304 C.ar    1  LIG1       -0.0091
     44 C          -7.0325    5.5422   -2.1572 C.ar    1  LIG1        0.0959
     45 O          -5.7873    6.0519   -2.0109 O.2     1  LIG1       -0.4593
     46 H          -7.2503    5.0900   -3.1126 H       1  LIG1        0.1032
     47 C          -7.2278    6.7128    1.3234 C.3     1  LIG1       -0.0358
     48 H          -7.6858    5.8599    1.8338 H       1  LIG1        0.0279
     49 H          -7.9364    7.5455    1.3899 H       1  LIG1        0.0279
     50 H          -6.3295    6.9924    1.8767 H       1  LIG1        0.0279
     51 C          -9.1775    5.2758   -0.7885 C.3     1  LIG1       -0.0365
     52 H          -9.5921    4.7744   -1.6659 H       1  LIG1        0.0279
     53 H          -9.8240    6.1277   -0.5547 H       1  LIG1        0.0279
     54 H          -9.2440    4.5799    0.0541 H       1  LIG1        0.0279
@<TRIPOS>BOND
     1    46    44    1
     2    27    24    1
     3    21    20    1
     4    44    45   ar
     5    44    43   ar
     6    45    41   ar
     7    52    51    1
     8    26    24    1
     9    24    17    1
    10    24    25    1
    11    22    20    1
    12    20    16    1
    13    20    23    1
    14    43    51    1
    15    43    42   ar
    16    17    16   ar
    17    17    18   ar
    18    51    53    1
    19    51    54    1
    20    16    15   ar
    21    41    31    1
    22    41    42   ar
    23    32    31   ar
    24    32    28   ar
    25     5     1   ar
    26     5     4   ar
    27     6     1    1
    28    31    30   ar
    29    18    28    1
    30    18    19   ar
    31    15    19   ar
    32    15     4    1
    33    28    29   ar
    34     1     2   ar
    35    42    47    1
    36     4     3   ar
    37    30    29   ar
    38    30    37    1
    39    39    37    1
    40    40    37    1
    41    29    33    1
    42    35    33    1
    43     2     3   ar
    44     2     7    1
    45     3    11    1
    46    37    38    1
    47     9     7    1
    48    13    11    1
    49    10     7    1
    50    33    36    1
    51    33    34    1
    52     7     8    1
    53    47    49    1
    54    47    48    1
    55    47    50    1
    56    11    12    1
    57    11    14    1
