@<TRIPOS>MOLECULE
mol_data/opt/cam/geoms/mol2/12ii12ii12ii.out
 41 43 0 0 0
SMALL
GASTEIGER

@<TRIPOS>ATOM
      1 C           0.6261    1.7118   -0.8294 C.ar    1  LIG1        0.0959
      2 C           1.6850    1.7900    0.0129 C.ar    1  LIG1       -0.0091
      3 C           1.8241    3.1858    0.3344 C.ar    1  LIG1        0.0013
      4 C           0.8404    3.8310   -0.3571 C.ar    1  LIG1        0.1731
      5 O           0.0992    2.9350   -1.0709 O.2     1  LIG1       -0.4593
      6 H           0.1415    0.8818   -1.3202 H       1  LIG1        0.1032
      7 C           2.5273    0.6679    0.5276 C.3     1  LIG1       -0.0365
      8 H           2.4978    0.6142    1.6207 H       1  LIG1        0.0279
      9 H           3.5765    0.7881    0.2391 H       1  LIG1        0.0279
     10 H           2.1834   -0.2932    0.1390 H       1  LIG1        0.0279
     11 C           2.8140    3.7782    1.2843 C.3     1  LIG1       -0.0358
     12 H           2.5515    4.8089    1.5299 H       1  LIG1        0.0279
     13 H           3.8289    3.7797    0.8721 H       1  LIG1        0.0279
     14 H           2.8476    3.2074    2.2175 H       1  LIG1        0.0279
     15 C           0.4686    5.2273   -0.4605 C.ar    1  LIG1        0.1741
     16 C           1.1978    6.3628   -0.6648 C.ar    1  LIG1        0.0020
     17 C           0.2550    7.4457   -0.6648 C.ar    1  LIG1        0.0020
     18 C          -0.9701    6.8797   -0.4604 C.ar    1  LIG1        0.1741
     19 O          -0.8531    5.5291   -0.3335 O.2     1  LIG1       -0.4481
     20 C           2.6657    6.4689   -0.9231 C.3     1  LIG1       -0.0357
     21 H           2.8633    7.1022   -1.7934 H       1  LIG1        0.0279
     22 H           3.0984    5.4859   -1.1179 H       1  LIG1        0.0279
     23 H           3.2018    6.9103   -0.0762 H       1  LIG1        0.0279
     24 C           0.5620    8.8851   -0.9231 C.3     1  LIG1       -0.0357
     25 H           1.0730    9.3553   -0.0761 H       1  LIG1        0.0279
     26 H          -0.3520    9.4489   -1.1179 H       1  LIG1        0.0279
     27 H           1.2165    8.9936   -1.7934 H       1  LIG1        0.0279
     28 C          -2.3020    7.4401   -0.3571 C.ar    1  LIG1        0.1731
     29 C          -2.8057    8.5032    0.3344 C.ar    1  LIG1        0.0013
     30 C          -4.2073    8.5576    0.0130 C.ar    1  LIG1       -0.0091
     31 C          -4.4305    7.5195   -0.8293 C.ar    1  LIG1        0.0959
     32 O          -3.2914    6.8292   -1.0709 O.2     1  LIG1       -0.4593
     33 H          -5.3193    7.1537   -1.3202 H       1  LIG1        0.1032
     34 C          -2.0827    9.4022    1.2844 C.3     1  LIG1       -0.0358
     35 H          -2.6434    9.5139    2.2176 H       1  LIG1        0.0279
     36 H          -1.9415   10.4072    0.8722 H       1  LIG1        0.0279
     37 H          -1.0979    9.0004    1.5300 H       1  LIG1        0.0279
     38 C          -5.2028    9.5462    0.5277 C.3     1  LIG1       -0.0365
     39 H          -6.2021    9.3379    0.1391 H       1  LIG1        0.0279
     40 H          -4.9394   10.5689    0.2392 H       1  LIG1        0.0279
     41 H          -5.2600    9.5244    1.6208 H       1  LIG1        0.0279
@<TRIPOS>BOND
     1    21    20    1
     2    27    24    1
     3     6     1    1
     4    33    31    1
     5    22    20    1
     6    26    24    1
     7     5     1   ar
     8     5     4   ar
     9    32    31   ar
    10    32    28   ar
    11    20    16    1
    12    20    23    1
    13    24    17    1
    14    24    25    1
    15     1     2   ar
    16    31    30   ar
    17    16    17   ar
    18    16    15   ar
    19    17    18   ar
    20    15     4    1
    21    15    19   ar
    22    18    28    1
    23    18    19   ar
    24     4     3   ar
    25    28    29   ar
    26     2     3   ar
    27     2     7    1
    28    30    29   ar
    29    30    38    1
    30    10     7    1
    31    39    38    1
    32     9     7    1
    33    40    38    1
    34     3    11    1
    35    29    34    1
    36     7     8    1
    37    38    41    1
    38    13    11    1
    39    36    34    1
    40    11    12    1
    41    11    14    1
    42    34    37    1
    43    34    35    1
