@<TRIPOS>MOLECULE
mol_data/opt/cam/geoms/mol2/12ii12ii12ii12ii-.out
 54 57 0 0 0
SMALL
GASTEIGER

@<TRIPOS>ATOM
      1 C           1.3025    2.4024   -2.3295 C.ar    1  LIG1        0.0959
      2 C           2.0669    2.0411   -1.2702 C.ar    1  LIG1       -0.0091
      3 C           1.9536    3.1188   -0.3233 C.ar    1  LIG1        0.0013
      4 C           1.1379    4.0459   -0.9037 C.ar    1  LIG1        0.1731
      5 O           0.7315    3.6137   -2.1331 O.2     1  LIG1       -0.4593
      6 H           1.0712    1.9152   -3.2643 H       1  LIG1        0.1032
      7 C           2.8504    0.7804   -1.0969 C.3     1  LIG1       -0.0365
      8 H           2.5188    0.2212   -0.2159 H       1  LIG1        0.0279
      9 H           3.9176    0.9855   -0.9653 H       1  LIG1        0.0279
     10 H           2.7418    0.1263   -1.9649 H       1  LIG1        0.0279
     11 C           2.5641    3.1626    1.0400 C.3     1  LIG1       -0.0358
     12 H           2.1364    3.9721    1.6343 H       1  LIG1        0.0279
     13 H           3.6484    3.3123    0.9996 H       1  LIG1        0.0279
     14 H           2.3894    2.2237    1.5744 H       1  LIG1        0.0279
     15 C           0.6585    5.3414   -0.4670 C.ar    1  LIG1        0.1741
     16 C           1.2853    6.4163    0.0930 C.ar    1  LIG1        0.0020
     17 C           0.2616    7.3925    0.3370 C.ar    1  LIG1        0.0020
     18 C          -0.9001    6.8450   -0.1259 C.ar    1  LIG1        0.1741
     19 O          -0.6729    5.5922   -0.6111 O.2     1  LIG1       -0.4481
     20 C           2.7441    6.5807    0.3724 C.3     1  LIG1       -0.0357
     21 H           3.1097    7.5368   -0.0144 H       1  LIG1        0.0279
     22 H           3.3229    5.7836   -0.0976 H       1  LIG1        0.0279
     23 H           2.9607    6.5639    1.4461 H       1  LIG1        0.0279
     24 C           0.4482    8.7158    1.0058 C.3     1  LIG1       -0.0357
     25 H          -0.5135    9.1533    1.2800 H       1  LIG1        0.0279
     26 H           0.9711    9.4323    0.3630 H       1  LIG1        0.0279
     27 H           1.0426    8.6096    1.9184 H       1  LIG1        0.0279
     28 C          -2.2608    7.3321   -0.1879 C.ar    1  LIG1        0.1741
     29 C          -2.8146    8.5209   -0.5617 C.ar    1  LIG1        0.0020
     30 C          -4.2337    8.3794   -0.3928 C.ar    1  LIG1        0.0020
     31 C          -4.4316    7.1039    0.0593 C.ar    1  LIG1        0.1741
     32 O          -3.2403    6.4616    0.1932 O.2     1  LIG1       -0.4481
     33 C          -2.1144    9.7216   -1.1098 C.3     1  LIG1       -0.0357
     34 H          -2.6144   10.0828   -2.0135 H       1  LIG1        0.0279
     35 H          -1.0804    9.4871   -1.3686 H       1  LIG1        0.0279
     36 H          -2.1033   10.5520   -0.3957 H       1  LIG1        0.0279
     37 C          -5.2462    9.4358   -0.6999 C.3     1  LIG1       -0.0357
     38 H          -6.2609    9.0576   -0.5904 H       1  LIG1        0.0279
     39 H          -5.1247    9.8062   -1.7233 H       1  LIG1        0.0279
     40 H          -5.1332   10.2970   -0.0326 H       1  LIG1        0.0279
     41 C          -5.6040    6.3307    0.4033 C.ar    1  LIG1        0.1731
     42 C          -5.8120    5.0077    0.6765 C.ar    1  LIG1        0.0013
     43 C          -7.2203    4.8807    0.9476 C.ar    1  LIG1       -0.0091
     44 C          -7.7423    6.1223    0.8146 C.ar    1  LIG1        0.0959
     45 O          -6.7787    7.0205    0.4864 O.2     1  LIG1       -0.4593
     46 H          -8.7412    6.5165    0.9178 H       1  LIG1        0.1032
     47 C          -4.8288    3.8809    0.6951 C.3     1  LIG1       -0.0358
     48 H          -3.8433    4.2001    0.3613 H       1  LIG1        0.0279
     49 H          -5.1648    3.0635    0.0487 H       1  LIG1        0.0279
     50 H          -4.7253    3.4676    1.7045 H       1  LIG1        0.0279
     51 C          -7.9422    3.6207    1.2996 C.3     1  LIG1       -0.0365
     52 H          -7.5437    3.1755    2.2168 H       1  LIG1        0.0279
     53 H          -7.8436    2.8702    0.5088 H       1  LIG1        0.0279
     54 H          -9.0077    3.8051    1.4534 H       1  LIG1        0.0279
@<TRIPOS>BOND
     1     6     1    1
     2     1     5   ar
     3     1     2   ar
     4     5     4   ar
     5    34    33    1
     6    10     7    1
     7    39    37    1
     8    35    33    1
     9     2     7    1
    10     2     3   ar
    11    33    29    1
    12    33    36    1
    13     7     9    1
    14     7     8    1
    15     4    15    1
    16     4     3   ar
    17    37    38    1
    18    37    30    1
    19    37    40    1
    20    19    15   ar
    21    19    18   ar
    22    29    30   ar
    23    29    28   ar
    24    15    16   ar
    25    30    31   ar
    26     3    11    1
    27    28    18    1
    28    28    32   ar
    29    18    17   ar
    30    22    20    1
    31    21    20    1
    32    49    47    1
    33    31    32   ar
    34    31    41    1
    35    16    17   ar
    36    16    20    1
    37    17    24    1
    38    48    47    1
    39    26    24    1
    40    20    23    1
    41    41    45   ar
    42    41    42   ar
    43    45    44   ar
    44    53    51    1
    45    42    47    1
    46    42    43   ar
    47    47    50    1
    48    44    46    1
    49    44    43   ar
    50    43    51    1
    51    13    11    1
    52    24    25    1
    53    24    27    1
    54    11    14    1
    55    11    12    1
    56    51    54    1
    57    51    52    1
