@<TRIPOS>MOLECULE
mol_data/opt/cam/geoms/mol2/12ii12ii12ii-12ii.out
 54 57 0 0 0
SMALL
GASTEIGER

@<TRIPOS>ATOM
      1 C           0.7683    1.9988    1.5728 C.ar    1  LIG1        0.0959
      2 C           1.7314    1.8093    0.6384 C.ar    1  LIG1       -0.0091
      3 C           1.8381    3.0576   -0.0696 C.ar    1  LIG1        0.0013
      4 C           0.9364    3.8999    0.5135 C.ar    1  LIG1        0.1731
      5 O           0.2730    3.2577    1.5197 O.2     1  LIG1       -0.4593
      6 H           0.3372    1.3509    2.3205 H       1  LIG1        0.1032
      7 C           2.5111    0.5627    0.3714 C.3     1  LIG1       -0.0365
      8 H           3.5854    0.7239    0.5069 H       1  LIG1        0.0279
      9 H           2.3651    0.2114   -0.6552 H       1  LIG1        0.0279
     10 H           2.2083   -0.2431    1.0437 H       1  LIG1        0.0279
     11 C           2.7197    3.3333   -1.2443 C.3     1  LIG1       -0.0358
     12 H           3.7732    3.4184   -0.9570 H       1  LIG1        0.0279
     13 H           2.4320    4.2630   -1.7387 H       1  LIG1        0.0279
     14 H           2.6519    2.5254   -1.9794 H       1  LIG1        0.0279
     15 C           0.5828    5.2817    0.2685 C.ar    1  LIG1        0.1741
     16 C           1.3211    6.4098    0.0657 C.ar    1  LIG1        0.0020
     17 C           0.3848    7.4763   -0.1496 C.ar    1  LIG1        0.0020
     18 C          -0.8568    6.9136   -0.0357 C.ar    1  LIG1        0.1741
     19 O          -0.7486    5.5800    0.2150 O.2     1  LIG1       -0.4481
     20 C           2.8086    6.5465    0.1055 C.3     1  LIG1       -0.0357
     21 H           3.1046    7.3827    0.7459 H       1  LIG1        0.0279
     22 H           3.2288    6.7376   -0.8878 H       1  LIG1        0.0279
     23 H           3.2738    5.6402    0.4974 H       1  LIG1        0.0279
     24 C           0.7482    8.8993   -0.4305 C.3     1  LIG1       -0.0357
     25 H          -0.1147    9.4711   -0.7684 H       1  LIG1        0.0279
     26 H           1.5238    8.9562   -1.2006 H       1  LIG1        0.0279
     27 H           1.1465    9.3936    0.4629 H       1  LIG1        0.0279
     28 C          -2.1996    7.4363   -0.1267 C.ar    1  LIG1        0.1741
     29 C          -3.4322    6.8614   -0.2576 C.ar    1  LIG1        0.0020
     30 C          -4.3770    7.9411   -0.2909 C.ar    1  LIG1        0.0020
     31 C          -3.6487    9.0915   -0.1850 C.ar    1  LIG1        0.1741
     32 O          -2.3203    8.7956   -0.0834 O.2     1  LIG1       -0.4481
     33 C          -3.7854    5.4122   -0.3562 C.3     1  LIG1       -0.0357
     34 H          -2.8963    4.7849   -0.3817 H       1  LIG1        0.0279
     35 H          -4.3768    5.2175   -1.2567 H       1  LIG1        0.0279
     36 H          -4.3927    5.0982    0.4995 H       1  LIG1        0.0279
     37 C          -5.8585    7.7814   -0.4081 C.3     1  LIG1       -0.0357
     38 H          -6.2372    7.0972    0.3579 H       1  LIG1        0.0279
     39 H          -6.1336    7.3576   -1.3800 H       1  LIG1        0.0279
     40 H          -6.3711    8.7363   -0.3042 H       1  LIG1        0.0279
     41 C          -3.9921   10.4947   -0.1559 C.ar    1  LIG1        0.1731
     42 C          -3.3303   11.6179    0.2541 C.ar    1  LIG1        0.0013
     43 C          -4.2297   12.7152    0.0114 C.ar    1  LIG1       -0.0091
     44 C          -5.3526   12.1700   -0.5125 C.ar    1  LIG1        0.0959
     45 O          -5.2302   10.8229   -0.6271 O.2     1  LIG1       -0.4593
     46 H          -6.2896   12.5900   -0.8435 H       1  LIG1        0.1032
     47 C          -1.9664   11.7333    0.8555 C.3     1  LIG1       -0.0358
     48 H          -1.9873   12.3745    1.7422 H       1  LIG1        0.0279
     49 H          -1.2555   12.1819    0.1525 H       1  LIG1        0.0279
     50 H          -1.5752   10.7589    1.1456 H       1  LIG1        0.0279
     51 C          -3.9647   14.1581    0.2956 C.3     1  LIG1       -0.0365
     52 H          -4.8230   14.7776    0.0264 H       1  LIG1        0.0279
     53 H          -3.0991   14.5237   -0.2658 H       1  LIG1        0.0279
     54 H          -3.7537   14.3241    1.3569 H       1  LIG1        0.0279
@<TRIPOS>BOND
     1    14    11    1
     2    13    11    1
     3    39    37    1
     4    35    33    1
     5    11    12    1
     6    11     3    1
     7    26    24    1
     8    22    20    1
     9    46    44    1
    10    25    24    1
    11     9     7    1
    12    45    44   ar
    13    45    41   ar
    14    44    43   ar
    15    24    17    1
    16    24    27    1
    17    37    40    1
    18    37    30    1
    19    37    38    1
    20    34    33    1
    21    33    29    1
    22    33    36    1
    23    30    29   ar
    24    30    31   ar
    25    53    51    1
    26    29    28   ar
    27    31    41    1
    28    31    32   ar
    29    41    42   ar
    30    17    18   ar
    31    17    16   ar
    32    28    32   ar
    33    28    18    1
    34     3     4   ar
    35     3     2   ar
    36    18    19   ar
    37    43    42   ar
    38    43    51    1
    39    52    51    1
    40    16    20    1
    41    16    15   ar
    42    20    23    1
    43    20    21    1
    44    49    47    1
    45    19    15   ar
    46    42    47    1
    47    15     4    1
    48    51    54    1
    49     7     8    1
    50     7     2    1
    51     7    10    1
    52     4     5   ar
    53     2     1   ar
    54    47    50    1
    55    47    48    1
    56     5     1   ar
    57     1     6    1
