@<TRIPOS>MOLECULE
mol_data/opt/cam/geoms/mol2/12ii12ii-12ii-12ii.out
 54 57 0 0 0
SMALL
GASTEIGER

@<TRIPOS>ATOM
      1 C          -5.5928   -1.4162    0.1258 C.ar    1  LIG1        0.0959
      2 C          -4.7428   -2.3766    0.5573 C.ar    1  LIG1       -0.0091
      3 C          -3.4284   -1.7894    0.5295 C.ar    1  LIG1        0.0013
      4 C          -3.6014   -0.5101    0.0792 C.ar    1  LIG1        0.1731
      5 O          -4.9223   -0.2734   -0.1692 O.2     1  LIG1       -0.4593
      6 H          -6.6613   -1.3891   -0.0203 H       1  LIG1        0.1032
      7 C          -5.0788   -3.7695    0.9809 C.3     1  LIG1       -0.0365
      8 H          -4.7726   -3.9564    2.0151 H       1  LIG1        0.0279
      9 H          -4.5701   -4.5106    0.3562 H       1  LIG1        0.0279
     10 H          -6.1528   -3.9558    0.9118 H       1  LIG1        0.0279
     11 C          -2.1693   -2.4952    0.9208 C.3     1  LIG1       -0.0358
     12 H          -1.2979   -1.8524    0.8133 H       1  LIG1        0.0279
     13 H          -2.0164   -3.3881    0.3051 H       1  LIG1        0.0279
     14 H          -2.2179   -2.8311    1.9623 H       1  LIG1        0.0279
     15 C          -2.6991    0.5917   -0.1727 C.ar    1  LIG1        0.1741
     16 C          -2.8501    1.8399   -0.7113 C.ar    1  LIG1        0.0020
     17 C          -1.5444    2.4375   -0.6934 C.ar    1  LIG1        0.0020
     18 C          -0.7063    1.5193   -0.1331 C.ar    1  LIG1        0.1741
     19 O          -1.4020    0.3884    0.1858 O.2     1  LIG1       -0.4481
     20 C          -4.0818    2.4918   -1.2535 C.3     1  LIG1       -0.0357
     21 H          -4.9373    1.8205   -1.2165 H       1  LIG1        0.0279
     22 H          -3.9329    2.8016   -2.2934 H       1  LIG1        0.0279
     23 H          -4.3320    3.3936   -0.6845 H       1  LIG1        0.0279
     24 C          -1.1889    3.7780   -1.2494 C.3     1  LIG1       -0.0357
     25 H          -1.6259    3.9137   -2.2433 H       1  LIG1        0.0279
     26 H          -0.1070    3.8895   -1.3391 H       1  LIG1        0.0279
     27 H          -1.5607    4.5947   -0.6215 H       1  LIG1        0.0279
     28 C           0.7072    1.5161    0.1670 C.ar    1  LIG1        0.1741
     29 C           1.5504    2.4321    0.7232 C.ar    1  LIG1        0.0020
     30 C           2.8527    1.8274    0.7437 C.ar    1  LIG1        0.0020
     31 C           2.6949    0.5776    0.2106 C.ar    1  LIG1        0.1741
     32 O           1.3967    0.3799   -0.1470 O.2     1  LIG1       -0.4481
     33 C           1.2024    3.7770    1.2732 C.3     1  LIG1       -0.0357
     34 H           0.1211    3.8949    1.3625 H       1  LIG1        0.0279
     35 H           1.5786    4.5888    0.6416 H       1  LIG1        0.0279
     36 H           1.6402    3.9147    2.2664 H       1  LIG1        0.0279
     37 C           4.0881    2.4746    1.2832 C.3     1  LIG1       -0.0357
     38 H           3.9408    2.7898    2.3217 H       1  LIG1        0.0279
     39 H           4.3435    3.3725    0.7103 H       1  LIG1        0.0279
     40 H           4.9398    1.7983    1.2492 H       1  LIG1        0.0279
     41 C           3.5911   -0.5302   -0.0364 C.ar    1  LIG1        0.1731
     42 C           3.4105   -1.8115   -0.4783 C.ar    1  LIG1        0.0013
     43 C           4.7218   -2.4055   -0.5053 C.ar    1  LIG1       -0.0091
     44 C           5.5777   -1.4467   -0.0818 C.ar    1  LIG1        0.0959
     45 O           4.9137   -0.2987    0.2076 O.2     1  LIG1       -0.4593
     46 H           6.6467   -1.4241    0.0618 H       1  LIG1        0.1032
     47 C           2.1469   -2.5132   -0.8622 C.3     1  LIG1       -0.0358
     48 H           1.9926   -3.4032   -0.2425 H       1  LIG1        0.0279
     49 H           2.1900   -2.8531   -1.9026 H       1  LIG1        0.0279
     50 H           1.2787   -1.8663   -0.7537 H       1  LIG1        0.0279
     51 C           5.0497   -3.8027   -0.9209 C.3     1  LIG1       -0.0365
     52 H           6.1230   -3.9939   -0.8533 H       1  LIG1        0.0279
     53 H           4.7400   -3.9946   -1.9531 H       1  LIG1        0.0279
     54 H           4.5389   -4.5373   -0.2902 H       1  LIG1        0.0279
@<TRIPOS>BOND
     1    22    20    1
     2    25    24    1
     3    53    51    1
     4    49    47    1
     5    26    24    1
     6    20    21    1
     7    20    16    1
     8    20    23    1
     9    24    17    1
    10    24    27    1
    11    51    52    1
    12    51    43    1
    13    51    54    1
    14    47    50    1
    15    47    42    1
    16    47    48    1
    17    16    17   ar
    18    16    15   ar
    19    17    18   ar
    20    43    42   ar
    21    43    44   ar
    22    42    41   ar
    23    15     4    1
    24    15    19   ar
    25     5     4   ar
    26     5     1   ar
    27    32    28   ar
    28    32    31   ar
    29    18    28    1
    30    18    19   ar
    31    44    46    1
    32    44    45   ar
    33    41    45   ar
    34    41    31    1
    35     6     1    1
    36     4     3   ar
    37     1     2   ar
    38    28    29   ar
    39    31    30   ar
    40    13    11    1
    41     9     7    1
    42     3     2   ar
    43     3    11    1
    44     2     7    1
    45    35    33    1
    46    39    37    1
    47    29    30   ar
    48    29    33    1
    49    30    37    1
    50    12    11    1
    51    10     7    1
    52    11    14    1
    53     7     8    1
    54    40    37    1
    55    33    34    1
    56    33    36    1
    57    37    38    1
