@<TRIPOS>MOLECULE
mol_data/opt/cam/geoms/mol2/12ii12ii-12ii12ii-.out
 54 57 0 0 0
SMALL
GASTEIGER

@<TRIPOS>ATOM
      1 C           0.2347    1.7177    0.1380 C.ar    1  LIG1        0.0959
      2 C           1.4866    1.7487   -0.3759 C.ar    1  LIG1       -0.0091
      3 C           1.8528    3.1389   -0.4495 C.ar    1  LIG1        0.0013
      4 C           0.7814    3.8335    0.0381 C.ar    1  LIG1        0.1731
      5 O          -0.2131    2.9721    0.4007 O.2     1  LIG1       -0.4593
      6 H          -0.4467    0.9140    0.3693 H       1  LIG1        0.1032
      7 C           2.3284    0.5874   -0.7952 C.3     1  LIG1       -0.0365
      8 H           3.2630    0.5453   -0.2270 H       1  LIG1        0.0279
      9 H           2.5981    0.6513   -1.8543 H       1  LIG1        0.0279
     10 H           1.8022   -0.3574   -0.6423 H       1  LIG1        0.0279
     11 C           3.1490    3.6643   -0.9782 C.3     1  LIG1       -0.0358
     12 H           3.1088    4.7414   -1.1343 H       1  LIG1        0.0279
     13 H           3.4008    3.1864   -1.9301 H       1  LIG1        0.0279
     14 H           3.9748    3.4579   -0.2880 H       1  LIG1        0.0279
     15 C           0.5118    5.2392    0.2351 C.ar    1  LIG1        0.1741
     16 C          -0.6249    5.9647    0.4534 C.ar    1  LIG1        0.0020
     17 C          -0.2113    7.3338    0.5719 C.ar    1  LIG1        0.0020
     18 C           1.1447    7.3403    0.4058 C.ar    1  LIG1        0.1741
     19 O           1.5957    6.0679    0.2023 O.2     1  LIG1       -0.4481
     20 C          -2.0368    5.4834    0.5520 C.3     1  LIG1       -0.0357
     21 H          -2.1110    4.4200    0.3307 H       1  LIG1        0.0279
     22 H          -2.6830    6.0294   -0.1428 H       1  LIG1        0.0279
     23 H          -2.4390    5.6452    1.5580 H       1  LIG1        0.0279
     24 C          -1.1225    8.4881    0.8392 C.3     1  LIG1       -0.0357
     25 H          -1.7859    8.2708    1.6821 H       1  LIG1        0.0279
     26 H          -1.7618    8.6986   -0.0254 H       1  LIG1        0.0279
     27 H          -0.5615    9.3937    1.0660 H       1  LIG1        0.0279
     28 C           2.1458    8.3791    0.4057 C.ar    1  LIG1        0.1741
     29 C           3.5018    8.3856    0.5718 C.ar    1  LIG1        0.0020
     30 C           3.9154    9.7546    0.4532 C.ar    1  LIG1        0.0020
     31 C           2.7787   10.4801    0.2350 C.ar    1  LIG1        0.1741
     32 O           1.6947    9.6514    0.2022 O.2     1  LIG1       -0.4481
     33 C           4.4131    7.2312    0.8391 C.3     1  LIG1       -0.0357
     34 H           5.0765    7.4486    1.6820 H       1  LIG1        0.0279
     35 H           5.0523    7.0207   -0.0255 H       1  LIG1        0.0279
     36 H           3.8520    6.3256    1.0659 H       1  LIG1        0.0279
     37 C           5.3273   10.2359    0.5517 C.3     1  LIG1       -0.0357
     38 H           5.4015   11.2993    0.3305 H       1  LIG1        0.0279
     39 H           5.9734    9.6899   -0.1430 H       1  LIG1        0.0279
     40 H           5.7295   10.0742    1.5577 H       1  LIG1        0.0279
     41 C           2.5090   11.8858    0.0379 C.ar    1  LIG1        0.1731
     42 C           1.4376   12.5804   -0.4497 C.ar    1  LIG1        0.0013
     43 C           1.8038   13.9706   -0.3761 C.ar    1  LIG1       -0.0091
     44 C           3.0558   14.0016    0.1377 C.ar    1  LIG1        0.0959
     45 O           3.5036   12.7472    0.4004 O.2     1  LIG1       -0.4593
     46 H           3.7372   14.8054    0.3689 H       1  LIG1        0.1032
     47 C           0.1415   12.0550   -0.9783 C.3     1  LIG1       -0.0358
     48 H           0.1817   10.9779   -1.1344 H       1  LIG1        0.0279
     49 H          -0.1104   12.5329   -1.9302 H       1  LIG1        0.0279
     50 H          -0.6843   12.2614   -0.2881 H       1  LIG1        0.0279
     51 C           0.9620   15.1319   -0.7954 C.3     1  LIG1       -0.0365
     52 H           0.0274   15.1740   -0.2272 H       1  LIG1        0.0279
     53 H           0.6923   15.0679   -1.8545 H       1  LIG1        0.0279
     54 H           1.4883   16.0767   -0.6426 H       1  LIG1        0.0279
@<TRIPOS>BOND
     1    49    47    1
     2    13    11    1
     3    53    51    1
     4     9     7    1
     5    48    47    1
     6    12    11    1
     7    47    42    1
     8    47    50    1
     9    11     3    1
    10    11    14    1
    11    51    54    1
    12    51    43    1
    13    51    52    1
    14     7    10    1
    15     7     2    1
    16     7     8    1
    17    42    43   ar
    18    42    41   ar
    19     3     2   ar
    20     3     4   ar
    21    43    44   ar
    22     2     1   ar
    23    39    37    1
    24    22    20    1
    25    35    33    1
    26    26    24    1
    27    41    31    1
    28    41    45   ar
    29     4    15    1
    30     4     5   ar
    31    44    46    1
    32    44    45   ar
    33     1     6    1
    34     1     5   ar
    35    32    31   ar
    36    32    28   ar
    37    19    15   ar
    38    19    18   ar
    39    31    30   ar
    40    15    16   ar
    41    38    37    1
    42    21    20    1
    43    28    18    1
    44    28    29   ar
    45    18    17   ar
    46    30    37    1
    47    30    29   ar
    48    16    20    1
    49    16    17   ar
    50    37    40    1
    51    20    23    1
    52    29    33    1
    53    17    24    1
    54    33    36    1
    55    33    34    1
    56    24    27    1
    57    24    25    1
