@<TRIPOS>MOLECULE
mol_data/opt/cam/geoms/mol2/12ii12ii-12ii-12ii-.out
 54 57 0 0 0
SMALL
GASTEIGER

@<TRIPOS>ATOM
      1 C          -0.0638    1.8041    0.8164 C.ar    1  LIG1        0.0959
      2 C           1.2818    1.7441    0.9491 C.ar    1  LIG1       -0.0091
      3 C           1.7700    3.0710    0.6776 C.ar    1  LIG1        0.0013
      4 C           0.6634    3.8255    0.4046 C.ar    1  LIG1        0.1731
      5 O          -0.4630    3.0594    0.4881 O.2     1  LIG1       -0.4593
      6 H          -0.8478    1.0702    0.9200 H       1  LIG1        0.1032
      7 C           2.1113    0.5522    1.3011 C.3     1  LIG1       -0.0365
      8 H           2.6845    0.7218    2.2181 H       1  LIG1        0.0279
      9 H           2.8316    0.3197    0.5102 H       1  LIG1        0.0279
     10 H           1.4884   -0.3317    1.4552 H       1  LIG1        0.0279
     11 C           3.2093    3.4769    0.6958 C.3     1  LIG1       -0.0358
     12 H           3.3428    4.5042    0.3618 H       1  LIG1        0.0279
     13 H           3.8039    2.8232    0.0493 H       1  LIG1        0.0279
     14 H           3.6274    3.3936    1.7050 H       1  LIG1        0.0279
     15 C           0.4667    5.2160    0.0604 C.ar    1  LIG1        0.1741
     16 C          -0.6013    5.9410   -0.3916 C.ar    1  LIG1        0.0020
     17 C          -0.1215    7.2839   -0.5608 C.ar    1  LIG1        0.0020
     18 C           1.1900    7.2754   -0.1875 C.ar    1  LIG1        0.1741
     19 O           1.5573    6.0176    0.1938 O.2     1  LIG1       -0.4481
     20 C          -1.9896    5.4784   -0.6983 C.3     1  LIG1       -0.0357
     21 H          -2.0823    4.3995   -0.5885 H       1  LIG1        0.0279
     22 H          -2.2725    5.7465   -1.7216 H       1  LIG1        0.0279
     23 H          -2.7193    5.9495   -0.0308 H       1  LIG1        0.0279
     24 C          -0.9068    8.4308   -1.1089 C.3     1  LIG1       -0.0357
     25 H          -1.4476    8.1335   -2.0124 H       1  LIG1        0.0279
     26 H          -0.2522    9.2647   -1.3681 H       1  LIG1        0.0279
     27 H          -1.6522    8.7965   -0.3947 H       1  LIG1        0.0279
     28 C           2.2129    8.2964   -0.1259 C.ar    1  LIG1        0.1741
     29 C           2.2158    9.5807    0.3368 C.ar    1  LIG1        0.0020
     30 C           3.5363   10.0877    0.0924 C.ar    1  LIG1        0.0020
     31 C           4.2391    9.0608   -0.4677 C.ar    1  LIG1        0.1741
     32 O           3.4422    7.9651   -0.6113 O.2     1  LIG1       -0.4481
     33 C           1.1000   10.3162    1.0058 C.3     1  LIG1       -0.0357
     34 H           0.2930    9.6345    1.2803 H       1  LIG1        0.0279
     35 H           0.6764   11.0953    0.3629 H       1  LIG1        0.0279
     36 H           1.4509   10.8080    1.9181 H       1  LIG1        0.0279
     37 C           4.0125   11.4764    0.3714 C.3     1  LIG1       -0.0357
     38 H           3.3050   12.2161   -0.0154 H       1  LIG1        0.0279
     39 H           4.9806   11.6580   -0.0990 H       1  LIG1        0.0279
     40 H           4.1208   11.6651    1.4449 H       1  LIG1        0.0279
     41 C           5.6149    8.9393   -0.9047 C.ar    1  LIG1        0.1731
     42 C           6.8022    9.2794   -0.3247 C.ar    1  LIG1        0.0013
     43 C           7.8243    8.9202   -1.2718 C.ar    1  LIG1       -0.0091
     44 C           7.1703    8.3839   -2.3308 C.ar    1  LIG1        0.0959
     45 O           5.8311    8.3867   -2.1341 O.2     1  LIG1       -0.4593
     46 H           7.5111    7.9661   -3.2657 H       1  LIG1        0.1032
     47 C           7.0245    9.8501    1.0384 C.3     1  LIG1       -0.0358
     48 H           6.1099    9.8104    1.6330 H       1  LIG1        0.0279
     49 H           7.3535   10.8940    0.9977 H       1  LIG1        0.0279
     50 H           7.7982    9.2903    1.5727 H       1  LIG1        0.0279
     51 C           9.2992    9.0883   -1.0989 C.3     1  LIG1       -0.0365
     52 H           9.6628    8.5493   -0.2180 H       1  LIG1        0.0279
     53 H           9.5709   10.1406   -0.9676 H       1  LIG1        0.0279
     54 H           9.8435    8.7099   -1.9670 H       1  LIG1        0.0279
@<TRIPOS>BOND
     1    46    44    1
     2    44    45   ar
     3    44    43   ar
     4    45    41   ar
     5    25    24    1
     6    54    51    1
     7    22    20    1
     8    26    24    1
     9    43    51    1
    10    43    42   ar
    11    24    17    1
    12    24    27    1
    13    51    53    1
    14    51    52    1
    15    41    31    1
    16    41    42   ar
    17    20    21    1
    18    20    16    1
    19    20    23    1
    20    32    31   ar
    21    32    28   ar
    22    17    16   ar
    23    17    18   ar
    24    31    30   ar
    25    16    15   ar
    26    42    47    1
    27    18    28    1
    28    18    19   ar
    29    28    29   ar
    30    39    37    1
    31    38    37    1
    32    13    11    1
    33    15    19   ar
    34    15     4    1
    35    30    29   ar
    36    30    37    1
    37    29    33    1
    38    12    11    1
    39    35    33    1
    40    37    40    1
    41     4     5   ar
    42     4     3   ar
    43     5     1   ar
    44     9     7    1
    45     3    11    1
    46     3     2   ar
    47    11    14    1
    48     1     6    1
    49     1     2   ar
    50     2     7    1
    51    49    47    1
    52    33    34    1
    53    33    36    1
    54    47    50    1
    55    47    48    1
    56     7    10    1
    57     7     8    1
