@<TRIPOS>MOLECULE
mol_data/opt/cam/geoms/mol2/12ii12ii12ii-12ii-.out
 54 57 0 0 0
SMALL
GASTEIGER

@<TRIPOS>ATOM
      1 C           0.6464    1.7194    0.7302 C.ar    1  LIG1        0.0959
      2 C           1.6703    1.7637   -0.1564 C.ar    1  LIG1       -0.0091
      3 C           1.8301    3.1525   -0.4989 C.ar    1  LIG1        0.0013
      4 C           0.8943    3.8295    0.2279 C.ar    1  LIG1        0.1731
      5 O           0.1607    2.9585    0.9818 O.2     1  LIG1       -0.4593
      6 H           0.1629    0.9062    1.2493 H       1  LIG1        0.1032
      7 C           2.4619    0.6161   -0.6945 C.3     1  LIG1       -0.0365
      8 H           3.5252    0.7138   -0.4533 H       1  LIG1        0.0279
      9 H           2.3834    0.5520   -1.7846 H       1  LIG1        0.0279
     10 H           2.1125   -0.3324   -0.2805 H       1  LIG1        0.0279
     11 C           2.7894    3.7092   -1.5004 C.3     1  LIG1       -0.0358
     12 H           3.8210    3.6988   -1.1326 H       1  LIG1        0.0279
     13 H           2.5354    4.7402   -1.7533 H       1  LIG1        0.0279
     14 H           2.7719    3.1216   -2.4235 H       1  LIG1        0.0279
     15 C           0.5575    5.2325    0.3369 C.ar    1  LIG1        0.1741
     16 C           1.3035    6.3659    0.4733 C.ar    1  LIG1        0.0020
     17 C           0.3760    7.4613    0.5186 C.ar    1  LIG1        0.0020
     18 C          -0.8679    6.9012    0.4195 C.ar    1  LIG1        0.1741
     19 O          -0.7695    5.5491    0.3026 O.2     1  LIG1       -0.4481
     20 C           2.7871    6.4684    0.6170 C.3     1  LIG1       -0.0357
     21 H           3.0515    7.1111    1.4621 H       1  LIG1        0.0279
     22 H           3.2562    6.9003   -0.2735 H       1  LIG1        0.0279
     23 H           3.2320    5.4865    0.7881 H       1  LIG1        0.0279
     24 C           0.7484    8.9005    0.6799 C.3     1  LIG1       -0.0357
     25 H          -0.1310    9.5305    0.8013 H       1  LIG1        0.0279
     26 H           1.3052    9.2630   -0.1911 H       1  LIG1        0.0279
     27 H           1.3953    9.0388    1.5525 H       1  LIG1        0.0279
     28 C          -2.2078    7.4407    0.4194 C.ar    1  LIG1        0.1741
     29 C          -3.4517    6.8806    0.5181 C.ar    1  LIG1        0.0020
     30 C          -4.3792    7.9760    0.4728 C.ar    1  LIG1        0.0020
     31 C          -3.6331    9.1094    0.3369 C.ar    1  LIG1        0.1741
     32 O          -2.3062    8.7929    0.3028 O.2     1  LIG1       -0.4481
     33 C          -3.8241    5.4413    0.6788 C.3     1  LIG1       -0.0357
     34 H          -2.9447    4.8113    0.8002 H       1  LIG1        0.0279
     35 H          -4.3807    5.0790   -0.1924 H       1  LIG1        0.0279
     36 H          -4.4713    5.3027    1.5512 H       1  LIG1        0.0279
     37 C          -5.8629    7.8734    0.6161 C.3     1  LIG1       -0.0357
     38 H          -6.1275    7.2305    1.4610 H       1  LIG1        0.0279
     39 H          -6.3317    7.4418   -0.2746 H       1  LIG1        0.0279
     40 H          -6.3077    8.8553    0.7874 H       1  LIG1        0.0279
     41 C          -3.9699   10.5124    0.2282 C.ar    1  LIG1        0.1731
     42 C          -4.9055   11.1897   -0.4987 C.ar    1  LIG1        0.0013
     43 C          -4.7458   12.5783   -0.1557 C.ar    1  LIG1       -0.0091
     44 C          -3.7222   12.6224    0.7312 C.ar    1  LIG1        0.0959
     45 O          -3.2366   11.3832    0.9825 O.2     1  LIG1       -0.4593
     46 H          -3.2388   13.4355    1.2507 H       1  LIG1        0.1032
     47 C          -5.8644   10.6332   -1.5007 C.3     1  LIG1       -0.0358
     48 H          -6.8962   10.6435   -1.1332 H       1  LIG1        0.0279
     49 H          -5.6103    9.6023   -1.7539 H       1  LIG1        0.0279
     50 H          -5.8466   11.2211   -2.4236 H       1  LIG1        0.0279
     51 C          -5.5373   13.7261   -0.6937 C.3     1  LIG1       -0.0365
     52 H          -6.6007   13.6283   -0.4529 H       1  LIG1        0.0279
     53 H          -5.4585   13.7905   -1.7838 H       1  LIG1        0.0279
     54 H          -5.1880   14.6745   -0.2794 H       1  LIG1        0.0279
@<TRIPOS>BOND
     1    50    47    1
     2    14    11    1
     3     9     7    1
     4    53    51    1
     5    49    47    1
     6    13    11    1
     7    47    48    1
     8    47    42    1
     9    11    12    1
    10    11     3    1
    11     7     8    1
    12     7    10    1
    13     7     2    1
    14    51    52    1
    15    51    54    1
    16    51    43    1
    17     3     2   ar
    18     3     4   ar
    19    42    43   ar
    20    42    41   ar
    21    39    37    1
    22    22    20    1
    23    35    33    1
    24    26    24    1
    25     2     1   ar
    26    43    44   ar
    27     4    15    1
    28     4     5   ar
    29    41    31    1
    30    41    45   ar
    31    19    15   ar
    32    19    18   ar
    33    32    31   ar
    34    32    28   ar
    35    15    16   ar
    36    31    30   ar
    37    28    18    1
    38    28    29   ar
    39    18    17   ar
    40    30    29   ar
    41    30    37    1
    42    16    17   ar
    43    16    20    1
    44    29    33    1
    45    17    24    1
    46    37    40    1
    47    37    38    1
    48    20    23    1
    49    20    21    1
    50    33    34    1
    51    33    36    1
    52    24    25    1
    53    24    27    1
    54     1     5   ar
    55     1     6    1
    56    44    45   ar
    57    44    46    1
