@<TRIPOS>MOLECULE
mol_data/opt/cam/geoms/mol2/12ii12ii-12ii12ii.out
 54 57 0 0 0
SMALL
GASTEIGER

@<TRIPOS>ATOM
      1 C           0.2381    1.7308   -0.5125 C.ar    1  LIG1        0.0959
      2 C           1.4859    1.6985    0.0114 C.ar    1  LIG1       -0.0091
      3 C           1.8513    3.0695    0.2541 C.ar    1  LIG1        0.0013
      4 C           0.7844    3.8187   -0.1559 C.ar    1  LIG1        0.1731
      5 O          -0.2074    3.0080   -0.6271 O.2     1  LIG1       -0.4593
      6 H          -0.4415    0.9611   -0.8435 H       1  LIG1        0.1032
      7 C           2.3236    0.4943    0.2957 C.3     1  LIG1       -0.0365
      8 H           2.5844    0.4304    1.3570 H       1  LIG1        0.0279
      9 H           3.2630    0.5191   -0.2656 H       1  LIG1        0.0279
     10 H           1.7982   -0.4246    0.0265 H       1  LIG1        0.0279
     11 C           3.1409    3.5283    0.8556 C.3     1  LIG1       -0.0358
     12 H           3.0943    4.5772    1.1457 H       1  LIG1        0.0279
     13 H           3.9737    3.4136    0.1526 H       1  LIG1        0.0279
     14 H           3.3868    2.9358    1.7424 H       1  LIG1        0.0279
     15 C           0.5170    5.2384   -0.1850 C.ar    1  LIG1        0.1741
     16 C          -0.6217    5.9847   -0.2909 C.ar    1  LIG1        0.0020
     17 C          -0.2077    7.3585   -0.2576 C.ar    1  LIG1        0.0020
     18 C           1.1522    7.3445   -0.1267 C.ar    1  LIG1        0.1741
     19 O           1.6043    6.0569   -0.0833 O.2     1  LIG1       -0.4481
     20 C          -2.0367    5.5177   -0.4082 C.3     1  LIG1       -0.0357
     21 H          -2.1087    4.4363   -0.3042 H       1  LIG1        0.0279
     22 H          -2.4624    5.7899   -1.3801 H       1  LIG1        0.0279
     23 H          -2.6643    5.9842    0.3578 H       1  LIG1        0.0279
     24 C          -1.1283    8.5320   -0.3562 C.3     1  LIG1       -0.0357
     25 H          -1.8112    8.5669    0.4995 H       1  LIG1        0.0279
     26 H          -1.7473    8.4648   -1.2568 H       1  LIG1        0.0279
     27 H          -0.5781    9.4708   -0.3818 H       1  LIG1        0.0279
     28 C           2.1589    8.3755   -0.0357 C.ar    1  LIG1        0.1741
     29 C           3.5220    8.3764   -0.1496 C.ar    1  LIG1        0.0020
     30 C           3.9338    9.7346    0.0657 C.ar    1  LIG1        0.0020
     31 C           2.7951   10.4566    0.2685 C.ar    1  LIG1        0.1741
     32 O           1.7062    9.6346    0.2150 O.2     1  LIG1       -0.4481
     33 C           4.4412    7.2310   -0.4304 C.3     1  LIG1       -0.0357
     34 H           5.0082    6.9455    0.4630 H       1  LIG1        0.0279
     35 H           5.1710    7.4997   -1.2004 H       1  LIG1        0.0279
     36 H           3.8918    6.3535   -0.7683 H       1  LIG1        0.0279
     37 C           5.3447   10.2250    0.1056 C.3     1  LIG1       -0.0357
     38 H           5.3937   11.2425    0.4974 H       1  LIG1        0.0279
     39 H           5.8064   10.2247   -0.8877 H       1  LIG1        0.0279
     40 H           5.9599    9.5859    0.7460 H       1  LIG1        0.0279
     41 C           2.5459   11.8610    0.5135 C.ar    1  LIG1        0.1731
     42 C           3.0188   13.0006   -0.0696 C.ar    1  LIG1        0.0013
     43 C           2.4056   14.0932    0.6384 C.ar    1  LIG1       -0.0091
     44 C           1.6070   13.5225    1.5728 C.ar    1  LIG1        0.0959
     45 O           1.6764   12.1715    1.5197 O.2     1  LIG1       -0.4593
     46 H           0.9465   13.9343    2.3204 H       1  LIG1        0.1032
     47 C           3.9355   13.1140   -1.2443 C.3     1  LIG1       -0.0358
     48 H           3.5399   13.8217   -1.9794 H       1  LIG1        0.0279
     49 H           4.0579   12.1485   -1.7387 H       1  LIG1        0.0279
     50 H           4.9300   13.4720   -0.9570 H       1  LIG1        0.0279
     51 C           2.6003   15.5507    0.3713 C.3     1  LIG1       -0.0365
     52 H           1.9914   16.1592    1.0436 H       1  LIG1        0.0279
     53 H           2.3221   15.8102   -0.6553 H       1  LIG1        0.0279
     54 H           3.6451   15.8479    0.5068 H       1  LIG1        0.0279
@<TRIPOS>BOND
     1    48    47    1
     2    49    47    1
     3    22    20    1
     4    26    24    1
     5    47    50    1
     6    47    42    1
     7    35    33    1
     8    39    37    1
     9     6     1    1
    10    36    33    1
    11    53    51    1
    12     5     1   ar
    13     5     4   ar
    14     1     2   ar
    15    33    29    1
    16    33    34    1
    17    20    21    1
    18    20    16    1
    19    20    23    1
    20    27    24    1
    21    24    17    1
    22    24    25    1
    23    16    17   ar
    24    16    15   ar
    25     9     7    1
    26    17    18   ar
    27    15     4    1
    28    15    19   ar
    29     4     3   ar
    30    29    28   ar
    31    29    30   ar
    32    18    19   ar
    33    18    28    1
    34    42    41   ar
    35    42    43   ar
    36    28    32   ar
    37     2     3   ar
    38     2     7    1
    39    10     7    1
    40    30    37    1
    41    30    31   ar
    42    37    38    1
    43    37    40    1
    44    13    11    1
    45    32    31   ar
    46     3    11    1
    47    31    41    1
    48     7     8    1
    49    51    54    1
    50    51    43    1
    51    51    52    1
    52    41    45   ar
    53    43    44   ar
    54    11    12    1
    55    11    14    1
    56    45    44   ar
    57    44    46    1
