@<TRIPOS>MOLECULE
mol_data/opt/cam/geoms/mol2/12ii.out
 15 15 0 0 0
SMALL
GASTEIGER

@<TRIPOS>ATOM
      1 C           0.0956    1.9032    0.0885 C.ar    1  LIG1        0.0948
      2 C           1.4481    1.8809    0.0123 C.ar    1  LIG1       -0.0099
      3 C           1.8610    3.2632    0.0124 C.ar    1  LIG1       -0.0099
      4 C           0.7178    3.9864    0.0878 C.ar    1  LIG1        0.0948
      5 O          -0.3708    3.1770    0.1352 O.2     1  LIG1       -0.4705
      6 H          -0.6500    1.1235    0.1173 H       1  LIG1        0.1032
      7 H           0.5219    5.0473    0.1161 H       1  LIG1        0.1032
      8 C           2.3398    0.6833   -0.0574 C.3     1  LIG1       -0.0365
      9 H           3.0385    0.6545    0.7850 H       1  LIG1        0.0279
     10 H           2.9398    0.6834   -0.9732 H       1  LIG1        0.0279
     11 H           1.7604   -0.2424   -0.0401 H       1  LIG1        0.0279
     12 C           3.2635    3.7755   -0.0571 C.3     1  LIG1       -0.0365
     13 H           3.2866    4.8675   -0.0399 H       1  LIG1        0.0279
     14 H           3.7653    3.4463   -0.9727 H       1  LIG1        0.0279
     15 H           3.8633    3.4166    0.7855 H       1  LIG1        0.0279
@<TRIPOS>BOND
     1    10     8    1
     2    14    12    1
     3     8    11    1
     4     8     2    1
     5     8     9    1
     6    12    13    1
     7    12     3    1
     8    12    15    1
     9     2     3   ar
    10     2     1   ar
    11     3     4   ar
    12     4     7    1
    13     4     5   ar
    14     1     6    1
    15     1     5   ar
