@<TRIPOS>MOLECULE
mol_data/opt/cam/geoms/mol2/12ii12ii-12ii.out
 41 43 0 0 0
SMALL
GASTEIGER

@<TRIPOS>ATOM
      1 C           0.2096    1.7899   -0.4167 C.ar    1  LIG1        0.0959
      2 C           1.5099    1.7544   -0.0423 C.ar    1  LIG1       -0.0091
      3 C           1.8937    3.1216    0.1944 C.ar    1  LIG1        0.0013
      4 C           0.7821    3.8722   -0.0675 C.ar    1  LIG1        0.1731
      5 O          -0.2531    3.0660   -0.4430 O.2     1  LIG1       -0.4593
      6 H          -0.4996    1.0236   -0.6881 H       1  LIG1        0.1032
      7 C           2.3821    0.5505    0.1085 C.3     1  LIG1       -0.0365
      8 H           2.7666    0.4611    1.1296 H       1  LIG1        0.0279
      9 H           3.2486    0.5984   -0.5586 H       1  LIG1        0.0279
     10 H           1.8339   -0.3657   -0.1219 H       1  LIG1        0.0279
     11 C           3.2435    3.5737    0.6518 C.3     1  LIG1       -0.0358
     12 H           3.2280    4.6148    0.9716 H       1  LIG1        0.0279
     13 H           3.9879    3.4815   -0.1471 H       1  LIG1        0.0279
     14 H           3.5943    2.9609    1.4881 H       1  LIG1        0.0279
     15 C           0.5043    5.2897   -0.0255 C.ar    1  LIG1        0.1741
     16 C          -0.6428    6.0301   -0.0016 C.ar    1  LIG1        0.0020
     17 C          -0.2333    7.4054    0.0362 C.ar    1  LIG1        0.0020
     18 C           1.1322    7.3982    0.0404 C.ar    1  LIG1        0.1741
     19 O           1.5922    6.1137    0.0013 O.2     1  LIG1       -0.4481
     20 C          -2.0613    5.5584   -0.0037 C.3     1  LIG1       -0.0357
     21 H          -2.1202    4.4730    0.0568 H       1  LIG1        0.0279
     22 H          -2.5790    5.8725   -0.9165 H       1  LIG1        0.0279
     23 H          -2.6137    5.9848    0.8399 H       1  LIG1        0.0279
     24 C          -1.1632    8.5757    0.0568 C.3     1  LIG1       -0.0357
     25 H          -1.7550    8.5918    0.9784 H       1  LIG1        0.0279
     26 H          -1.8710    8.5242   -0.7768 H       1  LIG1        0.0279
     27 H          -0.6200    9.5170   -0.0076 H       1  LIG1        0.0279
     28 C           2.1401    8.4332    0.0722 C.ar    1  LIG1        0.1731
     29 C           3.4774    8.4552   -0.2090 C.ar    1  LIG1        0.0013
     30 C           3.9068    9.8088    0.0274 C.ar    1  LIG1       -0.0091
     31 C           2.8041   10.4883    0.4207 C.ar    1  LIG1        0.0959
     32 O           1.7196    9.6725    0.4591 O.2     1  LIG1       -0.4593
     33 H           2.6330   11.5164    0.6991 H       1  LIG1        0.1032
     34 C           4.3537    7.3408   -0.6839 C.3     1  LIG1       -0.0358
     35 H           5.0390    7.0077    0.1037 H       1  LIG1        0.0279
     36 H           4.9703    7.6658   -1.5279 H       1  LIG1        0.0279
     37 H           3.7671    6.4789   -0.9989 H       1  LIG1        0.0279
     38 C           5.2929   10.3409   -0.1412 C.3     1  LIG1       -0.0365
     39 H           5.3381   11.4067    0.0932 H       1  LIG1        0.0279
     40 H           5.6489   10.2100   -1.1681 H       1  LIG1        0.0279
     41 H           6.0018    9.8242    0.5135 H       1  LIG1        0.0279
@<TRIPOS>BOND
     1    36    34    1
     2    40    38    1
     3    37    34    1
     4    22    20    1
     5    26    24    1
     6     6     1    1
     7    34    29    1
     8    34    35    1
     9     9     7    1
    10     5     1   ar
    11     5     4   ar
    12     1     2   ar
    13    29    30   ar
    14    29    28   ar
    15    13    11    1
    16    38    30    1
    17    38    39    1
    18    38    41    1
    19    10     7    1
    20     4    15    1
    21     4     3   ar
    22     2     7    1
    23     2     3   ar
    24    15    16   ar
    25    15    19   ar
    26    27    24    1
    27    20    16    1
    28    20    21    1
    29    20    23    1
    30    16    17   ar
    31    19    18   ar
    32    30    31   ar
    33    17    18   ar
    34    17    24    1
    35    18    28    1
    36    24    25    1
    37    28    32   ar
    38     7     8    1
    39     3    11    1
    40    31    32   ar
    41    31    33    1
    42    11    12    1
    43    11    14    1
