@<TRIPOS>MOLECULE
mol_data/opt/cam/geoms/mol2/12ii12ii-.out
 28 29 0 0 0
SMALL
GASTEIGER

@<TRIPOS>ATOM
      1 C           0.1826    1.8196   -0.1363 C.ar    1  LIG1        0.0959
      2 C           1.5323    1.7924   -0.0449 C.ar    1  LIG1       -0.0091
      3 C           1.9571    3.1675    0.0048 C.ar    1  LIG1        0.0013
      4 C           0.8145    3.9140   -0.0646 C.ar    1  LIG1        0.1731
      5 O          -0.2754    3.0978   -0.1523 O.2     1  LIG1       -0.4593
      6 H          -0.5680    1.0472   -0.1976 H       1  LIG1        0.1032
      7 C           2.4199    0.5913    0.0002 C.3     1  LIG1       -0.0365
      8 H           3.0112    0.5663    0.9212 H       1  LIG1        0.0279
      9 H           3.1265    0.5853   -0.8358 H       1  LIG1        0.0279
     10 H           1.8384   -0.3321   -0.0477 H       1  LIG1        0.0279
     11 C           3.3777    3.6205    0.1173 C.3     1  LIG1       -0.0358
     12 H           3.4452    4.7018    0.2202 H       1  LIG1        0.0279
     13 H           3.9548    3.3288   -0.7671 H       1  LIG1        0.0279
     14 H           3.8656    3.1598    0.9827 H       1  LIG1        0.0279
     15 C           0.5437    5.3360   -0.0647 C.ar    1  LIG1        0.1731
     16 C          -0.5989    6.0826    0.0048 C.ar    1  LIG1        0.0013
     17 C          -0.1740    7.4576   -0.0450 C.ar    1  LIG1       -0.0091
     18 C           1.1756    7.4304   -0.1364 C.ar    1  LIG1        0.0959
     19 O           1.6336    6.1522   -0.1524 O.2     1  LIG1       -0.4593
     20 H           1.9263    8.2028   -0.1978 H       1  LIG1        0.1032
     21 C          -2.0195    5.6295    0.1172 C.3     1  LIG1       -0.0358
     22 H          -2.0870    4.5483    0.2202 H       1  LIG1        0.0279
     23 H          -2.5965    5.9212   -0.7672 H       1  LIG1        0.0279
     24 H          -2.5073    6.0903    0.9826 H       1  LIG1        0.0279
     25 C          -1.0616    8.6587    0.0000 C.3     1  LIG1       -0.0365
     26 H          -1.6529    8.6838    0.9209 H       1  LIG1        0.0279
     27 H          -1.7683    8.6647   -0.8360 H       1  LIG1        0.0279
     28 H          -0.4802    9.5821   -0.0480 H       1  LIG1        0.0279
@<TRIPOS>BOND
     1    27    25    1
     2     9     7    1
     3    23    21    1
     4    13    11    1
     5    20    18    1
     6     6     1    1
     7    19    18   ar
     8    19    15   ar
     9     5     1   ar
    10     5     4   ar
    11    18    17   ar
    12     1     2   ar
    13    15     4    1
    14    15    16   ar
    15     4     3   ar
    16    28    25    1
    17    10     7    1
    18    17    25    1
    19    17    16   ar
    20     2     7    1
    21     2     3   ar
    22    25    26    1
    23     7     8    1
    24    16    21    1
    25     3    11    1
    26    21    22    1
    27    21    24    1
    28    11    12    1
    29    11    14    1
