@<TRIPOS>MOLECULE
mol_data/opt/cam/geoms/mol2/12il12il12il12il-.out
 58 61 0 0 0
SMALL
GASTEIGER

@<TRIPOS>ATOM
      1 C           0.8800    1.7775    2.0505 C.ar    1  LIG1        0.0993
      2 C           1.9975    1.5978    1.3042 C.ar    1  LIG1        0.0297
      3 C           2.1957    2.8503    0.6384 C.ar    1  LIG1        0.1716
      4 C           1.1994    3.6969    1.0405 C.ar    1  LIG1        0.2116
      5 O           0.3825    3.0296    1.9052 O.2     1  LIG1       -0.4557
      6 H           0.3295    1.1260    2.7112 H       1  LIG1        0.1033
      7 C           2.8548    0.3832    1.1694 C.3     1  LIG1       -0.0332
      8 H           3.8775    0.5843    1.4999 H       1  LIG1        0.0280
      9 H           2.9132    0.0528    0.1284 H       1  LIG1        0.0280
     10 H           2.4616   -0.4435    1.7648 H       1  LIG1        0.0280
     11 O           3.2282    3.0905   -0.2199 O.3     1  LIG1       -0.4909
     12 C           2.8397    3.3715   -1.5601 C.3     1  LIG1        0.0790
     13 H           3.7607    3.4546   -2.1382 H       1  LIG1        0.0660
     14 H           2.2249    2.5610   -1.9656 H       1  LIG1        0.0660
     15 H           2.2830    4.3113   -1.6268 H       1  LIG1        0.0660
     16 C           0.8852    5.0791    0.7621 C.ar    1  LIG1        0.1809
     17 C           1.6578    6.1764    0.5023 C.ar    1  LIG1        0.0410
     18 C           0.7283    7.2418    0.2965 C.ar    1  LIG1        0.1723
     19 C          -0.5327    6.7400    0.4729 C.ar    1  LIG1        0.2127
     20 O          -0.4377    5.4084    0.7438 O.2     1  LIG1       -0.4444
     21 C           3.1453    6.3108    0.4816 C.3     1  LIG1       -0.0325
     22 H           3.4969    6.8434    1.3706 H       1  LIG1        0.0280
     23 H           3.4676    6.8947   -0.3849 H       1  LIG1        0.0280
     24 H           3.6347    5.3370    0.4478 H       1  LIG1        0.0280
     25 O           1.1041    8.5209    0.0095 O.3     1  LIG1       -0.4909
     26 C           0.6939    8.9890   -1.2703 C.3     1  LIG1        0.0790
     27 H           1.1164    9.9877   -1.3850 H       1  LIG1        0.0660
     28 H           1.0750    8.3377   -2.0643 H       1  LIG1        0.0660
     29 H          -0.3965    9.0448   -1.3454 H       1  LIG1        0.0660
     30 C          -1.8569    7.3110    0.4438 C.ar    1  LIG1        0.1809
     31 C          -2.3607    8.5474    0.7348 C.ar    1  LIG1        0.0410
     32 C          -3.7690    8.4425    0.5067 C.ar    1  LIG1        0.1723
     33 C          -4.0301    7.1593    0.1063 C.ar    1  LIG1        0.2126
     34 O          -2.8602    6.4691    0.0551 O.2     1  LIG1       -0.4444
     35 C          -1.6650    9.7576    1.2655 C.3     1  LIG1       -0.0325
     36 H          -2.0367   10.0024    2.2645 H       1  LIG1        0.0280
     37 H          -1.8584   10.6300    0.6338 H       1  LIG1        0.0280
     38 H          -0.5867    9.6072    1.3197 H       1  LIG1        0.0280
     39 O          -4.6516    9.4494    0.7433 O.3     1  LIG1       -0.4909
     40 C          -5.1296   10.1143   -0.4193 C.3     1  LIG1        0.0790
     41 H          -5.7668   10.9278   -0.0699 H       1  LIG1        0.0660
     42 H          -4.3016   10.5309   -1.0051 H       1  LIG1        0.0660
     43 H          -5.7158    9.4360   -1.0448 H       1  LIG1        0.0660
     44 C          -5.2343    6.4402   -0.2231 C.ar    1  LIG1        0.1799
     45 C          -5.4997    5.1203   -0.4550 C.ar    1  LIG1        0.0402
     46 C          -6.9071    5.0754   -0.7198 C.ar    1  LIG1        0.1612
     47 C          -7.3913    6.3421   -0.6319 C.ar    1  LIG1        0.1345
     48 O          -6.3653    7.1908   -0.3272 O.2     1  LIG1       -0.4557
     49 H          -8.3646    6.7876   -0.7419 H       1  LIG1        0.1068
     50 C          -4.5950    3.9319   -0.4404 C.3     1  LIG1       -0.0325
     51 H          -3.5994    4.1916   -0.0844 H       1  LIG1        0.0280
     52 H          -4.5004    3.5023   -1.4429 H       1  LIG1        0.0280
     53 H          -5.0072    3.1490    0.2026 H       1  LIG1        0.0280
     54 O          -7.5422    3.9145   -0.9927 O.3     1  LIG1       -0.4917
     55 C          -8.9320    4.0342   -1.2122 C.3     1  LIG1        0.0789
     56 H          -9.3090    3.0320   -1.4138 H       1  LIG1        0.0660
     57 H          -9.4362    4.4436   -0.3281 H       1  LIG1        0.0660
     58 H          -9.1402    4.6825   -2.0725 H       1  LIG1        0.0660
@<TRIPOS>BOND
     1    13    12    1
     2    58    55    1
     3    28    26    1
     4    14    12    1
     5    15    12    1
     6    12    11    1
     7    52    50    1
     8    56    55    1
     9    27    26    1
    10    29    26    1
    11    26    25    1
    12    55    54    1
    13    55    57    1
    14    43    40    1
    15    42    40    1
    16    54    46    1
    17    49    47    1
    18    46    47   ar
    19    46    45   ar
    20    47    48   ar
    21    45    50    1
    22    45    44   ar
    23    50    51    1
    24    50    53    1
    25    40    41    1
    26    40    39    1
    27    23    21    1
    28    48    44   ar
    29    44    33    1
    30    11     3    1
    31    25    18    1
    32    34    33   ar
    33    34    30   ar
    34    33    32   ar
    35     9     7    1
    36    18    19   ar
    37    18    17   ar
    38    30    19    1
    39    30    31   ar
    40    24    21    1
    41    19    20   ar
    42    21    17    1
    43    21    22    1
    44    17    16   ar
    45    32    31   ar
    46    32    39    1
    47    37    35    1
    48     3     4   ar
    49     3     2   ar
    50    31    35    1
    51    20    16   ar
    52    16     4    1
    53     4     5   ar
    54     7     2    1
    55     7     8    1
    56     7    10    1
    57    35    38    1
    58    35    36    1
    59     2     1   ar
    60     5     1   ar
    61     1     6    1
