@<TRIPOS>MOLECULE
mol_data/opt/cam/geoms/mol2/12il12il-12il12il-.out
 58 61 0 0 0
SMALL
GASTEIGER

@<TRIPOS>ATOM
      1 C          -0.0523    1.6005   -0.2313 C.ar    1  LIG1        0.0993
      2 C           1.2898    1.4827   -0.0884 C.ar    1  LIG1        0.0297
      3 C           1.7790    2.8299   -0.0470 C.ar    1  LIG1        0.1716
      4 C           0.6977    3.6604   -0.1652 C.ar    1  LIG1        0.2116
      5 O          -0.4312    2.9066   -0.2747 O.2     1  LIG1       -0.4557
      6 H          -0.8488    0.8779   -0.3143 H       1  LIG1        0.1033
      7 C           2.1195    0.2442   -0.0075 C.3     1  LIG1       -0.0332
      8 H           2.6266    0.1657    0.9589 H       1  LIG1        0.0280
      9 H           2.8949    0.2448   -0.7781 H       1  LIG1        0.0280
     10 H           1.5073   -0.6503   -0.1389 H       1  LIG1        0.0280
     11 O           3.0938    3.1720    0.0464 O.3     1  LIG1       -0.4909
     12 C           3.5094    3.5646    1.3499 C.3     1  LIG1        0.0790
     13 H           4.5847    3.7378    1.2938 H       1  LIG1        0.0660
     14 H           3.0099    4.4875    1.6584 H       1  LIG1        0.0660
     15 H           3.3063    2.7756    2.0832 H       1  LIG1        0.0660
     16 C           0.5460    5.0884   -0.2162 C.ar    1  LIG1        0.1809
     17 C          -0.5307    5.9147   -0.3774 C.ar    1  LIG1        0.0410
     18 C           0.0120    7.2375   -0.3556 C.ar    1  LIG1        0.1723
     19 C           1.3659    7.1318   -0.1802 C.ar    1  LIG1        0.2127
     20 O           1.6938    5.8138   -0.0870 O.2     1  LIG1       -0.4444
     21 C          -1.9731    5.5744   -0.5643 C.3     1  LIG1       -0.0325
     22 H          -2.4451    5.2818    0.3789 H       1  LIG1        0.0280
     23 H          -2.1013    4.7440   -1.2605 H       1  LIG1        0.0280
     24 H          -2.5037    6.4463   -0.9521 H       1  LIG1        0.0280
     25 O          -0.7134    8.3721   -0.5471 O.3     1  LIG1       -0.4909
     26 C          -1.0718    9.0532    0.6513 C.3     1  LIG1        0.0790
     27 H          -1.6987    9.8943    0.3527 H       1  LIG1        0.0660
     28 H          -1.6390    8.3974    1.3215 H       1  LIG1        0.0660
     29 H          -0.1827    9.4273    1.1662 H       1  LIG1        0.0660
     30 C           2.4341    8.0912   -0.1265 C.ar    1  LIG1        0.1809
     31 C           3.7931    7.9937   -0.2084 C.ar    1  LIG1        0.0410
     32 C           4.2689    9.3424   -0.1425 C.ar    1  LIG1        0.1723
     33 C           3.1821   10.1694   -0.0107 C.ar    1  LIG1        0.2126
     34 O           2.0515    9.3886   -0.0021 O.2     1  LIG1       -0.4444
     35 C           4.6645    6.7935   -0.3803 C.3     1  LIG1       -0.0325
     36 H           5.2128    6.5720    0.5416 H       1  LIG1        0.0280
     37 H           5.4131    6.9821   -1.1542 H       1  LIG1        0.0280
     38 H           4.0857    5.9109   -0.6515 H       1  LIG1        0.0280
     39 O           5.5918    9.5900   -0.2408 O.3     1  LIG1       -0.4909
     40 C           6.0000   10.8462   -0.7611 C.3     1  LIG1        0.0790
     41 H           7.0611   10.7477   -0.9916 H       1  LIG1        0.0660
     42 H           5.4480   11.0842   -1.6771 H       1  LIG1        0.0660
     43 H           5.8498   11.6461   -0.0341 H       1  LIG1        0.0660
     44 C           2.9408   11.5866    0.1402 C.ar    1  LIG1        0.1799
     45 C           1.9073   12.3789   -0.2704 C.ar    1  LIG1        0.0402
     46 C           2.2144   13.6807    0.2422 C.ar    1  LIG1        0.1612
     47 C           3.3941   13.5979    0.9117 C.ar    1  LIG1        0.1345
     48 O           3.8442   12.3084    0.8644 O.2     1  LIG1       -0.4557
     49 H           4.0108   14.3014    1.4437 H       1  LIG1        0.1068
     50 C           0.7086   12.0387   -1.0942 C.3     1  LIG1       -0.0325
     51 H           0.6508   10.9692   -1.2952 H       1  LIG1        0.0280
     52 H           0.7265   12.5759   -2.0476 H       1  LIG1        0.0280
     53 H          -0.2088   12.3404   -0.5797 H       1  LIG1        0.0280
     54 O           1.4039   14.7405    0.0282 O.3     1  LIG1       -0.4917
     55 C           1.8494   15.9544    0.5959 C.3     1  LIG1        0.0789
     56 H           1.1058   16.7118    0.3497 H       1  LIG1        0.0660
     57 H           1.9381   15.8698    1.6861 H       1  LIG1        0.0660
     58 H           2.8217   16.2491    0.1820 H       1  LIG1        0.0660
@<TRIPOS>BOND
     1    52    50    1
     2    42    40    1
     3    51    50    1
     4    23    21    1
     5    37    35    1
     6    50    53    1
     7    50    45    1
     8    41    40    1
     9    24    21    1
    10     9     7    1
    11    40    39    1
    12    40    43    1
    13    38    35    1
    14    21    17    1
    15    21    22    1
    16    25    18    1
    17    25    26    1
    18    35    31    1
    19    35    36    1
    20    17    18   ar
    21    17    16   ar
    22    18    19   ar
    23     6     1    1
    24     5     1   ar
    25     5     4   ar
    26    45    44   ar
    27    45    46   ar
    28    39    32    1
    29     1     2   ar
    30    16     4    1
    31    16    20   ar
    32    31    32   ar
    33    31    30   ar
    34    19    30    1
    35    19    20   ar
    36     4     3   ar
    37    32    33   ar
    38    10     7    1
    39    30    34   ar
    40     2     3   ar
    41     2     7    1
    42     3    11    1
    43    33    34   ar
    44    33    44    1
    45     7     8    1
    46    54    46    1
    47    54    55    1
    48    11    12    1
    49    44    48   ar
    50    58    55    1
    51    46    47   ar
    52    56    55    1
    53    27    26    1
    54    55    57    1
    55    26    29    1
    56    26    28    1
    57    48    47   ar
    58    47    49    1
    59    13    12    1
    60    12    14    1
    61    12    15    1
