@<TRIPOS>MOLECULE
mol_data/opt/cam/geoms/mol2/12il12li4ii6hd.out
 53 56 0 0 0
SMALL
GASTEIGER

@<TRIPOS>ATOM
      1 C           0.4366    1.6788   -0.6810 C.ar    1  LIG1        0.0975
      2 C           1.7588    1.6758   -0.3500 C.ar    1  LIG1        0.0087
      3 C           2.0864    3.0465   -0.0495 C.ar    1  LIG1        0.0770
      4 C           0.9242    3.7762   -0.2380 C.ar    1  LIG1        0.1923
      5 O          -0.0961    2.9232   -0.6216 O.2     1  LIG1       -0.4576
      6 H          -0.2402    0.8879   -0.9682 H       1  LIG1        0.1033
      7 C           2.6942    0.5091   -0.2748 C.3     1  LIG1       -0.0350
      8 H           3.1280    0.4104    0.7273 H       1  LIG1        0.0279
      9 H           3.5289    0.6077   -0.9812 H       1  LIG1        0.0279
     10 H           2.1786   -0.4260   -0.5092 H       1  LIG1        0.0279
     11 N           3.3075    3.4923    0.4261 N.pl3   1  LIG1       -0.3548
     12 H           4.1003    2.9545    0.1019 H       1  LIG1        0.1424
     13 H           3.4325    4.5023    0.3321 H       1  LIG1        0.1424
     14 C           0.5958    5.1637   -0.0962 C.ar    1  LIG1        0.1931
     15 C           1.3428    6.3219    0.0167 C.ar    1  LIG1        0.0777
     16 C           0.4192    7.4101    0.1556 C.ar    1  LIG1        0.0167
     17 C          -0.8415    6.8523    0.1119 C.ar    1  LIG1        0.1407
     18 O          -0.7261    5.4881   -0.0496 O.2     1  LIG1       -0.4495
     19 N           2.7696    6.3860   -0.0450 N.pl3   1  LIG1       -0.3547
     20 H           3.0900    6.6797   -0.9662 H       1  LIG1        0.1424
     21 H           3.1356    7.0553    0.6269 H       1  LIG1        0.1424
     22 C           0.8104    8.8531    0.2724 C.3     1  LIG1       -0.0343
     23 H           0.6832    9.2394    1.2911 H       1  LIG1        0.0279
     24 H           0.2211    9.4892   -0.3952 H       1  LIG1        0.0279
     25 H           1.8641    8.9843    0.0060 H       1  LIG1        0.0279
     26 C          -2.4796    8.6981    0.5279 C.ar    1  LIG1       -0.0503
     27 C          -3.7948    9.1485    0.5538 C.ar    1  LIG1       -0.0498
     28 C          -2.1980    7.3694    0.1603 C.ar    1  LIG1        0.0211
     29 C          -4.8744    8.3151    0.2380 C.ar    1  LIG1        0.0265
     30 H          -4.0006   10.1688    0.8650 H       1  LIG1        0.0625
     31 C          -3.2739    6.5210   -0.1728 C.ar    1  LIG1       -0.0087
     32 C          -4.5874    6.9827   -0.1436 C.ar    1  LIG1        0.1285
     33 H          -3.0576    5.5027   -0.4649 H       1  LIG1        0.0661
     34 H          -1.6854    9.3699    0.8255 H       1  LIG1        0.0625
     35 O          -5.6597    6.2271   -0.5074 O.3     1  LIG1       -0.4945
     36 C          -5.4890    4.8213   -0.6477 C.3     1  LIG1        0.0788
     37 H          -6.4865    4.4188   -0.8264 H       1  LIG1        0.0660
     38 H          -4.8418    4.5772   -1.4988 H       1  LIG1        0.0660
     39 H          -5.0770    4.3803    0.2664 H       1  LIG1        0.0660
     40 C          -7.2991    8.2506    1.0433 C.ar    1  LIG1        0.1478
     41 C          -6.2602    8.8407    0.2841 C.ar    1  LIG1        0.0217
     42 C          -6.5957   10.0088   -0.4104 C.ar    1  LIG1       -0.0468
     43 C          -7.8879   10.5366   -0.3622 C.ar    1  LIG1       -0.0317
     44 C          -8.8256    9.8381    0.4091 C.ar    1  LIG1        0.0320
     45 N          -8.5494    8.7327    1.0999 N.ar    1  LIG1       -0.2438
     46 H          -5.8319   10.4958   -1.0110 H       1  LIG1        0.0628
     47 H          -9.8521   10.1959    0.4738 H       1  LIG1        0.0832
     48 N          -6.8714    6.1654    2.5478 N.1     1  LIG1       -0.1893
     49 C          -7.0572    7.0871    1.8643 C.1     1  LIG1        0.1197
     50 C          -8.2621   11.7900   -1.1104 C.3     1  LIG1       -0.0383
     51 H          -9.3229   12.0234   -0.9878 H       1  LIG1        0.0278
     52 H          -8.0614   11.6871   -2.1824 H       1  LIG1        0.0278
     53 H          -7.6858   12.6515   -0.7548 H       1  LIG1        0.0278
@<TRIPOS>BOND
     1    52    50    1
     2    38    36    1
     3    50    51    1
     4    50    53    1
     5    50    43    1
     6    46    42    1
     7     9     7    1
     8     6     1    1
     9    20    19    1
    10    37    36    1
    11     1     5   ar
    12     1     2   ar
    13    36    35    1
    14    36    39    1
    15     5     4   ar
    16    10     7    1
    17    35    32    1
    18    33    31    1
    19    42    43   ar
    20    42    41   ar
    21    24    22    1
    22    43    44   ar
    23     2     7    1
    24     2     3   ar
    25     7     8    1
    26     4    14    1
    27     4     3   ar
    28    31    32   ar
    29    31    28   ar
    30    32    29   ar
    31    14    18   ar
    32    14    15   ar
    33    18    17   ar
    34     3    11    1
    35    19    15    1
    36    19    21    1
    37    25    22    1
    38    15    16   ar
    39    12    11    1
    40    17    16   ar
    41    17    28    1
    42    16    22    1
    43    28    26   ar
    44    29    41    1
    45    29    27   ar
    46    22    23    1
    47    41    40   ar
    48    13    11    1
    49    44    47    1
    50    44    45   ar
    51    26    27   ar
    52    26    34    1
    53    27    30    1
    54    40    45   ar
    55    40    49    1
    56    49    48    3
