@<TRIPOS>MOLECULE
mol_data/opt/cam/geoms/mol2/12il12il12il12il.out
 58 61 0 0 0
SMALL
GASTEIGER

@<TRIPOS>ATOM
      1 C           0.6607    1.7412    1.9434 C.ar    1  LIG1        0.0993
      2 C           1.8085    1.5905    1.2372 C.ar    1  LIG1        0.0297
      3 C           2.0170    2.8604    0.6078 C.ar    1  LIG1        0.1716
      4 C           0.9931    3.6835    0.9876 C.ar    1  LIG1        0.2116
      5 O           0.1521    2.9901    1.8060 O.2     1  LIG1       -0.4557
      6 H           0.0940    1.0687    2.5685 H       1  LIG1        0.1033
      7 C           2.6842    0.3880    1.1112 C.3     1  LIG1       -0.0332
      8 H           3.6954    0.5981    1.4702 H       1  LIG1        0.0280
      9 H           2.7733    0.0691    0.0687 H       1  LIG1        0.0280
     10 H           2.2862   -0.4499    1.6873 H       1  LIG1        0.0280
     11 O           3.0697    3.1422   -0.2119 O.3     1  LIG1       -0.4909
     12 C           2.7171    3.3667   -1.5716 C.3     1  LIG1        0.0790
     13 H           3.6521    3.5083   -2.1153 H       1  LIG1        0.0660
     14 H           2.1816    2.5058   -1.9864 H       1  LIG1        0.0660
     15 H           2.0935    4.2600   -1.6805 H       1  LIG1        0.0660
     16 C           0.6925    5.0681    0.7182 C.ar    1  LIG1        0.1809
     17 C           1.4966    6.1576    0.5309 C.ar    1  LIG1        0.0410
     18 C           0.5924    7.2418    0.3002 C.ar    1  LIG1        0.1723
     19 C          -0.6805    6.7518    0.3847 C.ar    1  LIG1        0.2127
     20 O          -0.6223    5.4159    0.6377 O.2     1  LIG1       -0.4444
     21 C           2.9849    6.2491    0.6100 C.3     1  LIG1       -0.0325
     22 H           3.2758    7.2367    0.9763 H       1  LIG1        0.0280
     23 H           3.4625    6.1012   -0.3643 H       1  LIG1        0.0280
     24 H           3.3893    5.4898    1.2812 H       1  LIG1        0.0280
     25 O           0.9393    8.5416    0.0786 O.3     1  LIG1       -0.4909
     26 C           1.3914    8.8007   -1.2439 C.3     1  LIG1        0.0790
     27 H           1.6322    9.8634   -1.2902 H       1  LIG1        0.0660
     28 H           2.2886    8.2186   -1.4824 H       1  LIG1        0.0660
     29 H           0.6111    8.5694   -1.9773 H       1  LIG1        0.0660
     30 C          -1.9775    7.3719    0.2826 C.ar    1  LIG1        0.1809
     31 C          -2.4305    8.6189    0.6089 C.ar    1  LIG1        0.0410
     32 C          -3.8125    8.6099    0.2430 C.ar    1  LIG1        0.1723
     33 C          -4.1116    7.3720   -0.2520 C.ar    1  LIG1        0.2126
     34 O          -2.9845    6.6106   -0.2328 O.2     1  LIG1       -0.4444
     35 C          -1.7044    9.7537    1.2518 C.3     1  LIG1       -0.0325
     36 H          -2.4103   10.3709    1.8128 H       1  LIG1        0.0280
     37 H          -1.2047   10.3912    0.5164 H       1  LIG1        0.0280
     38 H          -0.9315    9.3917    1.9319 H       1  LIG1        0.0280
     39 O          -4.6793    9.6510    0.4085 O.3     1  LIG1       -0.4909
     40 C          -4.6355   10.6106   -0.6407 C.3     1  LIG1        0.0790
     41 H          -5.3640   11.3826   -0.3902 H       1  LIG1        0.0660
     42 H          -3.6413   11.0641   -0.7217 H       1  LIG1        0.0660
     43 H          -4.9004   10.1543   -1.6003 H       1  LIG1        0.0660
     44 C          -5.3232    6.7616   -0.7512 C.ar    1  LIG1        0.1799
     45 C          -6.6445    6.9015   -0.4335 C.ar    1  LIG1        0.0402
     46 C          -7.3305    6.0168   -1.3319 C.ar    1  LIG1        0.1612
     47 C          -6.3947    5.4091   -2.1031 C.ar    1  LIG1        0.1345
     48 O          -5.1635    5.8588   -1.7639 O.2     1  LIG1       -0.4557
     49 H          -6.4514    4.6866   -2.9006 H       1  LIG1        0.1068
     50 C          -7.2900    7.7427    0.6196 C.3     1  LIG1       -0.0325
     51 H          -7.4056    7.1880    1.5574 H       1  LIG1        0.0280
     52 H          -8.2886    8.0438    0.2920 H       1  LIG1        0.0280
     53 H          -6.7024    8.6365    0.8301 H       1  LIG1        0.0280
     54 O          -8.6817    5.8527   -1.4195 O.3     1  LIG1       -0.4917
     55 C          -9.2289    5.0092   -0.4173 C.3     1  LIG1        0.0789
     56 H         -10.3027    4.9576   -0.6019 H       1  LIG1        0.0660
     57 H          -8.8001    4.0021   -0.4734 H       1  LIG1        0.0660
     58 H          -9.0564    5.4105    0.5878 H       1  LIG1        0.0660
@<TRIPOS>BOND
     1    49    47    1
     2    13    12    1
     3    47    48   ar
     4    47    46   ar
     5    14    12    1
     6    29    26    1
     7    48    44   ar
     8    15    12    1
     9    43    40    1
    10    12    11    1
    11    28    26    1
    12    54    46    1
    13    54    55    1
    14    46    45   ar
    15    27    26    1
    16    26    25    1
    17    44    45   ar
    18    44    33    1
    19    42    40    1
    20    40    41    1
    21    40    39    1
    22    56    55    1
    23    57    55    1
    24    45    50    1
    25    55    58    1
    26    23    21    1
    27    33    34   ar
    28    33    32   ar
    29    34    30   ar
    30    11     3    1
    31     9     7    1
    32    25    18    1
    33    32    39    1
    34    32    31   ar
    35    30    19    1
    36    30    31   ar
    37    52    50    1
    38    18    19   ar
    39    18    17   ar
    40    19    20   ar
    41    37    35    1
    42    17    21    1
    43    17    16   ar
    44     3     4   ar
    45     3     2   ar
    46    31    35    1
    47    21    22    1
    48    21    24    1
    49    50    53    1
    50    50    51    1
    51    20    16   ar
    52    16     4    1
    53     4     5   ar
    54     7     2    1
    55     7     8    1
    56     7    10    1
    57     2     1   ar
    58    35    36    1
    59    35    38    1
    60     5     1   ar
    61     1     6    1
