@<TRIPOS>MOLECULE
mol_data/opt/cam/geoms/mol2/12il12il12il-12il-.out
 58 61 0 0 0
SMALL
GASTEIGER

@<TRIPOS>ATOM
      1 C           0.2541    1.4870    0.6052 C.ar    1  LIG1        0.0993
      2 C           1.5832    1.5427    0.3448 C.ar    1  LIG1        0.0297
      3 C           1.8757    2.9410    0.2374 C.ar    1  LIG1        0.1716
      4 C           0.7124    3.6263    0.4565 C.ar    1  LIG1        0.2116
      5 O          -0.2905    2.7272    0.6739 O.2     1  LIG1       -0.4557
      6 H          -0.4277    0.6645    0.7560 H       1  LIG1        0.1033
      7 C           2.5592    0.4241    0.1877 C.3     1  LIG1       -0.0332
      8 H           3.3520    0.4851    0.9383 H       1  LIG1        0.0280
      9 H           3.0429    0.4551   -0.7928 H       1  LIG1        0.0280
     10 H           2.0667   -0.5449    0.2914 H       1  LIG1        0.0280
     11 O           3.1203    3.4331   -0.0242 O.3     1  LIG1       -0.4909
     12 C           3.2399    4.1332   -1.2590 C.3     1  LIG1        0.0790
     13 H           4.2942    4.3893   -1.3681 H       1  LIG1        0.0660
     14 H           2.9283    3.5005   -2.0967 H       1  LIG1        0.0660
     15 H           2.6419    5.0496   -1.2591 H       1  LIG1        0.0660
     16 C           0.3746    5.0283    0.5188 C.ar    1  LIG1        0.1809
     17 C           1.0533    6.1370    0.9397 C.ar    1  LIG1        0.0410
     18 C           0.1585    7.2304    0.7203 C.ar    1  LIG1        0.1723
     19 C          -1.0018    6.7187    0.2036 C.ar    1  LIG1        0.2127
     20 O          -0.8735    5.3711    0.0771 O.2     1  LIG1       -0.4444
     21 C           2.4125    6.2440    1.5506 C.3     1  LIG1       -0.0325
     22 H           2.3437    6.3704    2.6362 H       1  LIG1        0.0280
     23 H           2.9343    7.1204    1.1581 H       1  LIG1        0.0280
     24 H           3.0130    5.3554    1.3531 H       1  LIG1        0.0280
     25 O           0.4598    8.5349    0.9678 O.3     1  LIG1       -0.4909
     26 C          -0.0633    9.0374    2.1926 C.3     1  LIG1        0.0790
     27 H           0.3088   10.0576    2.2934 H       1  LIG1        0.0660
     28 H          -1.1569    9.0512    2.1737 H       1  LIG1        0.0660
     29 H           0.2815    8.4390    3.0435 H       1  LIG1        0.0660
     30 C          -2.2405    7.3056   -0.2220 C.ar    1  LIG1        0.1809
     31 C          -3.3864    6.7932   -0.7628 C.ar    1  LIG1        0.0410
     32 C          -4.2324    7.9259   -0.9781 C.ar    1  LIG1        0.1723
     33 C          -3.5579    9.0401   -0.5551 C.ar    1  LIG1        0.2126
     34 O          -2.3388    8.6590   -0.0825 O.2     1  LIG1       -0.4444
     35 C          -3.7330    5.3793   -1.0972 C.3     1  LIG1       -0.0325
     36 H          -4.0283    4.8157   -0.2065 H       1  LIG1        0.0280
     37 H          -2.8870    4.8538   -1.5426 H       1  LIG1        0.0280
     38 H          -4.5702    5.3674   -1.7979 H       1  LIG1        0.0280
     39 O          -5.4553    7.8654   -1.5683 O.3     1  LIG1       -0.4909
     40 C          -6.5553    7.9085   -0.6670 C.3     1  LIG1        0.0790
     41 H          -7.4551    7.7902   -1.2720 H       1  LIG1        0.0660
     42 H          -6.5000    7.0923    0.0624 H       1  LIG1        0.0660
     43 H          -6.5919    8.8676   -0.1433 H       1  LIG1        0.0660
     44 C          -3.8559   10.4485   -0.5475 C.ar    1  LIG1        0.1799
     45 C          -3.0880   11.5627   -0.3583 C.ar    1  LIG1        0.0402
     46 C          -4.0021   12.6583   -0.4878 C.ar    1  LIG1        0.1612
     47 C          -5.2350   12.1479   -0.7450 C.ar    1  LIG1        0.1345
     48 O          -5.1540   10.7847   -0.7809 O.2     1  LIG1       -0.4557
     49 H          -6.2067   12.5748   -0.9220 H       1  LIG1        0.1068
     50 C          -1.6236   11.6977   -0.0959 C.3     1  LIG1       -0.0325
     51 H          -1.1057   10.7445   -0.1958 H       1  LIG1        0.0280
     52 H          -1.4420   12.0823    0.9134 H       1  LIG1        0.0280
     53 H          -1.1789   12.4155   -0.7910 H       1  LIG1        0.0280
     54 O          -3.5956   13.9412   -0.3658 O.3     1  LIG1       -0.4917
     55 C          -4.6108   14.9062   -0.5461 C.3     1  LIG1        0.0789
     56 H          -4.1442   15.8837   -0.4279 H       1  LIG1        0.0660
     57 H          -5.0524   14.8302   -1.5474 H       1  LIG1        0.0660
     58 H          -5.4040   14.7875    0.2025 H       1  LIG1        0.0660
@<TRIPOS>BOND
     1    14    12    1
     2    38    35    1
     3    39    32    1
     4    39    40    1
     5    57    55    1
     6    37    35    1
     7    13    12    1
     8    41    40    1
     9    15    12    1
    10    12    11    1
    11    35    31    1
    12    35    36    1
    13    32    31   ar
    14    32    33   ar
    15    49    47    1
    16     9     7    1
    17    53    50    1
    18    48    47   ar
    19    48    44   ar
    20    31    30   ar
    21    47    46   ar
    22    40    43    1
    23    40    42    1
    24    33    44    1
    25    33    34   ar
    26    44    45   ar
    27    55    56    1
    28    55    54    1
    29    55    58    1
    30    46    54    1
    31    46    45   ar
    32    45    50    1
    33    30    34   ar
    34    30    19    1
    35    51    50    1
    36    50    52    1
    37    11     3    1
    38    20    19   ar
    39    20    16   ar
    40     7    10    1
    41     7     2    1
    42     7     8    1
    43    19    18   ar
    44     3     2   ar
    45     3     4   ar
    46     2     1   ar
    47     4    16    1
    48     4     5   ar
    49    16    17   ar
    50     1     5   ar
    51     1     6    1
    52    18    17   ar
    53    18    25    1
    54    17    21    1
    55    25    26    1
    56    23    21    1
    57    24    21    1
    58    21    22    1
    59    28    26    1
    60    26    27    1
    61    26    29    1
