@<TRIPOS>MOLECULE
mol_data/opt/cam/geoms/mol2/12il12il-12il12il.out
 58 61 0 0 0
SMALL
GASTEIGER

@<TRIPOS>ATOM
      1 C          -0.0179    1.6511    0.2698 C.ar    1  LIG1        0.0993
      2 C           1.3329    1.5506    0.3035 C.ar    1  LIG1        0.0297
      3 C           1.8090    2.8968    0.1733 C.ar    1  LIG1        0.1716
      4 C           0.7125    3.7097    0.0738 C.ar    1  LIG1        0.2116
      5 O          -0.4133    2.9461    0.1364 O.2     1  LIG1       -0.4557
      6 H          -0.8106    0.9219    0.3262 H       1  LIG1        0.1033
      7 C           2.1794    0.3270    0.4267 C.3     1  LIG1       -0.0332
      8 H           2.7711    0.3417    1.3469 H       1  LIG1        0.0280
      9 H           2.8832    0.2555   -0.4068 H       1  LIG1        0.0280
     10 H           1.5671   -0.5770    0.4359 H       1  LIG1        0.0280
     11 O           3.1229    3.2512    0.1159 O.3     1  LIG1       -0.4909
     12 C           3.6492    3.7569    1.3377 C.3     1  LIG1        0.0790
     13 H           4.7134    3.9279    1.1703 H       1  LIG1        0.0660
     14 H           3.1688    4.7013    1.6092 H       1  LIG1        0.0660
     15 H           3.5214    3.0342    2.1518 H       1  LIG1        0.0660
     16 C           0.5405    5.1255   -0.0990 C.ar    1  LIG1        0.1809
     17 C          -0.5560    5.9257   -0.2535 C.ar    1  LIG1        0.0410
     18 C          -0.0333    7.2489   -0.4003 C.ar    1  LIG1        0.1723
     19 C           1.3326    7.1696   -0.3219 C.ar    1  LIG1        0.2127
     20 O           1.6840    5.8671   -0.1272 O.2     1  LIG1       -0.4444
     21 C          -2.0036    5.5598   -0.2956 C.3     1  LIG1       -0.0325
     22 H          -2.3790    5.2806    0.6936 H       1  LIG1        0.0280
     23 H          -2.1835    4.7121   -0.9595 H       1  LIG1        0.0280
     24 H          -2.5811    6.4149   -0.6517 H       1  LIG1        0.0280
     25 O          -0.7982    8.3421   -0.6521 O.3     1  LIG1       -0.4909
     26 C          -1.0082    9.2080    0.4586 C.3     1  LIG1        0.0790
     27 H          -1.7038    9.9767    0.1203 H       1  LIG1        0.0660
     28 H          -1.4500    8.6649    1.3019 H       1  LIG1        0.0660
     29 H          -0.0722    9.6780    0.7696 H       1  LIG1        0.0660
     30 C           2.4024    8.1228   -0.4385 C.ar    1  LIG1        0.1809
     31 C           3.7505    7.9987   -0.6356 C.ar    1  LIG1        0.0410
     32 C           4.2363    9.3414   -0.6860 C.ar    1  LIG1        0.1723
     33 C           3.1765   10.1858   -0.5046 C.ar    1  LIG1        0.2126
     34 O           2.0460    9.4351   -0.3590 O.2     1  LIG1       -0.4444
     35 C           4.5901    6.7739   -0.7994 C.3     1  LIG1       -0.0325
     36 H           5.2135    6.6075    0.0855 H       1  LIG1        0.0280
     37 H           5.2711    6.8895   -1.6468 H       1  LIG1        0.0280
     38 H           3.9807    5.8842   -0.9546 H       1  LIG1        0.0280
     39 O           5.5473    9.6587   -0.8850 O.3     1  LIG1       -0.4909
     40 C           5.8163   10.3309   -2.1124 C.3     1  LIG1        0.0790
     41 H           6.8995   10.4407   -2.1733 H       1  LIG1        0.0660
     42 H           5.4595    9.7424   -2.9639 H       1  LIG1        0.0660
     43 H           5.3485   11.3199   -2.1371 H       1  LIG1        0.0660
     44 C           3.0365   11.6202   -0.4188 C.ar    1  LIG1        0.1799
     45 C           3.8495   12.6073    0.0635 C.ar    1  LIG1        0.0402
     46 C           3.1256   13.8246   -0.1725 C.ar    1  LIG1        0.1612
     47 C           1.9446   13.4922   -0.7508 C.ar    1  LIG1        0.1345
     48 O           1.8782   12.1483   -0.9130 O.2     1  LIG1       -0.4557
     49 H           1.1056   14.0708   -1.1009 H       1  LIG1        0.1068
     50 C           5.1825   12.4960    0.7305 C.3     1  LIG1       -0.0325
     51 H           5.0834   12.5186    1.8215 H       1  LIG1        0.0280
     52 H           5.8171   13.3392    0.4447 H       1  LIG1        0.0280
     53 H           5.6892   11.5673    0.4651 H       1  LIG1        0.0280
     54 O           3.5675   15.0863    0.0957 O.3     1  LIG1       -0.4917
     55 C           3.4460   15.4689    1.4573 C.3     1  LIG1        0.0789
     56 H           3.8255   16.4887    1.5319 H       1  LIG1        0.0660
     57 H           2.3991   15.4449    1.7809 H       1  LIG1        0.0660
     58 H           4.0338   14.8185    2.1149 H       1  LIG1        0.0660
@<TRIPOS>BOND
     1    42    40    1
     2    41    40    1
     3    43    40    1
     4    40    39    1
     5    37    35    1
     6    49    47    1
     7    23    21    1
     8    38    35    1
     9    48    47   ar
    10    48    44   ar
    11    39    32    1
    12    35    31    1
    13    35    36    1
    14    47    46   ar
    15    32    31   ar
    16    32    33   ar
    17    25    18    1
    18    25    26    1
    19    24    21    1
    20    31    30   ar
    21    33    44    1
    22    33    34   ar
    23    30    34   ar
    24    30    19    1
    25    44    45   ar
    26     9     7    1
    27    18    19   ar
    28    18    17   ar
    29    19    20   ar
    30    21    17    1
    31    21    22    1
    32    17    16   ar
    33    46    45   ar
    34    46    54    1
    35    20    16   ar
    36    16     4    1
    37    45    50    1
    38     4     5   ar
    39     4     3   ar
    40    54    55    1
    41    11     3    1
    42    11    12    1
    43    27    26    1
    44     5     1   ar
    45     3     2   ar
    46     1     2   ar
    47     1     6    1
    48     2     7    1
    49     7    10    1
    50     7     8    1
    51    52    50    1
    52    26    29    1
    53    26    28    1
    54    53    50    1
    55    50    51    1
    56    13    12    1
    57    12    14    1
    58    12    15    1
    59    55    56    1
    60    55    57    1
    61    55    58    1
