@<TRIPOS>MOLECULE
mol_data/opt/cam/geoms/mol2/12il12il-12il.out
 44 46 0 0 0
SMALL
GASTEIGER

@<TRIPOS>ATOM
      1 C          -0.0339    1.7253   -0.1260 C.ar    1  LIG1        0.0993
      2 C           1.3107    1.6038   -0.2396 C.ar    1  LIG1        0.0297
      3 C           1.8049    2.9497   -0.2583 C.ar    1  LIG1        0.1716
      4 C           0.7250    3.7832   -0.1515 C.ar    1  LIG1        0.2116
      5 O          -0.4078    3.0322   -0.0664 O.2     1  LIG1       -0.4557
      6 H          -0.8353    1.0051   -0.0767 H       1  LIG1        0.1033
      7 C           2.1346    0.3633   -0.3464 C.3     1  LIG1       -0.0332
      8 H           2.8125    0.2593    0.5061 H       1  LIG1        0.0280
      9 H           2.7525    0.3834   -1.2480 H       1  LIG1        0.0280
     10 H           1.5038   -0.5272   -0.3839 H       1  LIG1        0.0280
     11 O           3.1156    3.2908   -0.4050 O.3     1  LIG1       -0.4909
     12 C           3.7718    3.6312    0.8103 C.3     1  LIG1        0.0790
     13 H           4.8197    3.8028    0.5604 H       1  LIG1        0.0660
     14 H           3.3476    4.5427    1.2417 H       1  LIG1        0.0660
     15 H           3.7024    2.8156    1.5394 H       1  LIG1        0.0660
     16 C           0.5700    5.2119   -0.1398 C.ar    1  LIG1        0.1809
     17 C          -0.5191    6.0356   -0.0989 C.ar    1  LIG1        0.0410
     18 C           0.0167    7.3610   -0.1417 C.ar    1  LIG1        0.1723
     19 C           1.3810    7.2598   -0.2001 C.ar    1  LIG1        0.2126
     20 O           1.7221    5.9405   -0.1890 O.2     1  LIG1       -0.4444
     21 C          -1.9721    5.6932   -0.0482 C.3     1  LIG1       -0.0325
     22 H          -2.2720    5.3485    0.9463 H       1  LIG1        0.0280
     23 H          -2.2209    4.8982   -0.7534 H       1  LIG1        0.0280
     24 H          -2.5609    6.5794   -0.2927 H       1  LIG1        0.0280
     25 O          -0.7393    8.4895   -0.1873 O.3     1  LIG1       -0.4909
     26 C          -0.8522    9.1842    1.0488 C.3     1  LIG1        0.0790
     27 H          -1.5289   10.0212    0.8721 H       1  LIG1        0.0660
     28 H          -1.2722    8.5376    1.8279 H       1  LIG1        0.0660
     29 H           0.1203    9.5651    1.3726 H       1  LIG1        0.0660
     30 C           2.4530    8.2135   -0.3071 C.ar    1  LIG1        0.1799
     31 C           3.7834    8.0944   -0.5978 C.ar    1  LIG1        0.0402
     32 C           4.2810    9.4415   -0.5721 C.ar    1  LIG1        0.1612
     33 C           3.2426   10.2602   -0.2743 C.ar    1  LIG1        0.1345
     34 O           2.1151    9.5202   -0.1098 O.2     1  LIG1       -0.4557
     35 H           3.1471   11.3286   -0.1761 H       1  LIG1        0.1068
     36 C           4.5825    6.8755   -0.9282 C.3     1  LIG1       -0.0325
     37 H           5.1277    6.5016   -0.0537 H       1  LIG1        0.0280
     38 H           5.3241    7.1152   -1.6949 H       1  LIG1        0.0280
     39 H           3.9509    6.0628   -1.2870 H       1  LIG1        0.0280
     40 O           5.5535    9.8329   -0.8640 O.3     1  LIG1       -0.4917
     41 C           6.4898    9.5927    0.1750 C.3     1  LIG1        0.0789
     42 H           7.4547    9.9545   -0.1822 H       1  LIG1        0.0660
     43 H           6.2126   10.1336    1.0873 H       1  LIG1        0.0660
     44 H           6.5717    8.5251    0.4084 H       1  LIG1        0.0660
@<TRIPOS>BOND
     1    38    36    1
     2    39    36    1
     3     9     7    1
     4    36    31    1
     5    36    37    1
     6    40    32    1
     7    40    41    1
     8    23    21    1
     9    31    32   ar
    10    31    30   ar
    11    32    33   ar
    12    11     3    1
    13    11    12    1
    14    10     7    1
    15     7     2    1
    16     7     8    1
    17    30    19    1
    18    30    34   ar
    19    24    21    1
    20    33    35    1
    21    33    34   ar
    22     3     2   ar
    23     3     4   ar
    24     2     1   ar
    25    19    20   ar
    26    19    18   ar
    27    20    16   ar
    28    25    18    1
    29    25    26    1
    30    42    41    1
    31     4    16    1
    32     4     5   ar
    33    18    17   ar
    34    16    17   ar
    35     1     6    1
    36     1     5   ar
    37    17    21    1
    38    21    22    1
    39    41    44    1
    40    41    43    1
    41    13    12    1
    42    12    14    1
    43    12    15    1
    44    27    26    1
    45    26    29    1
    46    26    28    1
