@<TRIPOS>MOLECULE
mol_data/opt/cam/geoms/mol2/12il13dd-4dd-12fi-.out
 49 52 0 0 0
SMALL
GASTEIGER

@<TRIPOS>ATOM
      1 C           0.1858    1.6999   -0.5712 C.ar    1  LIG1        0.0992
      2 C           1.5311    1.6466   -0.7272 C.ar    1  LIG1        0.0297
      3 C           1.9846    2.9904   -0.4864 C.ar    1  LIG1        0.1700
      4 C           0.8829    3.7417   -0.1898 C.ar    1  LIG1        0.1938
      5 O          -0.2321    2.9516   -0.2512 O.2     1  LIG1       -0.4574
      6 H          -0.5880    0.9531   -0.6586 H       1  LIG1        0.1033
      7 C           2.3637    0.4694   -1.1194 C.3     1  LIG1       -0.0332
      8 H           2.9295    0.0705   -0.2722 H       1  LIG1        0.0280
      9 H           3.0826    0.7481   -1.8943 H       1  LIG1        0.0280
     10 H           1.7399   -0.3369   -1.5104 H       1  LIG1        0.0280
     11 O           3.2331    3.4805   -0.6363 O.3     1  LIG1       -0.4910
     12 C           4.2200    2.9950    0.2732 C.3     1  LIG1        0.0790
     13 H           5.1220    3.5706    0.0744 H       1  LIG1        0.0660
     14 H           3.9126    3.1692    1.3076 H       1  LIG1        0.0660
     15 H           4.4160    1.9300    0.1154 H       1  LIG1        0.0660
     16 C           0.6467    5.1344    0.0868 C.ar    1  LIG1        0.1051
     17 C           1.4675    6.1789    0.4856 C.ar    1  LIG1        0.0980
     18 C           0.6452    7.3492    0.5776 C.ar    1  LIG1        0.0950
     19 C          -0.6440    6.9838    0.2420 C.ar    1  LIG1        0.0671
     20 N          -0.6149    5.6443   -0.0379 N.ar    1  LIG1       -0.3496
     21 H          -1.3990    5.1003   -0.3659 H       1  LIG1        0.1661
     22 N           3.9534    6.0746    1.1524 N.1     1  LIG1       -0.1908
     23 C           2.8419    6.1111    0.8319 C.1     1  LIG1        0.1027
     24 N           1.3773    9.6708    1.4249 N.1     1  LIG1       -0.1908
     25 C           1.0560    8.6308    1.0335 C.1     1  LIG1        0.1026
     26 C          -2.0432    8.9601   -0.4695 C.ar    1  LIG1        0.0616
     27 C          -3.2424    9.6587   -0.4378 C.ar    1  LIG1       -0.0317
     28 C          -1.8979    7.7432    0.2251 C.ar    1  LIG1        0.0182
     29 C          -4.3597    9.1805    0.2610 C.ar    1  LIG1        0.0395
     30 H          -3.3188   10.5914   -0.9804 H       1  LIG1        0.0638
     31 C          -3.0069    7.2592    0.9069 C.ar    1  LIG1       -0.0333
     32 C          -4.2236    7.9450    0.9307 C.ar    1  LIG1        0.0632
     33 H          -2.9288    6.3319    1.4636 H       1  LIG1        0.0637
     34 N          -0.1644    9.9116   -1.9803 N.1     1  LIG1       -0.1908
     35 C          -0.9823    9.4832   -1.2847 C.1     1  LIG1        0.0998
     36 N          -6.0620    6.7228    2.2848 N.1     1  LIG1       -0.1908
     37 C          -5.2801    7.3154    1.6725 C.1     1  LIG1        0.0999
     38 C          -5.5752    9.9622    0.2541 C.ar    1  LIG1        0.1775
     39 C          -5.9099   11.1652   -0.3157 C.ar    1  LIG1        0.1656
     40 C          -7.2671   11.4521    0.0264 C.ar    1  LIG1        0.0294
     41 C          -7.6592   10.3946    0.7835 C.ar    1  LIG1        0.0991
     42 O          -6.6685    9.4969    0.9304 O.2     1  LIG1       -0.4588
     43 H          -8.5918   10.1557    1.2707 H       1  LIG1        0.1033
     44 O          -5.0835   11.9265   -1.0685 O.3     1  LIG1       -0.5030
     45 H          -5.5336   12.7388   -1.3287 H       1  LIG1        0.2923
     46 C          -8.0483   12.6605   -0.3772 C.3     1  LIG1       -0.0332
     47 H          -9.0639   12.6163    0.0195 H       1  LIG1        0.0280
     48 H          -8.1279   12.7461   -1.4662 H       1  LIG1        0.0280
     49 H          -7.5927   13.5824    0.0001 H       1  LIG1        0.0280
@<TRIPOS>BOND
     1    34    35    3
     2     9     7    1
     3    10     7    1
     4    48    46    1
     5    45    44    1
     6    35    26    1
     7     7     2    1
     8     7     8    1
     9    44    39    1
    10    30    27    1
    11     2     1   ar
    12     2     3   ar
    13     6     1    1
    14    11     3    1
    15    11    12    1
    16     1     5   ar
    17     3     4   ar
    18    26    27   ar
    19    26    28   ar
    20    27    29   ar
    21    46    49    1
    22    46    47    1
    23    46    40    1
    24    21    20    1
    25    39    40   ar
    26    39    38   ar
    27     5     4   ar
    28     4    16    1
    29    20    16   ar
    30    20    19   ar
    31    40    41   ar
    32    13    12    1
    33    16    17   ar
    34    15    12    1
    35    28    19    1
    36    28    31   ar
    37    19    18   ar
    38    38    29    1
    39    38    42   ar
    40    29    32   ar
    41    12    14    1
    42    17    18   ar
    43    17    23    1
    44    18    25    1
    45    41    42   ar
    46    41    43    1
    47    23    22    3
    48    31    32   ar
    49    31    33    1
    50    32    37    1
    51    25    24    3
    52    37    36    3
