@<TRIPOS>MOLECULE
mol_data/opt/cam/geoms/mol2/12il12il-12il-12il-.out
 58 61 0 0 0
SMALL
GASTEIGER

@<TRIPOS>ATOM
      1 C           0.0981    1.7174   -0.3596 C.ar    1  LIG1        0.0993
      2 C           1.3622    1.5183    0.0773 C.ar    1  LIG1        0.0297
      3 C           1.8597    2.8237    0.4084 C.ar    1  LIG1        0.1716
      4 C           0.8594    3.7249    0.1307 C.ar    1  LIG1        0.2116
      5 O          -0.2309    3.0294   -0.3363 O.2     1  LIG1       -0.4557
      6 H          -0.6709    1.0426   -0.7025 H       1  LIG1        0.1033
      7 C           2.1240    0.2440    0.2236 C.3     1  LIG1       -0.0332
      8 H           2.4778    0.1171    1.2504 H       1  LIG1        0.0280
      9 H           3.0071    0.2365   -0.4216 H       1  LIG1        0.0280
     10 H           1.5047   -0.6172   -0.0358 H       1  LIG1        0.0280
     11 O           3.1101    2.9396    0.8983 O.3     1  LIG1       -0.4909
     12 C           3.4557    4.0680    1.6899 C.3     1  LIG1        0.0790
     13 H           4.3536    3.7832    2.2395 H       1  LIG1        0.0660
     14 H           3.6588    4.9431    1.0717 H       1  LIG1        0.0660
     15 H           2.6551    4.3056    2.3984 H       1  LIG1        0.0660
     16 C           0.6794    5.1556    0.1587 C.ar    1  LIG1        0.1809
     17 C          -0.4454    5.9336    0.1452 C.ar    1  LIG1        0.0410
     18 C           0.0376    7.2786    0.1325 C.ar    1  LIG1        0.1723
     19 C           1.4045    7.2421    0.1575 C.ar    1  LIG1        0.2127
     20 O           1.7943    5.9348    0.1593 O.2     1  LIG1       -0.4444
     21 C          -1.8836    5.5299    0.1619 C.3     1  LIG1       -0.0325
     22 H          -2.2566    5.3105   -0.8437 H       1  LIG1        0.0280
     23 H          -2.4882    6.3400    0.5765 H       1  LIG1        0.0280
     24 H          -2.0372    4.6324    0.7627 H       1  LIG1        0.0280
     25 O          -0.7535    8.3905    0.1317 O.3     1  LIG1       -0.4909
     26 C          -1.1888    8.7852   -1.1645 C.3     1  LIG1        0.0790
     27 H          -1.8135    9.6688   -1.0294 H       1  LIG1        0.0660
     28 H          -0.3360    9.0329   -1.8054 H       1  LIG1        0.0660
     29 H          -1.7771    7.9943   -1.6424 H       1  LIG1        0.0660
     30 C           2.4631    8.2224    0.1984 C.ar    1  LIG1        0.1809
     31 C           2.5413    9.5374    0.5684 C.ar    1  LIG1        0.0410
     32 C           3.9048    9.9011    0.3441 C.ar    1  LIG1        0.1723
     33 C           4.5703    8.7969   -0.1113 C.ar    1  LIG1        0.2126
     34 O           3.6821    7.7685   -0.2140 O.2     1  LIG1       -0.4444
     35 C           1.5034   10.4512    1.1321 C.3     1  LIG1       -0.0325
     36 H           0.5147    9.9955    1.1059 H       1  LIG1        0.0280
     37 H           1.4721   11.3900    0.5713 H       1  LIG1        0.0280
     38 H           1.7436   10.7114    2.1676 H       1  LIG1        0.0280
     39 O           4.3909   11.1486    0.5997 O.3     1  LIG1       -0.4909
     40 C           4.9117   11.8350   -0.5332 C.3     1  LIG1        0.0790
     41 H           5.1805   12.8351   -0.1917 H       1  LIG1        0.0660
     42 H           5.8005   11.3361   -0.9310 H       1  LIG1        0.0660
     43 H           4.1573   11.9089   -1.3238 H       1  LIG1        0.0660
     44 C           5.9459    8.5200   -0.4558 C.ar    1  LIG1        0.1799
     45 C           7.1341    8.9925    0.0256 C.ar    1  LIG1        0.0402
     46 C           8.1349    8.3184   -0.7462 C.ar    1  LIG1        0.1612
     47 C           7.4984    7.4895   -1.6158 C.ar    1  LIG1        0.1345
     48 O           6.1515    7.6106   -1.4475 O.2     1  LIG1       -0.4557
     49 H           7.8267    6.7902   -2.3653 H       1  LIG1        0.1068
     50 C           7.4028    9.9446    1.1442 C.3     1  LIG1       -0.0325
     51 H           6.4804   10.3881    1.5196 H       1  LIG1        0.0280
     52 H           8.0655   10.7511    0.8165 H       1  LIG1        0.0280
     53 H           7.9084    9.4361    1.9709 H       1  LIG1        0.0280
     54 O           9.4545    8.5345   -0.5475 O.3     1  LIG1       -0.4917
     55 C          10.3114    7.7735   -1.3728 C.3     1  LIG1        0.0789
     56 H          11.3324    8.0454   -1.1068 H       1  LIG1        0.0660
     57 H          10.1646    6.6989   -1.2080 H       1  LIG1        0.0660
     58 H          10.1382    7.9972   -2.4328 H       1  LIG1        0.0660
@<TRIPOS>BOND
     1    58    55    1
     2    49    47    1
     3    28    26    1
     4    29    26    1
     5    47    48   ar
     6    47    46   ar
     7    48    44   ar
     8    55    57    1
     9    55    56    1
    10    55    54    1
    11    43    40    1
    12    26    27    1
    13    26    25    1
    14    42    40    1
    15    22    21    1
    16    46    54    1
    17    46    45   ar
    18     6     1    1
    19    40    41    1
    20    40    39    1
    21    44    33    1
    22    44    45   ar
    23     9     7    1
    24     1     5   ar
    25     1     2   ar
    26     5     4   ar
    27    34    33   ar
    28    34    30   ar
    29    33    32   ar
    30    10     7    1
    31    45    50    1
    32     2     7    1
    33     2     3   ar
    34     4    16    1
    35     4     3   ar
    36    25    18    1
    37    18    17   ar
    38    18    19   ar
    39    17    16   ar
    40    17    21    1
    41    19    20   ar
    42    19    30    1
    43    16    20   ar
    44    21    23    1
    45    21    24    1
    46    30    31   ar
    47     7     8    1
    48    32    31   ar
    49    32    39    1
    50     3    11    1
    51    31    35    1
    52    37    35    1
    53    52    50    1
    54    11    12    1
    55    14    12    1
    56    36    35    1
    57    35    38    1
    58    50    51    1
    59    50    53    1
    60    12    13    1
    61    12    15    1
