@<TRIPOS>MOLECULE
mol_data/opt/cam/geoms/mol2/12il12il.out
 30 31 0 0 0
SMALL
GASTEIGER

@<TRIPOS>ATOM
      1 C           0.0791    1.6136    0.3689 C.ar    1  LIG1        0.0993
      2 C           1.4307    1.5164    0.4080 C.ar    1  LIG1        0.0297
      3 C           1.8977    2.8577    0.2174 C.ar    1  LIG1        0.1716
      4 C           0.8006    3.6640    0.0918 C.ar    1  LIG1        0.2116
      5 O          -0.3219    2.8946    0.1773 O.2     1  LIG1       -0.4557
      6 H          -0.7090    0.8815    0.4530 H       1  LIG1        0.1033
      7 C           2.2820    0.3049    0.5977 C.3     1  LIG1       -0.0332
      8 H           2.8999    0.3943    1.4955 H       1  LIG1        0.0280
      9 H           2.9622    0.1622   -0.2468 H       1  LIG1        0.0280
     10 H           1.6701   -0.5943    0.6947 H       1  LIG1        0.0280
     11 O           3.2162    3.2042    0.1853 O.3     1  LIG1       -0.4909
     12 C           3.6684    3.7107   -1.0642 C.3     1  LIG1        0.0790
     13 H           4.7424    3.8724   -0.9627 H       1  LIG1        0.0660
     14 H           3.4830    2.9917   -1.8697 H       1  LIG1        0.0660
     15 H           3.1796    4.6581   -1.3126 H       1  LIG1        0.0660
     16 C           0.6352    5.0894   -0.0676 C.ar    1  LIG1        0.1799
     17 C           1.3492    6.1517    0.4089 C.ar    1  LIG1        0.0402
     18 C           0.6663    7.3082   -0.0998 C.ar    1  LIG1        0.1612
     19 C          -0.3946    6.8697   -0.8220 C.ar    1  LIG1        0.1345
     20 O          -0.4254    5.5141   -0.8126 O.2     1  LIG1       -0.4557
     21 H          -1.1871    7.3754   -1.3485 H       1  LIG1        0.1068
     22 C           2.5260    6.1495    1.3281 C.3     1  LIG1       -0.0325
     23 H           2.4804    7.0171    1.9913 H       1  LIG1        0.0280
     24 H           3.4766    6.1972    0.7857 H       1  LIG1        0.0280
     25 H           2.5491    5.2424    1.9338 H       1  LIG1        0.0280
     26 O           0.9771    8.6088    0.1642 O.3     1  LIG1       -0.4917
     27 C           2.1103    9.0909   -0.5407 C.3     1  LIG1        0.0789
     28 H           2.2469   10.1310   -0.2422 H       1  LIG1        0.0660
     29 H           3.0149    8.5250   -0.2899 H       1  LIG1        0.0660
     30 H           1.9508    9.0407   -1.6240 H       1  LIG1        0.0660
@<TRIPOS>BOND
     1    14    12    1
     2    30    27    1
     3    21    19    1
     4    15    12    1
     5    12    13    1
     6    12    11    1
     7    19    20   ar
     8    19    18   ar
     9    20    16   ar
    10    27    29    1
    11    27    28    1
    12    27    26    1
    13     9     7    1
    14    18    26    1
    15    18    17   ar
    16    16     4    1
    17    16    17   ar
    18     4     5   ar
    19     4     3   ar
    20     5     1   ar
    21    11     3    1
    22     3     2   ar
    23     1     2   ar
    24     1     6    1
    25     2     7    1
    26    17    22    1
    27     7    10    1
    28     7     8    1
    29    24    22    1
    30    22    25    1
    31    22    23    1
