@<TRIPOS>MOLECULE
mol_data/opt/cam/geoms/mol2/12il13il-6fh13el.out
 57 60 0 0 0
SMALL
GASTEIGER

@<TRIPOS>ATOM
      1 C           0.1303    1.6755   -1.1650 C.ar    1  LIG1        0.0992
      2 C           1.4284    1.4395   -0.8622 C.ar    1  LIG1        0.0297
      3 C           1.9671    2.7228   -0.5116 C.ar    1  LIG1        0.1699
      4 C           0.9659    3.6437   -0.6357 C.ar    1  LIG1        0.1928
      5 O          -0.1705    2.9969   -1.0337 O.2     1  LIG1       -0.4574
      6 H          -0.6787    1.0376   -1.4844 H       1  LIG1        0.1033
      7 C           2.1765    0.1476   -0.8845 C.3     1  LIG1       -0.0332
      8 H           2.5322   -0.1267    0.1133 H       1  LIG1        0.0280
      9 H           3.0551    0.2174   -1.5312 H       1  LIG1        0.0280
     10 H           1.5468   -0.6659   -1.2503 H       1  LIG1        0.0280
     11 O           3.2607    2.9433   -0.1359 O.3     1  LIG1       -0.4910
     12 C           3.4527    2.9881    1.2722 C.3     1  LIG1        0.0790
     13 H           4.5190    3.1463    1.4384 H       1  LIG1        0.0660
     14 H           2.8873    3.8119    1.7213 H       1  LIG1        0.0660
     15 H           3.1476    2.0477    1.7453 H       1  LIG1        0.0660
     16 C           0.8346    5.0688   -0.4337 C.ar    1  LIG1        0.0927
     17 C           1.7529    6.1036   -0.4026 C.ar    1  LIG1        0.0202
     18 C           0.9928    7.2890   -0.2223 C.ar    1  LIG1        0.1490
     19 C          -0.3514    6.9751   -0.1464 C.ar    1  LIG1        0.0947
     20 N          -0.4222    5.6005   -0.2526 N.ar    1  LIG1       -0.3484
     21 H          -1.2676    5.0851   -0.4496 H       1  LIG1        0.1661
     22 C           3.2372    6.0598   -0.5742 C.3     1  LIG1       -0.0341
     23 H           3.7622    5.9498    0.3817 H       1  LIG1        0.0279
     24 H           3.5786    6.9936   -1.0274 H       1  LIG1        0.0279
     25 H           3.5438    5.2246   -1.2038 H       1  LIG1        0.0279
     26 O           1.5153    8.5537   -0.1796 O.3     1  LIG1       -0.4927
     27 C           1.9680    8.9502    1.1074 C.3     1  LIG1        0.0789
     28 H           2.3813    9.9543    1.0023 H       1  LIG1        0.0660
     29 H           1.1417    8.9708    1.8268 H       1  LIG1        0.0660
     30 H           2.7481    8.2765    1.4795 H       1  LIG1        0.0660
     31 C          -2.7287    7.3757    0.5757 C.ar    1  LIG1        0.2225
     32 C          -1.5269    7.8282   -0.0069 C.ar    1  LIG1        0.0650
     33 C          -1.5186    9.1477   -0.4371 C.ar    1  LIG1       -0.0246
     34 C          -2.6481    9.9682   -0.3398 C.ar    1  LIG1        0.0533
     35 C          -3.8203    9.3716    0.1609 C.ar    1  LIG1        0.1128
     36 N          -3.8075    8.1098    0.6317 N.ar    1  LIG1       -0.2091
     37 H          -0.6008    9.5511   -0.8520 H       1  LIG1        0.0645
     38 O          -2.8468    6.1178    1.1024 O.3     1  LIG1       -0.4919
     39 H          -1.9732    5.8244    1.3936 H       1  LIG1        0.2937
     40 N          -2.5390   11.3122   -0.6558 N.pl3   1  LIG1       -0.3563
     41 H          -1.7140   11.5430   -1.1896 H       1  LIG1        0.1424
     42 H          -3.3633   11.7756   -1.0128 H       1  LIG1        0.1424
     43 C          -5.1263   10.0261    0.3316 C.ar    1  LIG1        0.0861
     44 C          -5.8196   11.0910   -0.2538 C.ar    1  LIG1        0.0930
     45 C          -7.0979   11.1492    0.3918 C.ar    1  LIG1        0.1533
     46 C          -7.1516   10.1430    1.3183 C.ar    1  LIG1        0.0457
     47 N          -5.9581    9.4816    1.2625 N.ar    1  LIG1       -0.3554
     48 H          -5.6912    8.6308    1.7372 H       1  LIG1        0.1655
     49 H          -7.9451    9.8567    1.9894 H       1  LIG1        0.0845
     50 C          -5.4689   11.8960   -1.3668 C.1     1  LIG1       -0.0638
     51 C          -5.2053   12.5985   -2.3125 C.1     1  LIG1       -0.1137
     52 H          -4.9953   13.1905   -3.1731 H       1  LIG1        0.1232
     53 O          -8.1142   12.0064    0.1008 O.3     1  LIG1       -0.4924
     54 C          -7.8635   13.3600    0.4501 C.3     1  LIG1        0.0789
     55 H          -8.7574   13.9225    0.1768 H       1  LIG1        0.0660
     56 H          -7.6860   13.4603    1.5275 H       1  LIG1        0.0660
     57 H          -7.0040   13.7625   -0.0948 H       1  LIG1        0.0660
@<TRIPOS>BOND
     1    52    51    1
     2    51    50    3
     3     9     7    1
     4     6     1    1
     5    50    44    1
     6    10     7    1
     7    25    22    1
     8    41    40    1
     9     1     5   ar
    10     1     2   ar
    11     5     4   ar
    12    24    22    1
    13    42    40    1
    14     7     2    1
    15     7     8    1
    16     2     3   ar
    17    37    33    1
    18    40    34    1
    19     4     3   ar
    20     4    16    1
    21    22    17    1
    22    22    23    1
    23     3    11    1
    24    21    20    1
    25    33    34   ar
    26    33    32   ar
    27    16    17   ar
    28    16    20   ar
    29    17    18   ar
    30    34    35   ar
    31    44    43   ar
    32    44    45   ar
    33    20    19   ar
    34    18    26    1
    35    18    19   ar
    36    26    27    1
    37    19    32    1
    38    11    12    1
    39    57    54    1
    40    32    31   ar
    41    53    45    1
    42    53    54    1
    43    35    43    1
    44    35    36   ar
    45    55    54    1
    46    43    47   ar
    47    45    46   ar
    48    54    56    1
    49    31    36   ar
    50    31    38    1
    51    28    27    1
    52    38    39    1
    53    27    30    1
    54    27    29    1
    55    47    46   ar
    56    47    48    1
    57    12    13    1
    58    12    14    1
    59    12    15    1
    60    46    49    1
