@<TRIPOS>MOLECULE
mol_data/opt/cam/geoms/mol2/12il12il-12il-12il.out
 58 61 0 0 0
SMALL
GASTEIGER

@<TRIPOS>ATOM
      1 C          -0.1512    1.7333   -0.1511 C.ar    1  LIG1        0.0993
      2 C           1.1797    1.5911   -0.3615 C.ar    1  LIG1        0.0297
      3 C           1.6930    2.9286   -0.4251 C.ar    1  LIG1        0.1716
      4 C           0.6341    3.7789   -0.2482 C.ar    1  LIG1        0.2116
      5 O          -0.5026    3.0451   -0.0839 O.2     1  LIG1       -0.4557
      6 H          -0.9559    1.0249   -0.0329 H       1  LIG1        0.1033
      7 C           1.9813    0.3384   -0.4903 C.3     1  LIG1       -0.0332
      8 H           2.7813    0.3096    0.2542 H       1  LIG1        0.0280
      9 H           2.4553    0.2686   -1.4737 H       1  LIG1        0.0280
     10 H           1.3556   -0.5462   -0.3546 H       1  LIG1        0.0280
     11 O           3.0094    3.2312   -0.5823 O.3     1  LIG1       -0.4909
     12 C           3.3645    3.7360   -1.8658 C.3     1  LIG1        0.0790
     13 H           4.4497    3.8445   -1.8641 H       1  LIG1        0.0660
     14 H           3.0702    3.0382   -2.6579 H       1  LIG1        0.0660
     15 H           2.9051    4.7114   -2.0451 H       1  LIG1        0.0660
     16 C           0.5024    5.2082   -0.1789 C.ar    1  LIG1        0.1809
     17 C          -0.5653    6.0385    0.0229 C.ar    1  LIG1        0.0410
     18 C          -0.0122    7.3555   -0.0003 C.ar    1  LIG1        0.1723
     19 C           1.3337    7.2483   -0.2261 C.ar    1  LIG1        0.2127
     20 O           1.6486    5.9248   -0.3290 O.2     1  LIG1       -0.4444
     21 C          -2.0052    5.7027    0.2373 C.3     1  LIG1       -0.0325
     22 H          -2.1544    5.1338    1.1590 H       1  LIG1        0.0280
     23 H          -2.4022    5.0974   -0.5810 H       1  LIG1        0.0280
     24 H          -2.5871    6.6240    0.3001 H       1  LIG1        0.0280
     25 O          -0.7463    8.4928    0.1654 O.3     1  LIG1       -0.4909
     26 C          -0.5261    9.1569    1.4057 C.3     1  LIG1        0.0790
     27 H          -1.2041   10.0107    1.4257 H       1  LIG1        0.0660
     28 H          -0.7478    8.4935    2.2483 H       1  LIG1        0.0660
     29 H           0.5068    9.5102    1.4884 H       1  LIG1        0.0660
     30 C           2.4251    8.1780   -0.3687 C.ar    1  LIG1        0.1809
     31 C           2.5326    9.4756   -0.7847 C.ar    1  LIG1        0.0410
     32 C           3.9274    9.7831   -0.6995 C.ar    1  LIG1        0.1723
     33 C           4.5740    8.6609   -0.2529 C.ar    1  LIG1        0.2126
     34 O           3.6542    7.6832   -0.0370 O.2     1  LIG1       -0.4444
     35 C           1.4819   10.4010   -1.3039 C.3     1  LIG1       -0.0325
     36 H           1.4630   11.3331   -0.7309 H       1  LIG1        0.0280
     37 H           0.4917    9.9478   -1.2542 H       1  LIG1        0.0280
     38 H           1.6930   10.6733   -2.3419 H       1  LIG1        0.0280
     39 O           4.4578   10.9737   -1.0854 O.3     1  LIG1       -0.4909
     40 C           4.9170   11.8042   -0.0262 C.3     1  LIG1        0.0790
     41 H           5.2323   12.7423   -0.4847 H       1  LIG1        0.0660
     42 H           4.1147   12.0053    0.6932 H       1  LIG1        0.0660
     43 H           5.7665   11.3498    0.4902 H       1  LIG1        0.0660
     44 C           5.9493    8.3116   -0.0121 C.ar    1  LIG1        0.1799
     45 C           6.5603    7.1499    0.3710 C.ar    1  LIG1        0.0402
     46 C           7.9599    7.4711    0.3979 C.ar    1  LIG1        0.1612
     47 C           8.0936    8.7724    0.0423 C.ar    1  LIG1        0.1345
     48 O           6.8679    9.2994   -0.2149 O.2     1  LIG1       -0.4557
     49 H           8.9438    9.4202   -0.0907 H       1  LIG1        0.1068
     50 C           5.9713    5.8106    0.6796 C.3     1  LIG1       -0.0325
     51 H           5.7748    5.6942    1.7512 H       1  LIG1        0.0280
     52 H           6.6727    5.0240    0.3889 H       1  LIG1        0.0280
     53 H           5.0242    5.6504    0.1650 H       1  LIG1        0.0280
     54 O           8.9761    6.6051    0.6715 O.3     1  LIG1       -0.4917
     55 C           9.1364    6.3134    2.0516 C.3     1  LIG1        0.0789
     56 H           9.9738    5.6191    2.1300 H       1  LIG1        0.0660
     57 H           9.3616    7.2222    2.6216 H       1  LIG1        0.0660
     58 H           8.2406    5.8441    2.4734 H       1  LIG1        0.0660
@<TRIPOS>BOND
     1    14    12    1
     2    38    35    1
     3    15    12    1
     4    12    13    1
     5    12    11    1
     6     9     7    1
     7    35    37    1
     8    35    31    1
     9    35    36    1
    10    39    32    1
    11    39    40    1
    12    31    32   ar
    13    31    30   ar
    14    32    33   ar
    15    11     3    1
    16    23    21    1
    17     7     2    1
    18     7    10    1
    19     7     8    1
    20    41    40    1
    21     3     2   ar
    22     3     4   ar
    23    30    19    1
    24    30    34   ar
    25     2     1   ar
    26    20    19   ar
    27    20    16   ar
    28    33    34   ar
    29    33    44    1
    30     4    16    1
    31     4     5   ar
    32    19    18   ar
    33    48    44   ar
    34    48    47   ar
    35    16    17   ar
    36     1     5   ar
    37     1     6    1
    38    49    47    1
    39    40    43    1
    40    40    42    1
    41    44    45   ar
    42    18    17   ar
    43    18    25    1
    44    17    21    1
    45    47    46   ar
    46    53    50    1
    47    25    26    1
    48    21    24    1
    49    21    22    1
    50    45    46   ar
    51    45    50    1
    52    52    50    1
    53    46    54    1
    54    54    55    1
    55    50    51    1
    56    26    27    1
    57    26    29    1
    58    26    28    1
    59    55    56    1
    60    55    58    1
    61    55    57    1
