@<TRIPOS>MOLECULE
mol_data/opt/cam/geoms/mol2/12il.out
 16 16 0 0 0
SMALL
GASTEIGER

@<TRIPOS>ATOM
      1 C           0.1148    1.9162    0.3300 C.ar    1  LIG1        0.0982
      2 C           1.3733    1.6670   -0.1073 C.ar    1  LIG1        0.0290
      3 C           1.9597    2.9697   -0.2832 C.ar    1  LIG1        0.1605
      4 C           1.0202    3.8845    0.0619 C.ar    1  LIG1        0.1334
      5 O          -0.1188    3.2496    0.4380 O.2     1  LIG1       -0.4670
      6 H          -0.7097    1.2704    0.5901 H       1  LIG1        0.1033
      7 H           1.0082    4.9620    0.0690 H       1  LIG1        0.1067
      8 C           2.0197    0.3491   -0.3859 C.3     1  LIG1       -0.0332
      9 H           2.7591    0.0869    0.3780 H       1  LIG1        0.0280
     10 H           2.5399    0.3707   -1.3473 H       1  LIG1        0.0280
     11 H           1.2802   -0.4538   -0.4176 H       1  LIG1        0.0280
     12 O           3.2071    3.2360   -0.7675 O.3     1  LIG1       -0.4917
     13 C           4.2476    3.0670    0.1820 C.3     1  LIG1        0.0789
     14 H           5.1804    3.3156   -0.3259 H       1  LIG1        0.0660
     15 H           4.1106    3.7348    1.0403 H       1  LIG1        0.0660
     16 H           4.3025    2.0341    0.5451 H       1  LIG1        0.0660
@<TRIPOS>BOND
     1    10     8    1
     2    12     3    1
     3    12    13    1
     4    11     8    1
     5     8     2    1
     6     8     9    1
     7    14    13    1
     8     3     2   ar
     9     3     4   ar
    10     2     1   ar
    11     4     7    1
    12     4     5   ar
    13    13    16    1
    14    13    15    1
    15     1     5   ar
    16     1     6    1
