@<TRIPOS>MOLECULE
mol_data/opt/cam/geoms/mol2/12il12il12il-12il.out
 58 61 0 0 0
SMALL
GASTEIGER

@<TRIPOS>ATOM
      1 C           5.8710    1.7422   -0.5480 C.ar    1  LIG1        0.0993
      2 C           6.5445    0.6803   -0.0419 C.ar    1  LIG1        0.0297
      3 C           5.5380   -0.3107    0.1965 C.ar    1  LIG1        0.1716
      4 C           4.3373    0.2145   -0.1955 C.ar    1  LIG1        0.2116
      5 O           4.5429    1.4856   -0.6461 O.2     1  LIG1       -0.4557
      6 H           6.1861    2.7223   -0.8705 H       1  LIG1        0.1033
      7 C           8.0051    0.5349    0.2302 C.3     1  LIG1       -0.0332
      8 H           8.4343   -0.2846   -0.3527 H       1  LIG1        0.0280
      9 H           8.1913    0.3107    1.2844 H       1  LIG1        0.0280
     10 H           8.5448    1.4502   -0.0213 H       1  LIG1        0.0280
     11 O           5.8031   -1.5462    0.7101 O.3     1  LIG1       -0.4909
     12 C           5.2219   -1.7997    1.9845 C.3     1  LIG1        0.0790
     13 H           5.5730   -2.7844    2.2947 H       1  LIG1        0.0660
     14 H           5.5426   -1.0499    2.7155 H       1  LIG1        0.0660
     15 H           4.1288   -1.8035    1.9319 H       1  LIG1        0.0660
     16 C           2.9849   -0.2885   -0.2402 C.ar    1  LIG1        0.1809
     17 C           2.4459   -1.5309   -0.4218 C.ar    1  LIG1        0.0410
     18 C           1.0298   -1.3372   -0.3665 C.ar    1  LIG1        0.1723
     19 C           0.8020   -0.0019   -0.1673 C.ar    1  LIG1        0.2127
     20 O           1.9961    0.6410   -0.0790 O.2     1  LIG1       -0.4444
     21 C           3.1278   -2.8290   -0.7061 C.3     1  LIG1       -0.0325
     22 H           2.8618   -3.1890   -1.7041 H       1  LIG1        0.0280
     23 H           2.8136   -3.6011    0.0028 H       1  LIG1        0.0280
     24 H           4.2119   -2.7320   -0.6454 H       1  LIG1        0.0280
     25 O           0.1131   -2.3237   -0.5621 O.3     1  LIG1       -0.4909
     26 C          -0.4791   -2.8291    0.6300 C.3     1  LIG1        0.0790
     27 H          -1.1265   -3.6532    0.3278 H       1  LIG1        0.0660
     28 H           0.2850   -3.2032    1.3212 H       1  LIG1        0.0660
     29 H          -1.0778   -2.0597    1.1247 H       1  LIG1        0.0660
     30 C          -0.3941    0.7909   -0.0775 C.ar    1  LIG1        0.1809
     31 C          -0.6392    2.1331   -0.0602 C.ar    1  LIG1        0.0410
     32 C          -2.0653    2.2524   -0.0120 C.ar    1  LIG1        0.1723
     33 C          -2.5952    0.9871    0.0153 C.ar    1  LIG1        0.2126
     34 O          -1.5567    0.0896   -0.0275 O.2     1  LIG1       -0.4444
     35 C           0.3078    3.2857   -0.1161 C.3     1  LIG1       -0.0325
     36 H           1.3125    2.9625   -0.3857 H       1  LIG1        0.0280
     37 H           0.3621    3.7953    0.8512 H       1  LIG1        0.0280
     38 H          -0.0405    4.0229   -0.8443 H       1  LIG1        0.0280
     39 O          -2.6349    3.4759   -0.0250 O.3     1  LIG1       -0.4909
     40 C          -3.9364    3.6026   -0.5774 C.3     1  LIG1        0.0790
     41 H          -4.0965    4.6699   -0.7327 H       1  LIG1        0.0660
     42 H          -4.0024    3.0801   -1.5382 H       1  LIG1        0.0660
     43 H          -4.6964    3.2071    0.0985 H       1  LIG1        0.0660
     44 C          -3.9085    0.3895    0.1026 C.ar    1  LIG1        0.1799
     45 C          -4.4062   -0.7848   -0.3856 C.ar    1  LIG1        0.0402
     46 C          -5.7556   -0.8396    0.0920 C.ar    1  LIG1        0.1612
     47 C          -5.9872    0.2846    0.8195 C.ar    1  LIG1        0.1345
     48 O          -4.8507    1.0431    0.8414 O.2     1  LIG1       -0.4557
     49 H          -6.8351    0.6762    1.3541 H       1  LIG1        0.1068
     50 C          -3.7587   -1.8155   -1.2519 C.3     1  LIG1       -0.0325
     51 H          -4.2329   -1.8500   -2.2379 H       1  LIG1        0.0280
     52 H          -3.8736   -2.8109   -0.8123 H       1  LIG1        0.0280
     53 H          -2.6948   -1.6198   -1.3822 H       1  LIG1        0.0280
     54 O          -6.5729   -1.8756   -0.1990 O.3     1  LIG1       -0.4917
     55 C          -7.8730   -1.7784    0.3438 C.3     1  LIG1        0.0789
     56 H          -8.4137   -2.6725    0.0350 H       1  LIG1        0.0660
     57 H          -7.8397   -1.7313    1.4394 H       1  LIG1        0.0660
     58 H          -8.3919   -0.8889   -0.0346 H       1  LIG1        0.0660
@<TRIPOS>BOND
     1    51    50    1
     2    22    21    1
     3    42    40    1
     4    53    50    1
     5    50    52    1
     6    50    45    1
     7     6     1    1
     8    38    35    1
     9    41    40    1
    10    21    24    1
    11    21    17    1
    12    21    23    1
    13     5     1   ar
    14     5     4   ar
    15    40    39    1
    16    40    43    1
    17    25    18    1
    18    25    26    1
    19     1     2   ar
    20    17    18   ar
    21    17    16   ar
    22    36    35    1
    23    45    46   ar
    24    45    44   ar
    25    18    19   ar
    26     8     7    1
    27    16     4    1
    28    16    20   ar
    29    54    46    1
    30    54    55    1
    31     4     3   ar
    32    19    20   ar
    33    19    30    1
    34    35    31    1
    35    35    37    1
    36    30    31   ar
    37    30    34   ar
    38    31    32   ar
    39     2     3   ar
    40     2     7    1
    41    58    55    1
    42    34    33   ar
    43    39    32    1
    44    10     7    1
    45    32    33   ar
    46    33    44    1
    47    56    55    1
    48    46    47   ar
    49    44    48   ar
    50     3    11    1
    51     7     9    1
    52    27    26    1
    53    55    57    1
    54    26    29    1
    55    26    28    1
    56    11    12    1
    57    47    48   ar
    58    47    49    1
    59    15    12    1
    60    12    13    1
    61    12    14    1
