@<TRIPOS>MOLECULE
mol_data/opt/cam/geoms/mol2/12il12il-.out
 30 31 0 0 0
SMALL
GASTEIGER

@<TRIPOS>ATOM
      1 C           0.0567    1.6227    0.0814 C.ar    1  LIG1        0.0993
      2 C           1.3668    1.5095   -0.2407 C.ar    1  LIG1        0.0297
      3 C           1.8425    2.8590   -0.3465 C.ar    1  LIG1        0.1716
      4 C           0.7871    3.6873   -0.0774 C.ar    1  LIG1        0.2116
      5 O          -0.3114    2.9275    0.1911 O.2     1  LIG1       -0.4557
      6 H          -0.7222    0.8986    0.2617 H       1  LIG1        0.1033
      7 C           2.1759    0.2758   -0.4681 C.3     1  LIG1       -0.0332
      8 H           2.9816    0.1860    0.2666 H       1  LIG1        0.0280
      9 H           2.6430    0.2943   -1.4562 H       1  LIG1        0.0280
     10 H           1.5567   -0.6210   -0.3987 H       1  LIG1        0.0280
     11 O           3.1089    3.1940   -0.7130 O.3     1  LIG1       -0.4909
     12 C           3.9550    3.5992    0.3558 C.3     1  LIG1        0.0790
     13 H           4.9415    3.7682   -0.0780 H       1  LIG1        0.0660
     14 H           3.5942    4.5255    0.8106 H       1  LIG1        0.0660
     15 H           4.0267    2.8181    1.1218 H       1  LIG1        0.0660
     16 C           0.6306    5.1214   -0.0485 C.ar    1  LIG1        0.1799
     17 C          -0.4502    5.9459    0.0810 C.ar    1  LIG1        0.0402
     18 C           0.0934    7.2704    0.0192 C.ar    1  LIG1        0.1612
     19 C           1.4382    7.1641   -0.1411 C.ar    1  LIG1        0.1345
     20 O           1.7777    5.8415   -0.1821 O.2     1  LIG1       -0.4557
     21 H           2.2450    7.8690   -0.2419 H       1  LIG1        0.1068
     22 C          -1.9000    5.6273    0.2439 C.3     1  LIG1       -0.0325
     23 H          -2.0850    4.5599    0.1366 H       1  LIG1        0.0280
     24 H          -2.4953    6.1659   -0.4990 H       1  LIG1        0.0280
     25 H          -2.2607    5.9410    1.2287 H       1  LIG1        0.0280
     26 O          -0.6930    8.3655    0.1096 O.3     1  LIG1       -0.4917
     27 C          -0.0097    9.5976    0.0131 C.3     1  LIG1        0.0789
     28 H          -0.7593   10.3839    0.0971 H       1  LIG1        0.0660
     29 H           0.7242    9.7050    0.8215 H       1  LIG1        0.0660
     30 H           0.5071    9.6863   -0.9505 H       1  LIG1        0.0660
@<TRIPOS>BOND
     1     9     7    1
     2    30    27    1
     3    11     3    1
     4    11    12    1
     5    24    22    1
     6     7    10    1
     7     7     2    1
     8     7     8    1
     9     3     2   ar
    10     3     4   ar
    11    21    19    1
    12     2     1   ar
    13    20    19   ar
    14    20    16   ar
    15    19    18   ar
    16    13    12    1
    17     4    16    1
    18     4     5   ar
    19    16    17   ar
    20    27    28    1
    21    27    26    1
    22    27    29    1
    23    18    17   ar
    24    18    26    1
    25    17    22    1
    26     1     5   ar
    27     1     6    1
    28    23    22    1
    29    22    25    1
    30    12    14    1
    31    12    15    1
