@<TRIPOS>MOLECULE
mol_data/opt/cam/geoms/mol2/12la12la12la12la.out
 46 49 0 0 0
SMALL
GASTEIGER

@<TRIPOS>ATOM
      1 C           0.5046    0.9022    0.0688 C.ar    1  LIG1        0.1342
      2 C           1.8639    0.9629    0.0132 C.ar    1  LIG1        0.1583
      3 C           2.2247    2.3417   -0.0449 C.ar    1  LIG1        0.0292
      4 C           1.0446    3.0261   -0.0200 C.ar    1  LIG1        0.1770
      5 O          -0.0044    2.1728    0.0486 O.2     1  LIG1       -0.4560
      6 H          -0.2133    0.1029    0.1226 H       1  LIG1        0.1068
      7 O           2.7751   -0.0361    0.0089 O.3     1  LIG1       -0.4919
      8 C           2.2272   -1.3349    0.0717 C.3     1  LIG1        0.0789
      9 H           3.0637   -2.0334    0.0607 H       1  LIG1        0.0660
     10 H           1.6471   -1.4747    0.9925 H       1  LIG1        0.0660
     11 H           1.5766   -1.5311   -0.7898 H       1  LIG1        0.0660
     12 H           3.2160    2.7613   -0.0974 H       1  LIG1        0.0693
     13 C           0.7618    4.4326   -0.0534 C.ar    1  LIG1        0.2121
     14 C           1.5846    5.5266   -0.1196 C.ar    1  LIG1        0.1694
     15 C           0.7551    6.6817   -0.1241 C.ar    1  LIG1        0.0300
     16 C          -0.5279    6.2059   -0.0597 C.ar    1  LIG1        0.1780
     17 O          -0.5372    4.8550   -0.0168 O.2     1  LIG1       -0.4447
     18 O           2.9333    5.4339   -0.1686 O.3     1  LIG1       -0.4912
     19 C           3.6343    6.6594   -0.2327 C.3     1  LIG1        0.0790
     20 H           4.6941    6.4079   -0.2653 H       1  LIG1        0.0660
     21 H           3.3688    7.2241   -1.1338 H       1  LIG1        0.0660
     22 H           3.4365    7.2787    0.6498 H       1  LIG1        0.0660
     23 H           1.0364    7.7209   -0.1677 H       1  LIG1        0.0694
     24 C          -1.7855    6.8894   -0.0329 C.ar    1  LIG1        0.2121
     25 C          -2.0972    8.2249   -0.0629 C.ar    1  LIG1        0.1694
     26 C          -3.5141    8.3301   -0.0119 C.ar    1  LIG1        0.0300
     27 C          -3.9703    7.0406    0.0461 C.ar    1  LIG1        0.1780
     28 O          -2.9413    6.1651    0.0342 O.2     1  LIG1       -0.4447
     29 O          -1.1615    9.1997   -0.1291 O.3     1  LIG1       -0.4912
     30 C          -1.6528   10.5256   -0.1540 C.3     1  LIG1        0.0790
     31 H          -0.7814   11.1775   -0.2080 H       1  LIG1        0.0660
     32 H          -2.2886   10.6980   -1.0298 H       1  LIG1        0.0660
     33 H          -2.2215   10.7563    0.7539 H       1  LIG1        0.0660
     34 H          -4.1312    9.2134   -0.0159 H       1  LIG1        0.0694
     35 C          -5.3018    6.5119    0.1136 C.ar    1  LIG1        0.2111
     36 C          -6.5245    7.1293    0.1408 C.ar    1  LIG1        0.1687
     37 C          -7.5096    6.0981    0.2111 C.ar    1  LIG1        0.0187
     38 C          -6.8100    4.9339    0.2211 C.ar    1  LIG1        0.0964
     39 O          -5.4831    5.1623    0.1631 O.2     1  LIG1       -0.4560
     40 H          -7.1107    3.8995    0.2653 H       1  LIG1        0.1031
     41 O          -6.6774    8.4733    0.1040 O.3     1  LIG1       -0.4912
     42 C          -8.0097    8.9462    0.1415 C.3     1  LIG1        0.0790
     43 H          -7.9530   10.0337    0.1054 H       1  LIG1        0.0660
     44 H          -8.5846    8.5863   -0.7194 H       1  LIG1        0.0660
     45 H          -8.5148    8.6417    1.0652 H       1  LIG1        0.0660
     46 H          -8.5824    6.2031    0.2488 H       1  LIG1        0.0686
@<TRIPOS>BOND
     1    21    19    1
     2    32    30    1
     3    11     8    1
     4    44    42    1
     5    20    19    1
     6    19    18    1
     7    19    22    1
     8    31    30    1
     9    18    14    1
    10    23    15    1
    11    30    29    1
    12    30    33    1
    13    29    25    1
    14    15    14   ar
    15    15    16   ar
    16    14    13   ar
    17    12     3    1
    18    25    24   ar
    19    25    26   ar
    20    16    24    1
    21    16    17   ar
    22    13     4    1
    23    13    17   ar
    24     3     4   ar
    25     3     2   ar
    26    24    28   ar
    27     4     5   ar
    28    34    26    1
    29    26    27   ar
    30     7     2    1
    31     7     8    1
    32     2     1   ar
    33    28    27   ar
    34    27    35    1
    35     5     1   ar
    36     9     8    1
    37     1     6    1
    38     8    10    1
    39    41    36    1
    40    41    42    1
    41    43    42    1
    42    35    36   ar
    43    35    39   ar
    44    36    37   ar
    45    42    45    1
    46    39    38   ar
    47    37    38   ar
    48    37    46    1
    49    38    40    1
