@<TRIPOS>MOLECULE
mol_data/opt/cam/geoms/mol2/12la12la-12la12la-.out
 46 49 0 0 0
SMALL
GASTEIGER

@<TRIPOS>ATOM
      1 C          -0.2124    1.8476   -0.0000 C.ar    1  LIG1        0.1342
      2 C           1.1443    1.7351   -0.0000 C.ar    1  LIG1        0.1583
      3 C           1.6783    3.0582   -0.0000 C.ar    1  LIG1        0.0292
      4 C           0.5956    3.8879   -0.0000 C.ar    1  LIG1        0.1770
      5 O          -0.5540    3.1738   -0.0000 O.2     1  LIG1       -0.4560
      6 H          -1.0279    1.1462   -0.0000 H       1  LIG1        0.1068
      7 O           1.9228    0.6305   -0.0000 O.3     1  LIG1       -0.4919
      8 C           1.2154   -0.5912    0.0000 C.3     1  LIG1        0.0789
      9 H           1.9588   -1.3879    0.0000 H       1  LIG1        0.0660
     10 H           0.5837   -0.6812    0.8925 H       1  LIG1        0.0660
     11 H           0.5836   -0.6812   -0.8925 H       1  LIG1        0.0660
     12 H           2.7199    3.3363   -0.0001 H       1  LIG1        0.0693
     13 C           0.4827    5.3181   -0.0000 C.ar    1  LIG1        0.2121
     14 C          -0.5646    6.2013   -0.0000 C.ar    1  LIG1        0.1694
     15 C          -0.0085    7.5131   -0.0000 C.ar    1  LIG1        0.0300
     16 C           1.3487    7.3444   -0.0001 C.ar    1  LIG1        0.1780
     17 O           1.6579    6.0290   -0.0001 O.2     1  LIG1       -0.4447
     18 O          -1.8611    5.8310    0.0000 O.3     1  LIG1       -0.4912
     19 C          -2.8047    6.8828    0.0000 C.3     1  LIG1        0.0790
     20 H          -3.7875    6.4121    0.0001 H       1  LIG1        0.0660
     21 H          -2.7047    7.5108    0.8930 H       1  LIG1        0.0660
     22 H          -2.7047    7.5108   -0.8929 H       1  LIG1        0.0660
     23 H          -0.5170    8.4631   -0.0000 H       1  LIG1        0.0694
     24 C           2.3787    8.3526   -0.0001 C.ar    1  LIG1        0.2121
     25 C           3.7535    8.4847   -0.0001 C.ar    1  LIG1        0.1694
     26 C           4.0386    9.8814   -0.0001 C.ar    1  LIG1        0.0300
     27 C           2.8364   10.5169   -0.0002 C.ar    1  LIG1        0.1780
     28 O           1.8306    9.6188   -0.0002 O.2     1  LIG1       -0.4447
     29 O           4.7821    7.6179   -0.0001 O.3     1  LIG1       -0.4912
     30 C           4.5355    6.2228   -0.0001 C.3     1  LIG1        0.0790
     31 H           5.5176    5.7498   -0.0002 H       1  LIG1        0.0660
     32 H           3.9786    5.9176    0.8891 H       1  LIG1        0.0660
     33 H           3.9786    5.9177   -0.8894 H       1  LIG1        0.0660
     34 H           5.0207   10.3261   -0.0001 H       1  LIG1        0.0694
     35 C           2.4745   11.9054   -0.0002 C.ar    1  LIG1        0.2111
     36 C           1.2798   12.5772   -0.0002 C.ar    1  LIG1        0.1687
     37 C           1.5926   13.9734   -0.0003 C.ar    1  LIG1        0.0187
     38 C           2.9474   14.0431   -0.0003 C.ar    1  LIG1        0.0964
     39 O           3.4965   12.8122   -0.0003 O.2     1  LIG1       -0.4560
     40 H           3.6381   14.8711   -0.0004 H       1  LIG1        0.1031
     41 O           0.0717   11.9757   -0.0002 O.3     1  LIG1       -0.4912
     42 C          -1.0485   12.8378   -0.0002 C.3     1  LIG1        0.0790
     43 H          -1.9293   12.1965   -0.0002 H       1  LIG1        0.0660
     44 H          -1.0660   13.4725    0.8933 H       1  LIG1        0.0660
     45 H          -1.0660   13.4725   -0.8938 H       1  LIG1        0.0660
     46 H           0.9078   14.8066   -0.0003 H       1  LIG1        0.0686
@<TRIPOS>BOND
     1    45    42    1
     2    22    19    1
     3    11     8    1
     4    33    30    1
     5    40    38    1
     6    38    37   ar
     7    38    39   ar
     8    46    37    1
     9    37    36   ar
    10    39    35   ar
    11    36    35   ar
    12    36    41    1
    13    42    43    1
    14    42    41    1
    15    42    44    1
    16    35    27    1
    17    27    28   ar
    18    27    26   ar
    19    28    24   ar
    20    31    30    1
    21    26    34    1
    22    26    25   ar
    23    30    29    1
    24    30    32    1
    25    24    25   ar
    26    24    16    1
    27    25    29    1
    28    17    16   ar
    29    17    13   ar
    30    16    15   ar
    31    12     3    1
    32    13     4    1
    33    13    14   ar
    34     3     4   ar
    35     3     2   ar
    36    15    23    1
    37    15    14   ar
    38     4     5   ar
    39     2     1   ar
    40     2     7    1
    41     5     1   ar
    42     1     6    1
    43     7     8    1
    44    14    18    1
    45     8     9    1
    46     8    10    1
    47    18    19    1
    48    19    20    1
    49    19    21    1
