@<TRIPOS>MOLECULE
mol_data/opt/cam/geoms/mol2/12la6fi-13hi4le6ah13dl12he6he.out
 103 110 0 0 0
SMALL
GASTEIGER

@<TRIPOS>ATOM
      1 C           3.3197    4.6045   -4.5771 C.ar    1  LIG1        0.1341
      2 C           3.9810    3.8343   -3.6730 C.ar    1  LIG1        0.1582
      3 C           3.4448    4.1343   -2.3833 C.ar    1  LIG1        0.0262
      4 C           2.4762    5.0701   -2.5775 C.ar    1  LIG1        0.1435
      5 O           2.3905    5.3642   -3.9090 O.2     1  LIG1       -0.4590
      6 H           3.3675    4.7350   -5.6435 H       1  LIG1        0.1068
      7 O           4.9693    2.9382   -3.8586 O.3     1  LIG1       -0.4919
      8 C           5.3820    2.7735   -5.2010 C.3     1  LIG1        0.0789
      9 H           6.1765    2.0284   -5.1973 H       1  LIG1        0.0660
     10 H           4.5526    2.4209   -5.8260 H       1  LIG1        0.0660
     11 H           5.7654    3.7152   -5.6121 H       1  LIG1        0.0660
     12 H           3.7693    3.7056   -1.4484 H       1  LIG1        0.0692
     13 C           0.8067    6.8957   -2.0327 C.ar    1  LIG1        0.2239
     14 C           1.5717    5.7643   -1.6706 C.ar    1  LIG1        0.0789
     15 C           1.4151    5.3154   -0.3603 C.ar    1  LIG1       -0.0410
     16 C           0.6013    5.9608    0.5600 C.ar    1  LIG1       -0.0221
     17 C          -0.0313    7.1343    0.1079 C.ar    1  LIG1        0.0956
     18 N           0.0560    7.5467   -1.1680 N.ar    1  LIG1       -0.2106
     19 H           1.9221    4.4036   -0.0584 H       1  LIG1        0.0630
     20 O           0.7920    7.4080   -3.2775 O.3     1  LIG1       -0.4919
     21 H           1.3318    6.8537   -3.8608 H       1  LIG1        0.2938
     22 C           0.3306    5.3439    1.9046 C.3     1  LIG1       -0.0376
     23 H          -0.7358    5.1201    2.0105 H       1  LIG1        0.0278
     24 H           0.5838    6.0022    2.7380 H       1  LIG1        0.0278
     25 H           0.8824    4.4071    2.0110 H       1  LIG1        0.0278
     26 C          -0.8920    7.9784    0.9364 C.ar    1  LIG1        0.0869
     27 C          -0.8231    8.4747    2.2351 C.ar    1  LIG1        0.0552
     28 C          -1.8987    9.3840    2.4150 C.ar    1  LIG1       -0.0038
     29 C          -2.5931    9.4288    1.2062 C.ar    1  LIG1        0.0552
     30 N          -1.9591    8.5939    0.3394 N.ar    1  LIG1       -0.3512
     31 H          -2.1794    8.5077   -0.6417 H       1  LIG1        0.1660
     32 N           0.1659    8.1844    3.1910 N.pl3   1  LIG1       -0.3561
     33 H           1.1038    8.2510    2.8147 H       1  LIG1        0.1424
     34 H           0.0917    8.7719    4.0108 H       1  LIG1        0.1424
     35 C          -2.1397   10.1885    3.6546 C.3     1  LIG1       -0.0359
     36 H          -2.6292   11.1379    3.4284 H       1  LIG1        0.0279
     37 H          -1.1936   10.4346    4.1498 H       1  LIG1        0.0279
     38 H          -2.7586    9.6653    4.3929 H       1  LIG1        0.0279
     39 C          -4.0078   10.5558   -0.5396 C.ar    1  LIG1        0.1298
     40 C          -5.1323   11.2787   -0.8997 C.ar    1  LIG1       -0.0104
     41 C          -3.7737   10.1938    0.8005 C.ar    1  LIG1        0.0414
     42 C          -6.0837   11.6818    0.0370 C.ar    1  LIG1        0.0025
     43 H          -5.2753   11.4997   -1.9517 H       1  LIG1        0.0661
     44 C          -4.7375   10.5841    1.7311 C.ar    1  LIG1       -0.0331
     45 C          -5.8709   11.3246    1.3827 C.ar    1  LIG1        0.0333
     46 H          -4.6231   10.2924    2.7666 H       1  LIG1        0.0638
     47 O          -3.1541   10.1463   -1.5389 O.3     1  LIG1       -0.4944
     48 C          -2.0224   10.9908   -1.7482 C.3     1  LIG1        0.0788
     49 H          -2.3335   11.9500   -2.1765 H       1  LIG1        0.0660
     50 H          -1.4827   11.1662   -0.8128 H       1  LIG1        0.0660
     51 H          -1.3681   10.4645   -2.4431 H       1  LIG1        0.0660
     52 C          -6.7670   11.7114    2.4329 C.1     1  LIG1       -0.0690
     53 C          -7.4847   12.0206    3.3488 C.1     1  LIG1       -0.1139
     54 H          -8.1303   12.3010    4.1492 H       1  LIG1        0.1232
     55 C          -8.5668   12.1262   -0.0293 C.ar    1  LIG1        0.0362
     56 C          -7.2622   12.4548   -0.4175 C.ar    1  LIG1        0.0033
     57 C          -7.1210   13.5225   -1.2881 C.ar    1  LIG1       -0.0297
     58 C          -8.2246   14.2482   -1.7577 C.ar    1  LIG1        0.0530
     59 C          -9.4966   13.8091   -1.3279 C.ar    1  LIG1        0.1090
     60 N          -9.6233   12.7787   -0.4738 N.ar    1  LIG1       -0.2510
     61 H          -6.1269   13.8358   -1.5949 H       1  LIG1        0.0643
     62 H          -8.7506   11.3039    0.6533 H       1  LIG1        0.0836
     63 N          -8.0033   15.3751   -2.5163 N.pl3   1  LIG1       -0.3563
     64 H          -7.0609   15.4830   -2.8588 H       1  LIG1        0.1424
     65 H          -8.6936   15.6750   -3.1864 H       1  LIG1        0.1424
     66 C         -10.7953   14.4203   -1.6561 C.ar    1  LIG1        0.0885
     67 C         -11.3328   15.2380   -2.6554 C.ar    1  LIG1        0.1208
     68 C         -12.7189   15.4220   -2.3582 C.ar    1  LIG1        0.1663
     69 C         -13.0016   14.7177   -1.2075 C.ar    1  LIG1        0.1280
     70 N         -11.8248   14.1315   -0.8177 N.ar    1  LIG1       -0.3465
     71 H         -11.6845   13.5109   -0.0318 H       1  LIG1        0.1662
     72 N         -10.2266   16.1244   -4.8036 N.1     1  LIG1       -0.1907
     73 C         -10.7232   15.7178   -3.8369 C.1     1  LIG1        0.1050
     74 O         -13.6160   16.1169   -3.1176 O.3     1  LIG1       -0.4916
     75 C         -13.4200   17.5341   -3.1207 C.3     1  LIG1        0.0789
     76 H         -14.1809   17.9480   -3.7827 H       1  LIG1        0.0660
     77 H         -13.5465   17.9407   -2.1126 H       1  LIG1        0.0660
     78 H         -12.4305   17.7928   -3.5063 H       1  LIG1        0.0660
     79 C         -14.2134   14.5220   -0.4594 C.ar    1  LIG1        0.1771
     80 C         -15.4866   15.0123   -0.5331 C.ar    1  LIG1        0.0888
     81 C         -16.2142   14.3980    0.5480 C.ar    1  LIG1        0.0918
     82 C         -15.3330   13.5773    1.2133 C.ar    1  LIG1        0.1562
     83 O         -14.1238   13.6459    0.6043 O.2     1  LIG1       -0.4499
     84 N         -16.0098   15.9367   -1.4076 N.pl3   1  LIG1       -0.3540
     85 H         -15.5249   15.9945   -2.2941 H       1  LIG1        0.1425
     86 H         -17.0171   15.9183   -1.4756 H       1  LIG1        0.1425
     87 C         -17.5945   14.6170    0.7880 C.1     1  LIG1       -0.0640
     88 C         -18.7697   14.8395    0.9362 C.1     1  LIG1       -0.1137
     89 H         -19.8093   15.0214    1.0854 H       1  LIG1        0.1232
     90 C         -14.6209   11.6006    2.6299 C.ar    1  LIG1        0.1270
     91 C         -15.4688   12.7178    2.3805 C.ar    1  LIG1        0.0592
     92 C         -16.4790   12.9641    3.3029 C.ar    1  LIG1       -0.0309
     93 C         -16.6512   12.1405    4.4159 C.ar    1  LIG1        0.0436
     94 C         -15.7621   11.0711    4.5519 C.ar    1  LIG1        0.0451
     95 N         -14.7877   10.8082    3.6969 N.ar    1  LIG1       -0.2388
     96 H         -17.1420   13.8078    3.1577 H       1  LIG1        0.0638
     97 H         -15.8551   10.3983    5.4008 H       1  LIG1        0.0843
     98 N         -13.5828   11.2609    1.8207 N.pl3   1  LIG1       -0.3426
     99 H         -13.1579   10.3673    2.0068 H       1  LIG1        0.1437
    100 H         -13.4783   11.6833    0.9156 H       1  LIG1        0.1437
    101 C         -17.6793   12.3756    5.3791 C.1     1  LIG1       -0.0681
    102 C         -18.5441   12.5687    6.1945 C.1     1  LIG1       -0.1139
    103 H         -19.3083   12.7399    6.9168 H       1  LIG1        0.1232
@<TRIPOS>BOND
     1    10     8    1
     2     6     1    1
     3    11     8    1
     4     8     9    1
     5     8     7    1
     6    72    73    3
     7     1     5   ar
     8     1     2   ar
     9     5     4   ar
    10    21    20    1
    11     7     2    1
    12    73    67    1
    13    76    75    1
    14     2     3   ar
    15    78    75    1
    16    20    13    1
    17    65    63    1
    18    75    74    1
    19    75    77    1
    20    74    68    1
    21    64    63    1
    22    67    68   ar
    23    67    66   ar
    24     4     3   ar
    25     4    14    1
    26    63    58    1
    27    51    48    1
    28     3    12    1
    29    68    69   ar
    30    85    84    1
    31    49    48    1
    32    13    14   ar
    33    13    18   ar
    34    43    40    1
    35    58    59   ar
    36    58    57   ar
    37    48    47    1
    38    48    50    1
    39    14    15   ar
    40    66    59    1
    41    66    70   ar
    42    61    57    1
    43    47    39    1
    44    86    84    1
    45    84    80    1
    46    59    60   ar
    47    57    56   ar
    48    69    70   ar
    49    69    79    1
    50    18    17   ar
    51    40    39   ar
    52    40    42   ar
    53    70    71    1
    54    31    30    1
    55    39    41   ar
    56    80    79   ar
    57    80    81   ar
    58    60    55   ar
    59    79    83   ar
    60    56    55   ar
    61    56    42    1
    62    15    19    1
    63    15    16   ar
    64    55    62    1
    65    42    45   ar
    66    17    16   ar
    67    17    26    1
    68    30    26   ar
    69    30    29   ar
    70    81    87    1
    71    81    82   ar
    72    16    22    1
    73    83    82   ar
    74    87    88    3
    75    41    29    1
    76    41    44   ar
    77   100    98    1
    78    88    89    1
    79    26    27   ar
    80    29    28   ar
    81    82    91    1
    82    45    44   ar
    83    45    52    1
    84    44    46    1
    85    98    99    1
    86    98    90    1
    87    22    23    1
    88    22    25    1
    89    22    24    1
    90    27    28   ar
    91    27    32    1
    92    91    90   ar
    93    91    92   ar
    94    28    35    1
    95    52    53    3
    96    90    95   ar
    97    33    32    1
    98    96    92    1
    99    32    34    1
   100    92    93   ar
   101    53    54    1
   102    36    35    1
   103    35    37    1
   104    35    38    1
   105    95    94   ar
   106    93    94   ar
   107    93   101    1
   108    94    97    1
   109   101   102    3
   110   102   103    1
