@<TRIPOS>MOLECULE
mol_data/opt/cam/geoms/mol2/12la12la-12la12la.out
 46 49 0 0 0
SMALL
GASTEIGER

@<TRIPOS>ATOM
      1 C          -0.2808    1.7287   -0.0003 C.ar    1  LIG1        0.1342
      2 C           1.0746    1.6010   -0.0001 C.ar    1  LIG1        0.1583
      3 C           1.6230    2.9182   -0.0000 C.ar    1  LIG1        0.0292
      4 C           0.5495    3.7596   -0.0002 C.ar    1  LIG1        0.1770
      5 O          -0.6077    3.0582   -0.0004 O.2     1  LIG1       -0.4560
      6 H          -1.1040    1.0363   -0.0005 H       1  LIG1        0.1068
      7 O           1.8404    0.4877   -0.0000 O.3     1  LIG1       -0.4919
      8 C           1.1192   -0.7261   -0.0002 C.3     1  LIG1        0.0789
      9 H           1.8533   -1.5313   -0.0001 H       1  LIG1        0.0660
     10 H           0.4863   -0.8086    0.8922 H       1  LIG1        0.0660
     11 H           0.4866   -0.8086   -0.8928 H       1  LIG1        0.0660
     12 H           2.6677    3.1844    0.0002 H       1  LIG1        0.0693
     13 C           0.4505    5.1909   -0.0001 C.ar    1  LIG1        0.2121
     14 C          -0.5897    6.0824   -0.0003 C.ar    1  LIG1        0.1694
     15 C          -0.0224    7.3896   -0.0001 C.ar    1  LIG1        0.0300
     16 C           1.3329    7.2099    0.0001 C.ar    1  LIG1        0.1780
     17 O           1.6313    5.8918    0.0001 O.2     1  LIG1       -0.4447
     18 O          -1.8887    5.7233   -0.0005 O.3     1  LIG1       -0.4912
     19 C          -2.8248    6.7826   -0.0006 C.3     1  LIG1        0.0790
     20 H          -3.8110    6.3192   -0.0007 H       1  LIG1        0.0660
     21 H          -2.7203    7.4095    0.8924 H       1  LIG1        0.0660
     22 H          -2.7201    7.4095   -0.8935 H       1  LIG1        0.0660
     23 H          -0.5266    8.3416   -0.0002 H       1  LIG1        0.0694
     24 C           2.3760    8.2050    0.0003 C.ar    1  LIG1        0.2121
     25 C           3.7491    8.3147    0.0006 C.ar    1  LIG1        0.1694
     26 C           4.0545    9.7066    0.0006 C.ar    1  LIG1        0.0300
     27 C           2.8673   10.3765    0.0003 C.ar    1  LIG1        0.1780
     28 O           1.8543    9.4784    0.0001 O.2     1  LIG1       -0.4447
     29 O           4.7706    7.4389    0.0008 O.3     1  LIG1       -0.4912
     30 C           4.5114    6.0456    0.0008 C.3     1  LIG1        0.0790
     31 H           5.4892    5.5639    0.0010 H       1  LIG1        0.0660
     32 H           3.9514    5.7457    0.8899 H       1  LIG1        0.0660
     33 H           3.9519    5.7457   -0.8886 H       1  LIG1        0.0660
     34 H           5.0566   10.0945    0.0009 H       1  LIG1        0.0694
     35 C           2.4172   11.7585    0.0002 C.ar    1  LIG1        0.2111
     36 C           2.9351   13.0380   -0.0003 C.ar    1  LIG1        0.1687
     37 C           1.8265   13.9384    0.0001 C.ar    1  LIG1        0.0187
     38 C           0.7186   13.1668    0.0008 C.ar    1  LIG1        0.0964
     39 O           1.0441   11.8630    0.0009 O.2     1  LIG1       -0.4560
     40 H          -0.3363   13.3917    0.0012 H       1  LIG1        0.1031
     41 O           4.1785   13.5602   -0.0011 O.3     1  LIG1       -0.4912
     42 C           5.2999   12.7031   -0.0018 C.3     1  LIG1        0.0790
     43 H           6.1764   13.3509   -0.0028 H       1  LIG1        0.0660
     44 H           5.3198   12.0767    0.8951 H       1  LIG1        0.0660
     45 H           5.3182   12.0760   -0.8982 H       1  LIG1        0.0660
     46 H           1.8951   15.0149   -0.0001 H       1  LIG1        0.0686
@<TRIPOS>BOND
     1    45    42    1
     2    22    19    1
     3    11     8    1
     4    33    30    1
     5    43    42    1
     6    42    41    1
     7    42    44    1
     8    41    36    1
     9    20    19    1
    10    19    18    1
    11    19    21    1
    12     6     1    1
    13    18    14    1
    14     5     1   ar
    15     5     4   ar
    16     1     2   ar
    17    36    37   ar
    18    36    35   ar
    19    14    15   ar
    20    14    13   ar
    21    23    15    1
    22     8     9    1
    23     8     7    1
    24     8    10    1
    25     4    13    1
    26     4     3   ar
    27    15    16   ar
    28    13    17   ar
    29     2     7    1
    30     2     3   ar
    31    46    37    1
    32     3    12    1
    33    16    17   ar
    34    16    24    1
    35    28    24   ar
    36    28    27   ar
    37    37    38   ar
    38    35    27    1
    39    35    39   ar
    40    24    25   ar
    41    27    26   ar
    42    25    26   ar
    43    25    29    1
    44    26    34    1
    45    38    39   ar
    46    38    40    1
    47    30    29    1
    48    30    31    1
    49    30    32    1
