@<TRIPOS>MOLECULE
mol_data/opt/cam/geoms/mol2/12la12la12la-12la.out
 46 49 0 0 0
SMALL
GASTEIGER

@<TRIPOS>ATOM
      1 C          -0.0444    1.6420   -0.0008 C.ar    1  LIG1        0.1342
      2 C           1.3079    1.5083    0.0003 C.ar    1  LIG1        0.1583
      3 C           1.8605    2.8227    0.0008 C.ar    1  LIG1        0.0292
      4 C           0.7971    3.6822   -0.0000 C.ar    1  LIG1        0.1770
      5 O          -0.3589    2.9701   -0.0010 O.2     1  LIG1       -0.4560
      6 H          -0.8729    0.9557   -0.0015 H       1  LIG1        0.1068
      7 O           2.0760    0.3963    0.0009 O.3     1  LIG1       -0.4919
      8 C           1.3559   -0.8182    0.0003 C.3     1  LIG1        0.0789
      9 H           2.0907   -1.6228    0.0009 H       1  LIG1        0.0660
     10 H           0.7226   -0.9014    0.8923 H       1  LIG1        0.0660
     11 H           0.7240   -0.9014   -0.8927 H       1  LIG1        0.0660
     12 H           2.9117    3.0444    0.0018 H       1  LIG1        0.0693
     13 C           0.5927    5.1216   -0.0002 C.ar    1  LIG1        0.2121
     14 C           1.3206    6.2953   -0.0003 C.ar    1  LIG1        0.1694
     15 C           0.3908    7.3715   -0.0003 C.ar    1  LIG1        0.0300
     16 C          -0.8468    6.8040   -0.0002 C.ar    1  LIG1        0.1780
     17 O          -0.7443    5.4618   -0.0001 O.2     1  LIG1       -0.4447
     18 O           2.6372    6.5965   -0.0004 O.3     1  LIG1       -0.4912
     19 C           3.5947    5.5609   -0.0007 C.3     1  LIG1        0.0790
     20 H           4.5694    6.0493   -0.0013 H       1  LIG1        0.0660
     21 H           3.5077    4.9396    0.8958 H       1  LIG1        0.0660
     22 H           3.5068    4.9391   -0.8967 H       1  LIG1        0.0660
     23 H           0.6426    8.4197   -0.0003 H       1  LIG1        0.0694
     24 C          -2.1625    7.3701   -0.0002 C.ar    1  LIG1        0.2121
     25 C          -3.4330    6.8556   -0.0001 C.ar    1  LIG1        0.1694
     26 C          -4.3318    7.9614   -0.0002 C.ar    1  LIG1        0.0300
     27 C          -3.5493    9.0823   -0.0002 C.ar    1  LIG1        0.1780
     28 O          -2.2428    8.7413   -0.0003 O.2     1  LIG1       -0.4447
     29 O          -3.7105    5.5392   -0.0001 O.3     1  LIG1       -0.4912
     30 C          -5.0805    5.1905   -0.0000 C.3     1  LIG1        0.0790
     31 H          -5.1179    4.1018    0.0000 H       1  LIG1        0.0660
     32 H          -5.5899    5.5700    0.8932 H       1  LIG1        0.0660
     33 H          -5.5899    5.5699   -0.8933 H       1  LIG1        0.0660
     34 H          -5.4089    7.9479   -0.0001 H       1  LIG1        0.0694
     35 C          -3.9513   10.4693   -0.0003 C.ar    1  LIG1        0.2111
     36 C          -3.4056   11.7360   -0.0002 C.ar    1  LIG1        0.1687
     37 C          -4.5012   12.6567   -0.0004 C.ar    1  LIG1        0.0187
     38 C          -5.6243   11.9089   -0.0006 C.ar    1  LIG1        0.0964
     39 O          -5.3240   10.5957   -0.0005 O.2     1  LIG1       -0.4560
     40 H          -6.6744   12.1548   -0.0007 H       1  LIG1        0.1031
     41 O          -2.1548   12.2302    0.0000 O.3     1  LIG1       -0.4912
     42 C          -1.0396   11.3560    0.0004 C.3     1  LIG1        0.0790
     43 H          -0.1606   12.0004    0.0006 H       1  LIG1        0.0660
     44 H          -1.0327   10.7214    0.8898 H       1  LIG1        0.0660
     45 H          -1.0322   10.7214   -0.8891 H       1  LIG1        0.0660
     46 H          -4.4132   13.7319   -0.0004 H       1  LIG1        0.0686
@<TRIPOS>BOND
     1    22    19    1
     2    33    30    1
     3    11     8    1
     4    45    42    1
     5     6     1    1
     6    20    19    1
     7     5     1   ar
     8     5     4   ar
     9     1     2   ar
    10    40    38    1
    11    19    18    1
    12    19    21    1
    13    38    39   ar
    14    38    37   ar
    15    39    35   ar
    16    18    14    1
    17    37    46    1
    18    37    36   ar
    19    23    15    1
    20    35    27    1
    21    35    36   ar
    22    15    14   ar
    23    15    16   ar
    24    28    27   ar
    25    28    24   ar
    26    14    13   ar
    27    27    26   ar
    28    36    41    1
    29    16    24    1
    30    16    17   ar
    31    24    25   ar
    32    13    17   ar
    33    13     4    1
    34    26    25   ar
    35    26    34    1
    36    25    29    1
    37    29    30    1
    38     4     3   ar
    39    30    31    1
    40    30    32    1
    41    41    42    1
    42     2     3   ar
    43     2     7    1
    44     8     7    1
    45     8     9    1
    46     8    10    1
    47    42    43    1
    48    42    44    1
    49     3    12    1
