@<TRIPOS>MOLECULE
mol_data/opt/cam/geoms/mol2/12la12la-12la.out
 35 37 0 0 0
SMALL
GASTEIGER

@<TRIPOS>ATOM
      1 C          -0.1168    1.7735    0.0000 C.ar    1  LIG1        0.1342
      2 C           1.2436    1.7203    0.0000 C.ar    1  LIG1        0.1583
      3 C           1.7188    3.0657   -0.0000 C.ar    1  LIG1        0.0292
      4 C           0.6008    3.8467   -0.0000 C.ar    1  LIG1        0.1770
      5 O          -0.5163    3.0830   -0.0000 O.2     1  LIG1       -0.4560
      6 H          -0.9008    1.0370    0.0001 H       1  LIG1        0.1068
      7 O           2.0698    0.6513    0.0000 O.3     1  LIG1       -0.4919
      8 C           1.4171   -0.6008    0.0000 C.3     1  LIG1        0.0789
      9 H           2.1953   -1.3635    0.0001 H       1  LIG1        0.0660
     10 H           0.7902   -0.7186    0.8926 H       1  LIG1        0.0660
     11 H           0.7902   -0.7186   -0.8925 H       1  LIG1        0.0660
     12 H           2.7473    3.3888   -0.0000 H       1  LIG1        0.0693
     13 C           0.4230    5.2708   -0.0001 C.ar    1  LIG1        0.2121
     14 C          -0.6643    6.1037   -0.0001 C.ar    1  LIG1        0.1694
     15 C          -0.1682    7.4402   -0.0001 C.ar    1  LIG1        0.0300
     16 C           1.1943    7.3351   -0.0001 C.ar    1  LIG1        0.1780
     17 O           1.5632    6.0355   -0.0001 O.2     1  LIG1       -0.4447
     18 O          -1.9417    5.6744   -0.0001 O.3     1  LIG1       -0.4912
     19 C          -2.9349    6.6803   -0.0001 C.3     1  LIG1        0.0790
     20 H          -3.8937    6.1629   -0.0001 H       1  LIG1        0.0660
     21 H          -2.8655    7.3119    0.8931 H       1  LIG1        0.0660
     22 H          -2.8655    7.3119   -0.8933 H       1  LIG1        0.0660
     23 H          -0.7264    8.3615   -0.0001 H       1  LIG1        0.0694
     24 C           2.1862    8.3854   -0.0002 C.ar    1  LIG1        0.2111
     25 C           3.5544    8.5581   -0.0001 C.ar    1  LIG1        0.1687
     26 C           3.7918    9.9696   -0.0002 C.ar    1  LIG1        0.0187
     27 C           2.5774   10.5577   -0.0002 C.ar    1  LIG1        0.0964
     28 O           1.5983    9.6323   -0.0002 O.2     1  LIG1       -0.4560
     29 H           2.2562   11.5873   -0.0003 H       1  LIG1        0.1031
     30 O           4.6154    7.7309   -0.0000 O.3     1  LIG1       -0.4912
     31 C           4.4270    6.3265   -0.0001 C.3     1  LIG1        0.0790
     32 H           5.4282    5.8955   -0.0001 H       1  LIG1        0.0660
     33 H           3.8836    5.9985    0.8892 H       1  LIG1        0.0660
     34 H           3.8836    5.9986   -0.8895 H       1  LIG1        0.0660
     35 H           4.7629   10.4394   -0.0001 H       1  LIG1        0.0686
@<TRIPOS>BOND
     1    22    19    1
     2    11     8    1
     3    34    31    1
     4    29    27    1
     5    28    27   ar
     6    28    24   ar
     7    27    26   ar
     8    26    35    1
     9    26    25   ar
    10    24    16    1
    11    24    25   ar
    12    23    15    1
    13    16    15   ar
    14    16    17   ar
    15    15    14   ar
    16    19    20    1
    17    19    18    1
    18    19    21    1
    19    32    31    1
    20    17    13   ar
    21    25    30    1
    22    31    30    1
    23    31    33    1
    24    14    13   ar
    25    14    18    1
    26    13     4    1
    27     5     4   ar
    28     5     1   ar
    29     4     3   ar
    30    12     3    1
    31     3     2   ar
    32     2     7    1
    33     2     1   ar
    34     7     8    1
    35     1     6    1
    36     8     9    1
    37     8    10    1
