@<TRIPOS>MOLECULE
mol_data/opt/cam/geoms/mol2/12la12ad-4ea-12ld.out
 45 48 0 0 0
SMALL
GASTEIGER

@<TRIPOS>ATOM
      1 C           0.3993    1.4926    0.4401 C.ar    1  LIG1        0.1342
      2 C           1.7599    1.5240    0.3659 C.ar    1  LIG1        0.1583
      3 C           2.1305    2.8696    0.0722 C.ar    1  LIG1        0.0291
      4 C           0.9599    3.5599   -0.0146 C.ar    1  LIG1        0.1734
      5 O          -0.0960    2.7432    0.2049 O.2     1  LIG1       -0.4561
      6 H          -0.3254    0.7228    0.6393 H       1  LIG1        0.1068
      7 O           2.6620    0.5358    0.5277 O.3     1  LIG1       -0.4919
      8 C           2.1113   -0.7327    0.8220 C.3     1  LIG1        0.0789
      9 H           2.9476   -1.4229    0.9250 H       1  LIG1        0.0660
     10 H           1.5417   -0.7062    1.7589 H       1  LIG1        0.0660
     11 H           1.4539   -1.0732    0.0128 H       1  LIG1        0.0660
     12 H           3.1333    3.2500   -0.0445 H       1  LIG1        0.0693
     13 C           0.6766    4.9458   -0.3003 C.ar    1  LIG1        0.1720
     14 C           1.4544    5.9812   -0.7093 C.ar    1  LIG1        0.0053
     15 C           0.5872    7.1160   -0.7991 C.ar    1  LIG1        0.0981
     16 C          -0.6669    6.6907   -0.4315 C.ar    1  LIG1        0.1543
     17 O          -0.6061    5.3685   -0.1350 O.2     1  LIG1       -0.4504
     18 H           2.5077    5.9582   -0.9410 H       1  LIG1        0.0669
     19 N           1.3278    9.4030   -1.7298 N.1     1  LIG1       -0.1907
     20 C           0.9704    8.3922   -1.2953 C.1     1  LIG1        0.1030
     21 C          -2.2390    8.5789    0.1495 C.ar    1  LIG1        0.0360
     22 C          -3.5403    9.0867    0.1550 C.ar    1  LIG1       -0.0349
     23 C          -1.9966    7.2921   -0.3706 C.ar    1  LIG1        0.0340
     24 C          -4.6127    8.3360   -0.3270 C.ar    1  LIG1        0.0221
     25 H          -3.7106   10.0759    0.5576 H       1  LIG1        0.0637
     26 C          -3.0833    6.5386   -0.8269 C.ar    1  LIG1       -0.0492
     27 C          -4.3679    7.0439   -0.8103 C.ar    1  LIG1       -0.0502
     28 H          -2.9026    5.5402   -1.2078 H       1  LIG1        0.0625
     29 C          -1.2030    9.3759    0.7317 C.1     1  LIG1       -0.0689
     30 C          -0.3648   10.0685    1.2466 C.1     1  LIG1       -0.1139
     31 H           0.3997   10.6767    1.6728 H       1  LIG1        0.1232
     32 H          -5.1902    6.4432   -1.1791 H       1  LIG1        0.0625
     33 C          -5.9626    8.8734   -0.3222 C.ar    1  LIG1        0.1775
     34 C          -6.5089   10.0727    0.0532 C.ar    1  LIG1        0.1830
     35 C          -7.9267    9.9749   -0.1979 C.ar    1  LIG1        0.1316
     36 C          -8.1209    8.7220   -0.7054 C.ar    1  LIG1        0.1137
     37 O          -6.9678    8.0593   -0.7827 O.2     1  LIG1       -0.4578
     38 H          -9.0115    8.2109   -1.0351 H       1  LIG1        0.1044
     39 O          -5.7826   11.0828    0.5607 O.3     1  LIG1       -0.4901
     40 C          -6.4126   12.3409    0.7716 C.3     1  LIG1        0.0790
     41 H          -5.6249   13.0108    1.1130 H       1  LIG1        0.0660
     42 H          -6.8444   12.7281   -0.1555 H       1  LIG1        0.0660
     43 H          -7.1904   12.2727    1.5363 H       1  LIG1        0.0660
     44 N          -9.8291   11.6739    0.1815 N.1     1  LIG1       -0.1906
     45 C          -8.9674   10.9199    0.0146 C.1     1  LIG1        0.1060
@<TRIPOS>BOND
     1    19    20    3
     2    20    15    1
     3    28    26    1
     4    32    27    1
     5    38    36    1
     6    18    14    1
     7    26    27   ar
     8    26    23   ar
     9    27    24   ar
    10    15    14   ar
    11    15    16   ar
    12    37    36   ar
    13    37    33   ar
    14    14    13   ar
    15    36    35   ar
    16    16    23    1
    17    16    17   ar
    18    23    21   ar
    19    24    33    1
    20    24    22   ar
    21    33    34   ar
    22    13    17   ar
    23    13     4    1
    24    35    45    1
    25    35    34   ar
    26    42    40    1
    27    12     3    1
    28     4     3   ar
    29     4     5   ar
    30    11     8    1
    31    45    44    3
    32    34    39    1
    33     3     2   ar
    34    21    22   ar
    35    21    29    1
    36    22    25    1
    37     5     1   ar
    38     2     1   ar
    39     2     7    1
    40     1     6    1
    41     7     8    1
    42    39    40    1
    43    29    30    3
    44    40    41    1
    45    40    43    1
    46     8     9    1
    47     8    10    1
    48    30    31    1
