@<TRIPOS>MOLECULE
mol_data/opt/cam/geoms/mol2/12la12la.out
 24 25 0 0 0
SMALL
GASTEIGER

@<TRIPOS>ATOM
      1 C          -0.0151    1.7741   -0.0002 C.ar    1  LIG1        0.1342
      2 C           1.3401    1.6744    0.0001 C.ar    1  LIG1        0.1583
      3 C           1.8591    3.0031    0.0002 C.ar    1  LIG1        0.0292
      4 C           0.7751    3.8341   -0.0000 C.ar    1  LIG1        0.1770
      5 O          -0.3631    3.0939   -0.0003 O.2     1  LIG1       -0.4560
      6 H          -0.8262    1.0673   -0.0004 H       1  LIG1        0.1068
      7 O           2.1364    0.5834    0.0003 O.3     1  LIG1       -0.4919
      8 C           1.4481   -0.6501    0.0001 C.3     1  LIG1        0.0789
      9 H           2.2042   -1.4345    0.0003 H       1  LIG1        0.0660
     10 H           0.8181   -0.7497    0.8926 H       1  LIG1        0.0660
     11 H           0.8185   -0.7496   -0.8927 H       1  LIG1        0.0660
     12 H           2.9043    3.2524    0.0005 H       1  LIG1        0.0693
     13 C           0.5323    5.2708   -0.0001 C.ar    1  LIG1        0.2110
     14 C           1.2302    6.4608   -0.0000 C.ar    1  LIG1        0.1687
     15 C           0.2642    7.5134   -0.0001 C.ar    1  LIG1        0.0187
     16 C          -0.9439    6.9109   -0.0001 C.ar    1  LIG1        0.0964
     17 O          -0.8101    5.5738   -0.0001 O.2     1  LIG1       -0.4560
     18 H          -1.9555    7.2851   -0.0001 H       1  LIG1        0.1031
     19 O           2.5375    6.7996   -0.0000 O.3     1  LIG1       -0.4912
     20 C           3.5233    5.7904   -0.0002 C.3     1  LIG1        0.0790
     21 H           4.4842    6.3051   -0.0004 H       1  LIG1        0.0660
     22 H           3.4527    5.1669    0.8963 H       1  LIG1        0.0660
     23 H           3.4524    5.1669   -0.8966 H       1  LIG1        0.0660
     24 H           0.4889    8.5685   -0.0001 H       1  LIG1        0.0686
@<TRIPOS>BOND
     1    23    20    1
     2    11     8    1
     3     6     1    1
     4    21    20    1
     5     5     1   ar
     6     5     4   ar
     7     1     2   ar
     8    20    19    1
     9    20    22    1
    10    18    16    1
    11    16    17   ar
    12    16    15   ar
    13    17    13   ar
    14    15    24    1
    15    15    14   ar
    16    13    14   ar
    17    13     4    1
    18    14    19    1
    19     4     3   ar
    20     2     3   ar
    21     2     7    1
    22     8     9    1
    23     8     7    1
    24     8    10    1
    25     3    12    1
