@<TRIPOS>MOLECULE
mol_data/opt/cam/geoms/mol2/12la6hl-13fd12ah-13le13il4ei12el-.out
 104 111 0 0 0
SMALL
GASTEIGER

@<TRIPOS>ATOM
      1 C          -1.6118    1.8552    2.4976 C.ar    1  LIG1        0.1341
      2 C          -0.2866    1.5476    2.4562 C.ar    1  LIG1        0.1582
      3 C           0.3846    2.6557    1.8572 C.ar    1  LIG1        0.0261
      4 C          -0.5798    3.5801    1.5696 C.ar    1  LIG1        0.1418
      5 O          -1.7930    3.0971    1.9514 O.2     1  LIG1       -0.4591
      6 H          -2.4983    1.3526    2.8418 H       1  LIG1        0.1068
      7 O           0.3610    0.4428    2.8787 O.3     1  LIG1       -0.4919
      8 C          -0.4672   -0.5504    3.4500 C.3     1  LIG1        0.0789
      9 H           0.1836   -1.3732    3.7435 H       1  LIG1        0.0660
     10 H          -0.9904   -0.1652    4.3336 H       1  LIG1        0.0660
     11 H          -1.2074   -0.9096    2.7247 H       1  LIG1        0.0660
     12 H           1.4491    2.7405    1.7062 H       1  LIG1        0.0692
     13 C          -1.5884    5.8283    0.9626 C.ar    1  LIG1        0.1279
     14 C          -0.5158    4.9057    0.9679 C.ar    1  LIG1        0.0603
     15 C           0.6767    5.3202    0.3678 C.ar    1  LIG1       -0.0038
     16 C           0.8130    6.5827   -0.1819 C.ar    1  LIG1        0.1483
     17 C          -0.2935    7.4447   -0.1237 C.ar    1  LIG1        0.1343
     18 N          -1.4465    7.0402    0.4219 N.ar    1  LIG1       -0.2264
     19 H           1.5053    4.6250    0.3265 H       1  LIG1        0.0663
     20 N          -2.8038    5.5773    1.5378 N.pl3   1  LIG1       -0.3426
     21 H          -3.5235    6.2487    1.3272 H       1  LIG1        0.1437
     22 H          -3.1039    4.6293    1.6933 H       1  LIG1        0.1437
     23 O           1.9277    7.0473   -0.7972 O.3     1  LIG1       -0.4929
     24 C           3.0682    6.2239   -0.8328 C.3     1  LIG1        0.0789
     25 H           3.8410    6.8027   -1.3375 H       1  LIG1        0.0660
     26 H           3.4130    5.9650    0.1761 H       1  LIG1        0.0660
     27 H           2.8853    5.3001   -1.3961 H       1  LIG1        0.0660
     28 C          -0.3382    8.8093   -0.6512 C.ar    1  LIG1        0.1124
     29 C           0.5143    9.7664   -1.1898 C.ar    1  LIG1        0.1618
     30 C          -0.2628   10.9334   -1.4606 C.ar    1  LIG1        0.1220
     31 C          -1.5775   10.6624   -1.0736 C.ar    1  LIG1        0.1039
     32 N          -1.5841    9.4052   -0.6033 N.ar    1  LIG1       -0.3465
     33 H          -2.3609    8.9039   -0.1964 H       1  LIG1        0.1662
     34 O           1.8383    9.6671   -1.4188 O.3     1  LIG1       -0.5034
     35 H           2.1469   10.5075   -1.7838 H       1  LIG1        0.2923
     36 N           0.7153   13.0809   -2.4849 N.1     1  LIG1       -0.1907
     37 C           0.2479   12.1245   -2.0231 C.1     1  LIG1        0.1051
     38 C          -2.7883   11.4365   -1.1093 C.ar    1  LIG1        0.1551
     39 C          -3.1159   12.7219   -1.4200 C.ar    1  LIG1        0.0071
     40 C          -4.5295   12.8465   -1.2288 C.ar    1  LIG1        0.0732
     41 C          -4.9675   11.6149   -0.8110 C.ar    1  LIG1        0.1760
     42 O          -3.8992   10.7520   -0.7292 O.2     1  LIG1       -0.4498
     43 H          -2.4336   13.4961   -1.7393 H       1  LIG1        0.0675
     44 N          -5.2771   14.0024   -1.3743 N.pl3   1  LIG1       -0.3550
     45 H          -4.9799   14.6023   -2.1297 H       1  LIG1        0.1424
     46 H          -6.2784   13.8454   -1.3565 H       1  LIG1        0.1424
     47 C          -6.2299   11.0213   -0.4630 C.ar    1  LIG1        0.1279
     48 C          -7.5071   11.5063   -0.2830 C.ar    1  LIG1        0.1643
     49 C          -8.3574   10.4146    0.0895 C.ar    1  LIG1        0.0937
     50 C          -7.5548    9.2805    0.1304 C.ar    1  LIG1        0.0830
     51 N          -6.2927    9.6668   -0.2286 N.ar    1  LIG1       -0.3466
     52 H          -5.4743    9.0849   -0.1565 H       1  LIG1        0.1662
     53 O          -7.8826   12.8039   -0.4929 O.3     1  LIG1       -0.4916
     54 C          -8.3342   13.4851    0.6780 C.3     1  LIG1        0.0789
     55 H          -8.6028   14.4941    0.3640 H       1  LIG1        0.0660
     56 H          -9.2112   12.9893    1.1014 H       1  LIG1        0.0660
     57 H          -7.5378   13.5339    1.4277 H       1  LIG1        0.0660
     58 C          -9.7610   10.4691    0.2926 C.1     1  LIG1       -0.0638
     59 C         -10.9522   10.5306    0.4650 C.1     1  LIG1       -0.1137
     60 H         -12.0083   10.5810    0.5960 H       1  LIG1        0.1232
     61 C          -7.8080    7.8838    0.4268 C.ar    1  LIG1        0.0712
     62 C          -8.4552    7.2585    1.4763 C.ar    1  LIG1        0.0186
     63 C          -8.1949    5.8684    1.3287 C.ar    1  LIG1        0.1488
     64 C          -7.4101    5.6667    0.2105 C.ar    1  LIG1        0.0906
     65 N          -7.1828    6.9122   -0.3237 N.ar    1  LIG1       -0.3498
     66 H          -6.7055    7.0781   -1.1950 H       1  LIG1        0.1661
     67 C          -9.2101    7.8897    2.6002 C.3     1  LIG1       -0.0341
     68 H          -9.1966    7.2313    3.4721 H       1  LIG1        0.0279
     69 H         -10.2538    8.0856    2.3359 H       1  LIG1        0.0279
     70 H          -8.7700    8.8496    2.8818 H       1  LIG1        0.0279
     71 O          -8.6237    4.8902    2.1791 O.3     1  LIG1       -0.4927
     72 C          -9.9601    4.4726    1.9500 C.3     1  LIG1        0.0789
     73 H         -10.1820    3.7038    2.6916 H       1  LIG1        0.0660
     74 H         -10.6672    5.3021    2.0678 H       1  LIG1        0.0660
     75 H         -10.0752    4.0511    0.9446 H       1  LIG1        0.0660
     76 C          -6.1041    3.5110    0.2352 C.ar    1  LIG1        0.0346
     77 C          -5.6142    2.4100   -0.4693 C.ar    1  LIG1       -0.0347
     78 C          -6.8919    4.4594   -0.4428 C.ar    1  LIG1        0.0175
     79 C          -5.8671    2.2277   -1.8272 C.ar    1  LIG1        0.0227
     80 H          -5.0028    1.6880    0.0576 H       1  LIG1        0.0637
     81 C          -7.1361    4.2623   -1.8038 C.ar    1  LIG1       -0.0477
     82 C          -6.6456    3.1761   -2.5194 C.ar    1  LIG1       -0.0391
     83 H          -7.7515    4.9894   -2.3259 H       1  LIG1        0.0627
     84 C          -5.7480    3.6635    1.6140 C.1     1  LIG1       -0.0690
     85 C          -5.4083    3.7689    2.7649 C.1     1  LIG1       -0.1139
     86 H          -5.1472    3.8818    3.7920 H       1  LIG1        0.1232
     87 C          -6.9470    3.0628   -3.9901 C.3     1  LIG1       -0.0390
     88 H          -7.3817    3.9921   -4.3630 H       1  LIG1        0.0278
     89 H          -7.6488    2.2507   -4.1931 H       1  LIG1        0.0278
     90 H          -6.0437    2.8501   -4.5672 H       1  LIG1        0.0278
     91 C          -5.2830    1.0585   -2.4885 C.ar    1  LIG1        0.1541
     92 C          -4.0648    0.4380   -2.3550 C.ar    1  LIG1        0.1119
     93 C          -4.0951   -0.6766   -3.2734 C.ar    1  LIG1        0.1736
     94 C          -5.3059   -0.6482   -3.8778 C.ar    1  LIG1        0.1354
     95 O          -6.0295    0.4068   -3.4131 O.2     1  LIG1       -0.4579
     96 H          -5.7641   -1.2643   -4.6330 H       1  LIG1        0.1068
     97 C          -2.9698    0.8506   -1.5507 C.1     1  LIG1       -0.0622
     98 C          -2.0350    1.1960   -0.8735 C.1     1  LIG1       -0.1137
     99 H          -1.2035    1.5154   -0.2851 H       1  LIG1        0.1232
    100 O          -3.0993   -1.5505   -3.5518 O.3     1  LIG1       -0.4907
    101 C          -2.6532   -2.3295   -2.4471 C.3     1  LIG1        0.0790
    102 H          -1.8596   -2.9728   -2.8272 H       1  LIG1        0.0660
    103 H          -2.2577   -1.6981   -1.6471 H       1  LIG1        0.0660
    104 H          -3.4678   -2.9490   -2.0548 H       1  LIG1        0.0660
@<TRIPOS>BOND
     1    96    94    1
     2    90    87    1
     3    88    87    1
     4    89    87    1
     5    87    82    1
     6    94    95   ar
     7    94    93   ar
     8   100    93    1
     9   100   101    1
    10    95    91   ar
    11    93    92   ar
    12   102   101    1
    13    82    79   ar
    14    82    81   ar
    15    91    92   ar
    16    91    79    1
    17    36    37    3
    18   101   104    1
    19   101   103    1
    20    92    97    1
    21    83    81    1
    22    45    44    1
    23    37    30    1
    24    79    77   ar
    25    81    78   ar
    26    35    34    1
    27    43    39    1
    28    97    98    3
    29    30    29   ar
    30    30    31   ar
    31    39    40   ar
    32    39    38   ar
    33    34    29    1
    34    27    24    1
    35    44    46    1
    36    44    40    1
    37    25    24    1
    38    40    41   ar
    39    66    65    1
    40    29    28   ar
    41    38    31    1
    42    38    42   ar
    43    31    32   ar
    44    98    99    1
    45    24    23    1
    46    24    26    1
    47    41    42   ar
    48    41    47    1
    49    23    16    1
    50    28    32   ar
    51    28    17    1
    52    32    33    1
    53    53    48    1
    54    53    54    1
    55    77    80    1
    56    77    76   ar
    57    47    48   ar
    58    47    51   ar
    59    78    64    1
    60    78    76   ar
    61    65    64   ar
    62    65    61   ar
    63    48    49   ar
    64    51    52    1
    65    51    50   ar
    66    16    17   ar
    67    16    15   ar
    68    17    18   ar
    69    49    50   ar
    70    49    58    1
    71    50    61    1
    72    64    63   ar
    73    76    84    1
    74    58    59    3
    75    19    15    1
    76    55    54    1
    77    15    14   ar
    78    18    13   ar
    79    61    62   ar
    80    59    60    1
    81    54    56    1
    82    54    57    1
    83    75    72    1
    84    13    14   ar
    85    13    20    1
    86    14     4    1
    87    21    20    1
    88    63    62   ar
    89    63    71    1
    90    62    67    1
    91    20    22    1
    92     4     3   ar
    93     4     5   ar
    94    84    85    3
    95    12     3    1
    96     3     2   ar
    97    72    74    1
    98    72    71    1
    99    72    73    1
   100     5     1   ar
   101    69    67    1
   102     2     1   ar
   103     2     7    1
   104     1     6    1
   105    67    70    1
   106    67    68    1
   107    11     8    1
   108    85    86    1
   109     7     8    1
   110     8     9    1
   111     8    10    1
