@<TRIPOS>MOLECULE
mol_data/opt/cam/geoms/mol2/12la12la12la12la-.out
 46 49 0 0 0
SMALL
GASTEIGER

@<TRIPOS>ATOM
      1 C           0.4321    0.9574   -0.0956 C.ar    1  LIG1        0.1342
      2 C           1.7903    1.0434   -0.0495 C.ar    1  LIG1        0.1583
      3 C           2.1255    2.4283    0.0141 C.ar    1  LIG1        0.0292
      4 C           0.9327    3.0908    0.0018 C.ar    1  LIG1        0.1770
      5 O          -0.1008    2.2182   -0.0642 O.2     1  LIG1       -0.4560
      6 H          -0.2706    0.1446   -0.1489 H       1  LIG1        0.1068
      7 O           2.7203    0.0619   -0.0577 O.3     1  LIG1       -0.4919
      8 C           2.1971   -1.2467   -0.1245 C.3     1  LIG1        0.0789
      9 H           3.0469   -1.9290   -0.1239 H       1  LIG1        0.0660
     10 H           1.5568   -1.4607    0.7406 H       1  LIG1        0.0660
     11 H           1.6130   -1.3923   -1.0419 H       1  LIG1        0.0660
     12 H           3.1090    2.8662    0.0619 H       1  LIG1        0.0693
     13 C           0.6261    4.4919    0.0459 C.ar    1  LIG1        0.2121
     14 C           1.4324    5.5982    0.1138 C.ar    1  LIG1        0.1694
     15 C           0.5854    6.7401    0.1311 C.ar    1  LIG1        0.0300
     16 C          -0.6906    6.2449    0.0718 C.ar    1  LIG1        0.1780
     17 O          -0.6796    4.8944    0.0203 O.2     1  LIG1       -0.4447
     18 O           2.7826    5.5261    0.1535 O.3     1  LIG1       -0.4912
     19 C           3.4648    6.7620    0.2226 C.3     1  LIG1        0.0790
     20 H           4.5286    6.5269    0.2472 H       1  LIG1        0.0660
     21 H           3.2520    7.3844   -0.6541 H       1  LIG1        0.0660
     22 H           3.1956    7.3158    1.1293 H       1  LIG1        0.0660
     23 H           0.8507    7.7833    0.1796 H       1  LIG1        0.0694
     24 C          -1.9575    6.9114    0.0575 C.ar    1  LIG1        0.2121
     25 C          -2.2861    8.2425    0.0981 C.ar    1  LIG1        0.1694
     26 C          -3.7046    8.3291    0.0567 C.ar    1  LIG1        0.0300
     27 C          -4.1448    7.0346   -0.0068 C.ar    1  LIG1        0.1780
     28 O          -3.1048    6.1731   -0.0069 O.2     1  LIG1       -0.4447
     29 O          -1.3628    9.2288    0.1650 O.3     1  LIG1       -0.4912
     30 C          -1.8698   10.5486    0.1995 C.3     1  LIG1        0.0790
     31 H          -1.0059   11.2106    0.2522 H       1  LIG1        0.0660
     32 H          -2.4460   10.7773   -0.7042 H       1  LIG1        0.0660
     33 H          -2.5025   10.7090    1.0798 H       1  LIG1        0.0660
     34 H          -4.3267    9.2091    0.0707 H       1  LIG1        0.0694
     35 C          -5.4666    6.4831   -0.0695 C.ar    1  LIG1        0.2111
     36 C          -5.9666    5.2083   -0.1342 C.ar    1  LIG1        0.1687
     37 C          -7.3920    5.3270   -0.1744 C.ar    1  LIG1        0.0187
     38 C          -7.6493    6.6581   -0.1315 C.ar    1  LIG1        0.0964
     39 O          -6.5064    7.3717   -0.0681 O.2     1  LIG1       -0.4560
     40 H          -8.5647    7.2279   -0.1384 H       1  LIG1        0.1031
     41 O          -5.2019    4.1010   -0.1525 O.3     1  LIG1       -0.4912
     42 C          -5.8864    2.8669   -0.2226 C.3     1  LIG1        0.0790
     43 H          -5.1195    2.0935   -0.2285 H       1  LIG1        0.0660
     44 H          -6.5398    2.7213    0.6457 H       1  LIG1        0.0660
     45 H          -6.4830    2.7913   -1.1394 H       1  LIG1        0.0660
     46 H          -8.1207    4.5338   -0.2278 H       1  LIG1        0.0686
@<TRIPOS>BOND
     1    45    42    1
     2    11     8    1
     3    32    30    1
     4    21    19    1
     5    43    42    1
     6    46    37    1
     7    42    41    1
     8    42    44    1
     9    37    36   ar
    10    37    38   ar
    11    41    36    1
    12     6     1    1
    13    40    38    1
    14    36    35   ar
    15    38    39   ar
    16     8     9    1
    17     8     7    1
    18     8    10    1
    19     1     5   ar
    20     1     2   ar
    21    35    39   ar
    22    35    27    1
    23     5     4   ar
    24     7     2    1
    25     2     3   ar
    26    28    27   ar
    27    28    24   ar
    28    27    26   ar
    29     4     3   ar
    30     4    13    1
    31     3    12    1
    32    17    13   ar
    33    17    16   ar
    34    13    14   ar
    35    26    34    1
    36    26    25   ar
    37    24    16    1
    38    24    25   ar
    39    16    15   ar
    40    25    29    1
    41    14    15   ar
    42    14    18    1
    43    15    23    1
    44    18    19    1
    45    29    30    1
    46    30    31    1
    47    30    33    1
    48    19    20    1
    49    19    22    1
