@<TRIPOS>MOLECULE
mol_data/opt/cam/geoms/mol2/12la12la-12la-12la.out
 46 49 0 0 0
SMALL
GASTEIGER

@<TRIPOS>ATOM
      1 C          -0.2463    1.8306   -0.0000 C.ar    1  LIG1        0.1342
      2 C           1.1130    1.7500   -0.0000 C.ar    1  LIG1        0.1583
      3 C           1.6155    3.0852   -0.0000 C.ar    1  LIG1        0.0292
      4 C           0.5135    3.8885   -0.0000 C.ar    1  LIG1        0.1770
      5 O          -0.6194    3.1479   -0.0001 O.2     1  LIG1       -0.4560
      6 H          -1.0448    1.1099   -0.0000 H       1  LIG1        0.1068
      7 O           1.9166    0.6634    0.0000 O.3     1  LIG1       -0.4919
      8 C           1.2374   -0.5740    0.0000 C.3     1  LIG1        0.0789
      9 H           1.9988   -1.3535    0.0000 H       1  LIG1        0.0660
     10 H           0.6078   -0.6785    0.8925 H       1  LIG1        0.0660
     11 H           0.6078   -0.6785   -0.8925 H       1  LIG1        0.0660
     12 H           2.6490    3.3915    0.0000 H       1  LIG1        0.0693
     13 C           0.3710    5.3161   -0.0001 C.ar    1  LIG1        0.2121
     14 C          -0.6983    6.1748   -0.0001 C.ar    1  LIG1        0.1694
     15 C          -0.1748    7.5002   -0.0001 C.ar    1  LIG1        0.0300
     16 C           1.1855    7.3582   -0.0001 C.ar    1  LIG1        0.1780
     17 O           1.5292    6.0498   -0.0001 O.2     1  LIG1       -0.4447
     18 O          -1.9857    5.7729   -0.0000 O.3     1  LIG1       -0.4912
     19 C          -2.9543    6.8014   -0.0001 C.3     1  LIG1        0.0790
     20 H          -3.9256    6.3074   -0.0001 H       1  LIG1        0.0660
     21 H          -2.8699    7.4317    0.8929 H       1  LIG1        0.0660
     22 H          -2.8699    7.4317   -0.8930 H       1  LIG1        0.0660
     23 H          -0.7059    8.4378   -0.0001 H       1  LIG1        0.0694
     24 C           2.2423    8.3225   -0.0001 C.ar    1  LIG1        0.2121
     25 C           2.2464    9.6924   -0.0001 C.ar    1  LIG1        0.1694
     26 C           3.6065   10.1107   -0.0001 C.ar    1  LIG1        0.0300
     27 C           4.3473    8.9594   -0.0001 C.ar    1  LIG1        0.1780
     28 O           3.5374    7.8796   -0.0001 O.2     1  LIG1       -0.4447
     29 O           1.1158   10.4320   -0.0001 O.3     1  LIG1       -0.4912
     30 C           1.2936   11.8362   -0.0002 C.3     1  LIG1        0.0790
     31 H           0.2955   12.2730   -0.0002 H       1  LIG1        0.0660
     32 H           1.8342   12.1683    0.8931 H       1  LIG1        0.0660
     33 H           1.8341   12.1683   -0.8935 H       1  LIG1        0.0660
     34 H           4.0019   11.1128   -0.0002 H       1  LIG1        0.0694
     35 C           5.7800    8.7913   -0.0002 C.ar    1  LIG1        0.2111
     36 C           6.7273    7.7883   -0.0001 C.ar    1  LIG1        0.1687
     37 C           8.0055    8.4332   -0.0001 C.ar    1  LIG1        0.0187
     38 C           7.7615    9.7603   -0.0002 C.ar    1  LIG1        0.0964
     39 O           6.4361   10.0035   -0.0002 O.2     1  LIG1       -0.4560
     40 H           8.4022   10.6280   -0.0003 H       1  LIG1        0.1031
     41 O           6.6884    6.4453   -0.0000 O.3     1  LIG1       -0.4912
     42 C           5.4479    5.7549   -0.0001 C.3     1  LIG1        0.0790
     43 H           5.7046    4.6957   -0.0001 H       1  LIG1        0.0660
     44 H           4.8586    5.9924    0.8879 H       1  LIG1        0.0660
     45 H           4.8587    5.9924   -0.8882 H       1  LIG1        0.0660
     46 H           8.9589    7.9284   -0.0001 H       1  LIG1        0.0686
@<TRIPOS>BOND
     1    33    30    1
     2    22    19    1
     3    11     8    1
     4    45    42    1
     5    40    38    1
     6    39    38   ar
     7    39    35   ar
     8    38    37   ar
     9    31    30    1
    10    30    29    1
    11    30    32    1
    12    35    27    1
    13    35    36   ar
    14    34    26    1
    15    26    27   ar
    16    26    25   ar
    17    27    28   ar
    18    37    46    1
    19    37    36   ar
    20    25    29    1
    21    25    24   ar
    22    28    24   ar
    23    24    16    1
    24    36    41    1
    25    16    17   ar
    26    16    15   ar
    27    42    43    1
    28    42    41    1
    29    42    44    1
    30    17    13   ar
    31    23    15    1
    32    15    14   ar
    33    13    14   ar
    34    13     4    1
    35    19    20    1
    36    19    18    1
    37    19    21    1
    38    14    18    1
    39     5     4   ar
    40     5     1   ar
    41     4     3   ar
    42     6     1    1
    43     1     2   ar
    44     3     2   ar
    45     3    12    1
    46     2     7    1
    47     8     7    1
    48     8     9    1
    49     8    10    1
