@<TRIPOS>MOLECULE
mol_data/opt/cam/geoms/mol2/12la12la12la.out
 35 37 0 0 0
SMALL
GASTEIGER

@<TRIPOS>ATOM
      1 C          -0.0272    1.7284   -0.0006 C.ar    1  LIG1        0.1342
      2 C           1.3227    1.5710   -0.0000 C.ar    1  LIG1        0.1583
      3 C           1.8978    2.8759    0.0004 C.ar    1  LIG1        0.0292
      4 C           0.8494    3.7527    0.0000 C.ar    1  LIG1        0.1770
      5 O          -0.3187    3.0615   -0.0006 O.2     1  LIG1       -0.4560
      6 H          -0.8676    1.0567   -0.0010 H       1  LIG1        0.1068
      7 O           2.0713    0.4463    0.0002 O.3     1  LIG1       -0.4919
      8 C           1.3304   -0.7559   -0.0003 C.3     1  LIG1        0.0789
      9 H           2.0515   -1.5727   -0.0001 H       1  LIG1        0.0660
     10 H           0.6962   -0.8283    0.8920 H       1  LIG1        0.0660
     11 H           0.6970   -0.8281   -0.8931 H       1  LIG1        0.0660
     12 H           2.9527    3.0805    0.0009 H       1  LIG1        0.0693
     13 C           0.6711    5.1964    0.0001 C.ar    1  LIG1        0.2121
     14 C           1.4172    6.3546    0.0003 C.ar    1  LIG1        0.1694
     15 C           0.5039    7.4453    0.0004 C.ar    1  LIG1        0.0300
     16 C          -0.7499    6.9098    0.0002 C.ar    1  LIG1        0.1780
     17 O          -0.6539    5.5624    0.0000 O.2     1  LIG1       -0.4447
     18 O           2.7374    6.6402    0.0004 O.3     1  LIG1       -0.4912
     19 C           3.6799    5.5904    0.0002 C.3     1  LIG1        0.0790
     20 H           4.6617    6.0642    0.0001 H       1  LIG1        0.0660
     21 H           3.5830    4.9702    0.8965 H       1  LIG1        0.0660
     22 H           3.5827    4.9703   -0.8960 H       1  LIG1        0.0660
     23 H           0.8084    8.4758    0.0005 H       1  LIG1        0.0694
     24 C          -2.1201    7.3976    0.0001 C.ar    1  LIG1        0.2111
     25 C          -2.8165    8.5895   -0.0002 C.ar    1  LIG1        0.1687
     26 C          -4.2064    8.2619    0.0001 C.ar    1  LIG1        0.0187
     27 C          -4.2715    6.9130    0.0005 C.ar    1  LIG1        0.0964
     28 O          -3.0409    6.3755    0.0005 O.2     1  LIG1       -0.4560
     29 H          -5.0930    6.2140    0.0007 H       1  LIG1        0.1031
     30 O          -2.4703    9.8940   -0.0006 O.3     1  LIG1       -0.4912
     31 C          -1.1070   10.2571   -0.0011 C.3     1  LIG1        0.0790
     32 H          -1.0833   11.3469   -0.0017 H       1  LIG1        0.0660
     33 H          -0.5988    9.8894    0.8956 H       1  LIG1        0.0660
     34 H          -0.5991    9.8884   -0.8974 H       1  LIG1        0.0660
     35 H          -5.0170    8.9736   -0.0001 H       1  LIG1        0.0686
@<TRIPOS>BOND
     1    34    31    1
     2    22    19    1
     3    11     8    1
     4    32    31    1
     5    31    30    1
     6    31    33    1
     7     6     1    1
     8    30    25    1
     9     1     5   ar
    10     1     2   ar
    11     5     4   ar
    12     8     9    1
    13     8     7    1
    14     8    10    1
    15    25    26   ar
    16    25    24   ar
    17    35    26    1
    18     2     7    1
    19     2     3   ar
    20     4    13    1
    21     4     3   ar
    22    17    13   ar
    23    17    16   ar
    24    26    27   ar
    25    20    19    1
    26    24    16    1
    27    24    28   ar
    28    13    14   ar
    29    16    15   ar
    30    19    18    1
    31    19    21    1
    32    14    15   ar
    33    14    18    1
    34    15    23    1
    35     3    12    1
    36    27    28   ar
    37    27    29    1
