@<TRIPOS>MOLECULE
mol_data/opt/cam/geoms/mol2/12la12la-.out
 24 25 0 0 0
SMALL
GASTEIGER

@<TRIPOS>ATOM
      1 C           0.0894    1.8679   -0.0000 C.ar    1  LIG1        0.1342
      2 C           1.4509    1.8433    0.0000 C.ar    1  LIG1        0.1583
      3 C           1.8974    3.1987   -0.0000 C.ar    1  LIG1        0.0292
      4 C           0.7636    3.9538   -0.0001 C.ar    1  LIG1        0.1770
      5 O          -0.3379    3.1681   -0.0001 O.2     1  LIG1       -0.4560
      6 H          -0.6787    1.1147   -0.0000 H       1  LIG1        0.1068
      7 O           2.2989    0.7916    0.0001 O.3     1  LIG1       -0.4919
      8 C           1.6728   -0.4738    0.0001 C.3     1  LIG1        0.0789
      9 H           2.4668   -1.2199    0.0001 H       1  LIG1        0.0660
     10 H           1.0484   -0.6050    0.8926 H       1  LIG1        0.0660
     11 H           1.0484   -0.6050   -0.8925 H       1  LIG1        0.0660
     12 H           2.9172    3.5485   -0.0000 H       1  LIG1        0.0693
     13 C           0.5607    5.3777   -0.0001 C.ar    1  LIG1        0.2110
     14 C          -0.5448    6.1860   -0.0001 C.ar    1  LIG1        0.1687
     15 C          -0.0693    7.5362   -0.0001 C.ar    1  LIG1        0.0187
     16 C           1.2839    7.4458   -0.0002 C.ar    1  LIG1        0.0964
     17 O           1.6828    6.1578   -0.0001 O.2     1  LIG1       -0.4560
     18 H           2.0683    8.1857   -0.0002 H       1  LIG1        0.1031
     19 O          -1.8156    5.7315   -0.0001 O.3     1  LIG1       -0.4912
     20 C          -2.8270    6.7173   -0.0001 C.3     1  LIG1        0.0790
     21 H          -3.7763    6.1824   -0.0001 H       1  LIG1        0.0660
     22 H          -2.7712    7.3507    0.8932 H       1  LIG1        0.0660
     23 H          -2.7712    7.3506   -0.8935 H       1  LIG1        0.0660
     24 H          -0.6518    8.4439   -0.0001 H       1  LIG1        0.0686
@<TRIPOS>BOND
     1    23    20    1
     2    11     8    1
     3    18    16    1
     4    16    17   ar
     5    16    15   ar
     6    17    13   ar
     7    15    24    1
     8    15    14   ar
     9    13    14   ar
    10    13     4    1
    11    14    19    1
    12    20    21    1
    13    20    19    1
    14    20    22    1
    15     5     4   ar
    16     5     1   ar
    17     4     3   ar
    18     6     1    1
    19     1     2   ar
    20     3    12    1
    21     3     2   ar
    22     2     7    1
    23     7     8    1
    24     8     9    1
    25     8    10    1
