@<TRIPOS>MOLECULE
mol_data/opt/cam/geoms/mol2/12la12la-12la-12la-.out
 46 49 0 0 0
SMALL
GASTEIGER

@<TRIPOS>ATOM
      1 C          -0.2206    1.7564   -0.0001 C.ar    1  LIG1        0.1342
      2 C           1.1365    1.6433   -0.0000 C.ar    1  LIG1        0.1583
      3 C           1.6718    2.9656   -0.0000 C.ar    1  LIG1        0.0292
      4 C           0.5892    3.7946   -0.0001 C.ar    1  LIG1        0.1770
      5 O          -0.5621    3.0822   -0.0001 O.2     1  LIG1       -0.4560
      6 H          -1.0361    1.0549   -0.0001 H       1  LIG1        0.1068
      7 O           1.9124    0.5361    0.0000 O.3     1  LIG1       -0.4919
      8 C           1.2019   -0.6829    0.0000 C.3     1  LIG1        0.0789
      9 H           1.9426   -1.4823    0.0001 H       1  LIG1        0.0660
     10 H           0.5694   -0.7714    0.8924 H       1  LIG1        0.0660
     11 H           0.5695   -0.7714   -0.8923 H       1  LIG1        0.0660
     12 H           2.7117    3.2499   -0.0000 H       1  LIG1        0.0693
     13 C           0.4836    5.2255   -0.0001 C.ar    1  LIG1        0.2121
     14 C          -0.5625    6.1124   -0.0001 C.ar    1  LIG1        0.1694
     15 C          -0.0029    7.4225   -0.0001 C.ar    1  LIG1        0.0300
     16 C           1.3537    7.2427   -0.0001 C.ar    1  LIG1        0.1780
     17 O           1.6598    5.9266   -0.0001 O.2     1  LIG1       -0.4447
     18 O          -1.8613    5.7453   -0.0001 O.3     1  LIG1       -0.4912
     19 C          -2.8004    6.8000   -0.0001 C.3     1  LIG1        0.0790
     20 H          -3.7855    6.3340   -0.0001 H       1  LIG1        0.0660
     21 H          -2.6985    7.4282    0.8926 H       1  LIG1        0.0660
     22 H          -2.6984    7.4282   -0.8928 H       1  LIG1        0.0660
     23 H          -0.5079    8.3742   -0.0001 H       1  LIG1        0.0694
     24 C           2.4329    8.1831   -0.0001 C.ar    1  LIG1        0.2121
     25 C           2.4487    9.5546   -0.0001 C.ar    1  LIG1        0.1694
     26 C           3.8110    9.9620   -0.0001 C.ar    1  LIG1        0.0300
     27 C           4.5359    8.8007   -0.0001 C.ar    1  LIG1        0.1780
     28 O           3.7195    7.7239   -0.0001 O.2     1  LIG1       -0.4447
     29 O           1.3237   10.3051   -0.0001 O.3     1  LIG1       -0.4912
     30 C           1.5164   11.7062   -0.0002 C.3     1  LIG1        0.0790
     31 H           0.5234   12.1549   -0.0002 H       1  LIG1        0.0660
     32 H           2.0611   12.0329    0.8928 H       1  LIG1        0.0660
     33 H           2.0611   12.0328   -0.8932 H       1  LIG1        0.0660
     34 H           4.2232   10.9576   -0.0001 H       1  LIG1        0.0694
     35 C           5.9514    8.5701   -0.0001 C.ar    1  LIG1        0.2111
     36 C           7.0134    9.4355   -0.0001 C.ar    1  LIG1        0.1687
     37 C           8.1987    8.6394   -0.0001 C.ar    1  LIG1        0.0187
     38 C           7.7661    7.3518   -0.0002 C.ar    1  LIG1        0.0964
     39 O           6.4197    7.2902   -0.0001 O.2     1  LIG1       -0.4560
     40 H           8.2833    6.4059   -0.0002 H       1  LIG1        0.1031
     41 O           6.8728   10.7812   -0.0002 O.3     1  LIG1       -0.4912
     42 C           8.0729   11.5295   -0.0002 C.3     1  LIG1        0.0790
     43 H           7.7826   12.5797   -0.0002 H       1  LIG1        0.0660
     44 H           8.6724   11.3210    0.8933 H       1  LIG1        0.0660
     45 H           8.6724   11.3209   -0.8937 H       1  LIG1        0.0660
     46 H           9.2246    8.9721   -0.0000 H       1  LIG1        0.0686
@<TRIPOS>BOND
     1    45    42    1
     2    33    30    1
     3    22    19    1
     4    11     8    1
     5    43    42    1
     6    42    41    1
     7    42    44    1
     8    40    38    1
     9    31    30    1
    10    41    36    1
    11    30    29    1
    12    30    32    1
    13    38    39   ar
    14    38    37   ar
    15    34    26    1
    16    36    35   ar
    17    36    37   ar
    18    26    25   ar
    19    26    27   ar
    20    29    25    1
    21    25    24   ar
    22    27    35    1
    23    27    28   ar
    24    35    39   ar
    25    24    28   ar
    26    24    16    1
    27    16    15   ar
    28    16    17   ar
    29    23    15    1
    30    15    14   ar
    31    17    13   ar
    32    19    20    1
    33    19    18    1
    34    19    21    1
    35     6     1    1
    36     5     1   ar
    37     5     4   ar
    38    14    13   ar
    39    14    18    1
    40    13     4    1
    41    37    46    1
    42     1     2   ar
    43     4     3   ar
    44     3     2   ar
    45     3    12    1
    46     2     7    1
    47     8     7    1
    48     8     9    1
    49     8    10    1
