@<TRIPOS>MOLECULE
mol_data/opt/cam/geoms/mol2/12la12la12la-12la-.out
 46 49 0 0 0
SMALL
GASTEIGER

@<TRIPOS>ATOM
      1 C          -0.0670    1.7691   -0.0004 C.ar    1  LIG1        0.1342
      2 C           1.2836    1.6194    0.0002 C.ar    1  LIG1        0.1583
      3 C           1.8520    2.9270    0.0004 C.ar    1  LIG1        0.0292
      4 C           0.7989    3.7995   -0.0000 C.ar    1  LIG1        0.1770
      5 O          -0.3655    3.1009   -0.0005 O.2     1  LIG1       -0.4560
      6 H          -0.9039    1.0929   -0.0008 H       1  LIG1        0.1068
      7 O           2.0383    0.4978    0.0005 O.3     1  LIG1       -0.4919
      8 C           1.3028   -0.7071    0.0002 C.3     1  LIG1        0.0789
      9 H           2.0274   -1.5210    0.0005 H       1  LIG1        0.0660
     10 H           0.6687   -0.7825    0.8923 H       1  LIG1        0.0660
     11 H           0.6694   -0.7825   -0.8925 H       1  LIG1        0.0660
     12 H           2.9058    3.1365    0.0009 H       1  LIG1        0.0693
     13 C           0.6108    5.2411   -0.0001 C.ar    1  LIG1        0.2121
     14 C           1.3519    6.4073   -0.0001 C.ar    1  LIG1        0.1694
     15 C           0.4347    7.4939   -0.0001 C.ar    1  LIG1        0.0300
     16 C          -0.8083    6.9390   -0.0001 C.ar    1  LIG1        0.1780
     17 O          -0.7221    5.5953   -0.0001 O.2     1  LIG1       -0.4447
     18 O           2.6725    6.6917   -0.0001 O.3     1  LIG1       -0.4912
     19 C           3.6161    5.6442   -0.0003 C.3     1  LIG1        0.0790
     20 H           4.5972    6.1197   -0.0007 H       1  LIG1        0.0660
     21 H           3.5214    5.0235    0.8959 H       1  LIG1        0.0660
     22 H           3.5208    5.0233   -0.8964 H       1  LIG1        0.0660
     23 H           0.6912    8.5409   -0.0001 H       1  LIG1        0.0694
     24 C          -2.1155    7.5250   -0.0001 C.ar    1  LIG1        0.2121
     25 C          -3.3939    7.0257   -0.0001 C.ar    1  LIG1        0.1694
     26 C          -4.2794    8.1419   -0.0002 C.ar    1  LIG1        0.0300
     27 C          -3.4760    9.2483   -0.0002 C.ar    1  LIG1        0.1780
     28 O          -2.1729    8.8936   -0.0001 O.2     1  LIG1       -0.4447
     29 O          -3.6873    5.7113   -0.0001 O.3     1  LIG1       -0.4912
     30 C          -5.0612    5.3824   -0.0002 C.3     1  LIG1        0.0790
     31 H          -5.1147    4.2942   -0.0002 H       1  LIG1        0.0660
     32 H          -5.5659    5.7692    0.8929 H       1  LIG1        0.0660
     33 H          -5.5658    5.7692   -0.8932 H       1  LIG1        0.0660
     34 H          -5.3569    8.1503   -0.0002 H       1  LIG1        0.0694
     35 C          -3.7907   10.6479   -0.0002 C.ar    1  LIG1        0.2111
     36 C          -4.9896   11.3106   -0.0002 C.ar    1  LIG1        0.1687
     37 C          -4.6929   12.7076   -0.0002 C.ar    1  LIG1        0.0187
     38 C          -3.3370   12.7865   -0.0002 C.ar    1  LIG1        0.0964
     39 O          -2.7773   11.5601   -0.0002 O.2     1  LIG1       -0.4560
     40 H          -2.6526   13.6196   -0.0003 H       1  LIG1        0.1031
     41 O          -6.1856   10.6788   -0.0002 O.3     1  LIG1       -0.4912
     42 C          -7.3275   11.5134   -0.0003 C.3     1  LIG1        0.0790
     43 H          -8.1933   10.8520   -0.0003 H       1  LIG1        0.0660
     44 H          -7.3578   12.1473    0.8932 H       1  LIG1        0.0660
     45 H          -7.3577   12.1473   -0.8938 H       1  LIG1        0.0660
     46 H          -5.3845   13.5352   -0.0002 H       1  LIG1        0.0686
@<TRIPOS>BOND
     1    22    19    1
     2    45    42    1
     3    33    30    1
     4    11     8    1
     5     6     1    1
     6    20    19    1
     7     5     1   ar
     8     5     4   ar
     9     1     2   ar
    10    19    18    1
    11    19    21    1
    12    43    42    1
    13    42    41    1
    14    42    44    1
    15    40    38    1
    16    41    36    1
    17    38    37   ar
    18    38    39   ar
    19    36    37   ar
    20    36    35   ar
    21    46    37    1
    22    35    27    1
    23    35    39   ar
    24    34    26    1
    25    26    27   ar
    26    26    25   ar
    27    27    28   ar
    28    30    31    1
    29    30    29    1
    30    30    32    1
    31    28    24   ar
    32    25    24   ar
    33    25    29    1
    34    24    16    1
    35    17    16   ar
    36    17    13   ar
    37    18    14    1
    38    16    15   ar
    39    23    15    1
    40    13    14   ar
    41    13     4    1
    42    15    14   ar
    43     4     3   ar
    44     2     3   ar
    45     2     7    1
    46     8     9    1
    47     8     7    1
    48     8    10    1
    49     3    12    1
