@<TRIPOS>MOLECULE
mol_data/opt/cam/geoms/mol2/12la6df13fd4hi-.out
 49 52 0 0 0
SMALL
GASTEIGER

@<TRIPOS>ATOM
      1 C           0.0770    1.6924   -0.1279 C.ar    1  LIG1        0.1341
      2 C           1.4351    1.7071   -0.2479 C.ar    1  LIG1        0.1582
      3 C           1.8374    3.0740   -0.2239 C.ar    1  LIG1        0.0261
      4 C           0.6901    3.7982   -0.0890 C.ar    1  LIG1        0.1413
      5 O          -0.3794    2.9715   -0.0290 O.2     1  LIG1       -0.4591
      6 H          -0.6684    0.9170   -0.0972 H       1  LIG1        0.1068
      7 O           2.3078    0.6879   -0.3759 O.3     1  LIG1       -0.4919
      8 C           1.7225   -0.5994   -0.3969 C.3     1  LIG1        0.0789
      9 H           2.5373   -1.3137   -0.5078 H       1  LIG1        0.0660
     10 H           1.1838   -0.8018    0.5367 H       1  LIG1        0.0660
     11 H           1.0287   -0.7020   -1.2401 H       1  LIG1        0.0660
     12 H           2.8465    3.4433   -0.3206 H       1  LIG1        0.0692
     13 C          -0.7760    5.8514   -0.2813 C.ar    1  LIG1        0.1516
     14 C           0.4551    5.2327   -0.0030 C.ar    1  LIG1        0.0567
     15 C           1.4988    6.0765    0.3694 C.ar    1  LIG1       -0.0046
     16 C           1.3316    7.4505    0.4524 C.ar    1  LIG1        0.1450
     17 C           0.0527    7.9775    0.1517 C.ar    1  LIG1        0.1334
     18 N          -0.9472    7.1700   -0.1976 N.ar    1  LIG1       -0.2304
     19 H           2.4708    5.6734    0.6279 H       1  LIG1        0.0663
     20 N          -2.9227    4.6168   -1.0642 N.1     1  LIG1       -0.1893
     21 C          -1.9516    5.1320   -0.7069 C.1     1  LIG1        0.1198
     22 O           2.3960    8.1649    0.8383 O.3     1  LIG1       -0.5045
     23 H           2.2339    9.1274    0.8519 H       1  LIG1        0.2922
     24 C          -0.3189    9.3911    0.2024 C.ar    1  LIG1        0.1123
     25 C           0.3275   10.5844    0.4223 C.ar    1  LIG1        0.1617
     26 C          -0.6187   11.6411    0.3198 C.ar    1  LIG1        0.1190
     27 C          -1.8585   11.0572    0.0320 C.ar    1  LIG1        0.0700
     28 N          -1.6385    9.7256   -0.0340 N.ar    1  LIG1       -0.3488
     29 H          -2.3128    9.0136   -0.2821 H       1  LIG1        0.1661
     30 O           1.6573   10.7335    0.6787 O.3     1  LIG1       -0.5034
     31 H           1.8432   11.6284    0.9963 H       1  LIG1        0.2923
     32 N           0.1650   14.0256    0.8724 N.1     1  LIG1       -0.1907
     33 C          -0.2646   12.9820    0.6080 C.1     1  LIG1        0.1050
     34 C          -3.4466   12.7592   -0.9148 C.ar    1  LIG1        0.0338
     35 C          -4.7672   13.2170   -1.0189 C.ar    1  LIG1       -0.0402
     36 C          -3.2043   11.6164   -0.1297 C.ar    1  LIG1        0.0206
     37 C          -5.8060   12.5621   -0.3871 C.ar    1  LIG1       -0.0571
     38 H          -4.9683   14.1008   -1.6173 H       1  LIG1        0.0636
     39 C          -4.2804   10.9681    0.4923 C.ar    1  LIG1       -0.0479
     40 C          -5.5874   11.4148    0.3819 C.ar    1  LIG1       -0.0497
     41 H          -4.0709   10.0971    1.1073 H       1  LIG1        0.0627
     42 H          -6.8158   12.9483   -0.4948 H       1  LIG1        0.0621
     43 N          -2.4268   13.4398   -1.5523 N.pl3   1  LIG1       -0.3575
     44 H          -1.5870   12.9236   -1.7633 H       1  LIG1        0.1423
     45 H          -2.7053   14.0787   -2.2801 H       1  LIG1        0.1423
     46 C          -6.7261   10.7101    1.0703 C.3     1  LIG1       -0.0397
     47 H          -6.3796    9.8203    1.6003 H       1  LIG1        0.0278
     48 H          -7.4909   10.3928    0.3548 H       1  LIG1        0.0278
     49 H          -7.2166   11.3609    1.8010 H       1  LIG1        0.0278
@<TRIPOS>BOND
     1    45    43    1
     2    44    43    1
     3    38    35    1
     4    43    34    1
     5    11     8    1
     6    20    21    3
     7    35    34   ar
     8    35    37   ar
     9    34    36   ar
    10    21    13    1
    11     9     8    1
    12    42    37    1
    13     8     7    1
    14     8    10    1
    15    37    40   ar
    16     7     2    1
    17    12     3    1
    18    29    28    1
    19    13    18   ar
    20    13    14   ar
    21     2     3   ar
    22     2     1   ar
    23     3     4   ar
    24    18    17   ar
    25    36    27    1
    26    36    39   ar
    27     1     6    1
    28     1     5   ar
    29     4     5   ar
    30     4    14    1
    31    28    27   ar
    32    28    24   ar
    33    14    15   ar
    34    27    26   ar
    35    17    24    1
    36    17    16   ar
    37    24    25   ar
    38    26    25   ar
    39    26    33    1
    40    48    46    1
    41    15    16   ar
    42    15    19    1
    43    40    39   ar
    44    40    46    1
    45    25    30    1
    46    16    22    1
    47    39    41    1
    48    33    32    3
    49    30    31    1
    50    22    23    1
    51    46    47    1
    52    46    49    1
