@<TRIPOS>MOLECULE
mol_data/opt/cam/geoms/mol2/12ld6li-4df13fa-13al-13la4ee6ah.out
 100 107 0 0 0
SMALL
GASTEIGER

@<TRIPOS>ATOM
      1 C          -0.7193    1.6738   -1.1169 C.ar    1  LIG1        0.1354
      2 C          -0.3839    1.4478    0.1793 C.ar    1  LIG1        0.1756
      3 C          -0.3673    2.7312    0.8231 C.ar    1  LIG1        0.1391
      4 C          -0.6958    3.6504   -0.1463 C.ar    1  LIG1        0.1609
      5 O          -0.9068    3.0145   -1.3098 O.2     1  LIG1       -0.4577
      6 H          -0.8625    1.0433   -1.9766 H       1  LIG1        0.1068
      7 O          -0.1112    0.3086    0.8336 O.3     1  LIG1       -0.4907
      8 C          -0.1837   -0.8669    0.0477 C.3     1  LIG1        0.0790
      9 H           0.0602   -1.6983    0.7072 H       1  LIG1        0.0660
     10 H          -1.1929   -1.0035   -0.3583 H       1  LIG1        0.0660
     11 H           0.5364   -0.8297   -0.7781 H       1  LIG1        0.0660
     12 N           0.1419    3.1857    3.3067 N.1     1  LIG1       -0.1906
     13 C          -0.0911    2.9774    2.1921 C.1     1  LIG1        0.1067
     14 C          -1.7527    5.8321   -0.8552 C.ar    1  LIG1        0.2260
     15 C          -0.8042    5.1047   -0.0999 C.ar    1  LIG1        0.0804
     16 C           0.0064    5.8485    0.7407 C.ar    1  LIG1       -0.0410
     17 C          -0.0775    7.2419    0.8142 C.ar    1  LIG1       -0.0235
     18 C          -1.0098    7.8502   -0.0265 C.ar    1  LIG1        0.0791
     19 N          -1.8470    7.1426   -0.8118 N.ar    1  LIG1       -0.2120
     20 H           0.7294    5.3374    1.3676 H       1  LIG1        0.0630
     21 O          -2.5925    5.1298   -1.6310 O.3     1  LIG1       -0.4792
     22 C          -3.5696    5.8464   -2.3718 C.3     1  LIG1        0.0804
     23 H          -4.0553    5.1059   -3.0058 H       1  LIG1        0.0660
     24 H          -4.3105    6.2976   -1.7058 H       1  LIG1        0.0660
     25 H          -3.1104    6.6284   -2.9798 H       1  LIG1        0.0660
     26 C           0.7941    7.9767    1.7978 C.3     1  LIG1       -0.0377
     27 H           0.3637    8.9384    2.0810 H       1  LIG1        0.0278
     28 H           1.7881    8.1686    1.3861 H       1  LIG1        0.0278
     29 H           0.9149    7.3812    2.7059 H       1  LIG1        0.0278
     30 C          -0.1980   10.2501   -0.3733 C.ar    1  LIG1        0.0618
     31 C          -0.4755   11.6174   -0.4191 C.ar    1  LIG1       -0.0310
     32 C          -1.2147    9.3235   -0.0939 C.ar    1  LIG1        0.0216
     33 C          -1.7614   12.1274   -0.2213 C.ar    1  LIG1        0.0445
     34 H           0.3296   12.3088   -0.6293 H       1  LIG1        0.0638
     35 C          -2.4989    9.8226    0.0824 C.ar    1  LIG1       -0.0091
     36 C          -2.7836   11.1769   -0.0014 C.ar    1  LIG1        0.1268
     37 H          -3.3003    9.1263    0.3008 H       1  LIG1        0.0661
     38 N           2.2200    9.5082   -0.9384 N.1     1  LIG1       -0.1908
     39 C           1.1378    9.8273   -0.6814 C.1     1  LIG1        0.0998
     40 O          -4.0745   11.6072    0.1461 O.3     1  LIG1       -0.5061
     41 H          -4.6851   10.8555    0.0822 H       1  LIG1        0.2922
     42 C          -1.9982   13.5634   -0.2515 C.ar    1  LIG1        0.0925
     43 C          -1.1333   14.6433   -0.3895 C.ar    1  LIG1        0.1428
     44 C          -1.8761   15.8413   -0.3028 C.ar    1  LIG1        0.0072
     45 C          -3.1975   15.4786   -0.1081 C.ar    1  LIG1        0.0670
     46 N          -3.2511   14.1176   -0.0914 N.ar    1  LIG1       -0.3500
     47 H          -4.0507   13.5588    0.1609 H       1  LIG1        0.1661
     48 O           0.2081   14.5175   -0.5895 O.3     1  LIG1       -0.5046
     49 H           0.6034   15.3945   -0.6377 H       1  LIG1        0.2922
     50 H          -1.4996   16.8482   -0.4129 H       1  LIG1        0.0676
     51 C          -4.4430   16.2070    0.0347 C.ar    1  LIG1        0.0670
     52 C          -4.8142   17.3838    0.6534 C.ar    1  LIG1        0.0075
     53 C          -6.2348   17.4588    0.5907 C.ar    1  LIG1        0.1474
     54 C          -6.7113   16.3444   -0.0769 C.ar    1  LIG1        0.1092
     55 N          -5.5892   15.5933   -0.3908 N.ar    1  LIG1       -0.3488
     56 H          -5.6050   14.8654   -1.0880 H       1  LIG1        0.1661
     57 H          -4.1479   18.0612    1.1641 H       1  LIG1        0.0676
     58 O          -7.0497   18.4045    1.1260 O.3     1  LIG1       -0.4929
     59 C          -6.4148   19.4259    1.8664 C.3     1  LIG1        0.0789
     60 H          -7.2056   20.0838    2.2261 H       1  LIG1        0.0660
     61 H          -5.8677   19.0160    2.7233 H       1  LIG1        0.0660
     62 H          -5.7213   20.0021    1.2425 H       1  LIG1        0.0660
     63 C          -7.9925   15.6926   -0.2985 C.ar    1  LIG1        0.1091
     64 C          -9.2760   15.9920   -0.7331 C.ar    1  LIG1        0.1474
     65 C         -10.0257   14.7848   -0.7775 C.ar    1  LIG1        0.0061
     66 C          -9.1947   13.7570   -0.3925 C.ar    1  LIG1        0.0517
     67 N          -7.9667   14.3138   -0.1327 N.ar    1  LIG1       -0.3499
     68 H          -7.2832   13.8766    0.4649 H       1  LIG1        0.1661
     69 O          -9.8342   17.1594   -1.1263 O.3     1  LIG1       -0.4929
     70 C          -8.9555   18.1959   -1.5295 C.3     1  LIG1        0.0789
     71 H          -9.5861   18.9803   -1.9498 H       1  LIG1        0.0660
     72 H          -8.3914   18.5943   -0.6829 H       1  LIG1        0.0660
     73 H          -8.2595   17.8420   -2.2989 H       1  LIG1        0.0660
     74 H         -11.0408   14.7001   -1.1303 H       1  LIG1        0.0676
     75 C         -10.5049   11.6004   -0.0718 C.ar    1  LIG1        0.0344
     76 C         -10.4861   10.2025   -0.0326 C.ar    1  LIG1       -0.0368
     77 C          -9.3133   12.3012   -0.3503 C.ar    1  LIG1        0.0150
     78 C          -9.3356    9.4510   -0.2526 C.ar    1  LIG1        0.0002
     79 H         -11.4175    9.6857    0.1690 H       1  LIG1        0.0636
     80 C          -8.1642   11.5436   -0.5879 C.ar    1  LIG1       -0.0355
     81 C          -8.1456   10.1514   -0.5357 C.ar    1  LIG1        0.0331
     82 H          -7.2435   12.0518   -0.8478 H       1  LIG1        0.0637
     83 C         -11.7412   12.2719    0.1856 C.1     1  LIG1       -0.0690
     84 C         -12.8022   12.7947    0.4100 C.1     1  LIG1       -0.1139
     85 H         -13.7329   13.2745    0.6090 H       1  LIG1        0.1232
     86 C          -6.8899    9.4987   -0.7732 C.1     1  LIG1       -0.0690
     87 C          -5.8111    9.0052   -0.9948 C.1     1  LIG1       -0.1139
     88 H          -4.8852    8.5277   -1.2315 H       1  LIG1        0.1232
     89 C          -8.8856    7.1695   -1.2050 C.ar    1  LIG1        0.0354
     90 C          -9.4003    7.9718   -0.1840 C.ar    1  LIG1        0.0032
     91 C         -10.0144    7.3402    0.8942 C.ar    1  LIG1       -0.0304
     92 C         -10.0888    5.9485    0.9315 C.ar    1  LIG1        0.0435
     93 C          -9.5288    5.2512   -0.1469 C.ar    1  LIG1        0.0482
     94 N          -8.9491    5.8411   -1.1834 N.ar    1  LIG1       -0.2608
     95 H         -10.4137    7.9291    1.7152 H       1  LIG1        0.0643
     96 H          -9.5579    4.1623   -0.1564 H       1  LIG1        0.0848
     97 H          -8.4206    7.6204   -2.0760 H       1  LIG1        0.0836
     98 N         -10.6378    5.2742    2.0106 N.pl3   1  LIG1       -0.3568
     99 H         -11.3091    5.7876    2.5611 H       1  LIG1        0.1424
    100 H         -10.9212    4.3219    1.8362 H       1  LIG1        0.1424
@<TRIPOS>BOND
     1    23    22    1
     2    25    22    1
     3    22    24    1
     4    22    21    1
     5    73    70    1
     6    97    89    1
     7     6     1    1
     8    71    70    1
     9    21    14    1
    10    70    69    1
    11    70    72    1
    12     5     1   ar
    13     5     4   ar
    14    88    87    1
    15    89    94   ar
    16    89    90   ar
    17    94    93   ar
    18    74    65    1
    19    69    64    1
    20     1     2   ar
    21    56    55    1
    22    87    86    3
    23    38    39    3
    24    14    19   ar
    25    14    15   ar
    26    82    80    1
    27    19    18   ar
    28    11     8    1
    29    65    64   ar
    30    65    66   ar
    31    86    81    1
    32    64    63   ar
    33    39    30    1
    34    49    48    1
    35    34    31    1
    36    48    43    1
    37    80    81   ar
    38    80    77   ar
    39    81    78   ar
    40    31    30   ar
    41    31    33   ar
    42    50    44    1
    43    66    77    1
    44    66    67   ar
    45    55    54   ar
    46    55    51   ar
    47    43    44   ar
    48    43    42   ar
    49    30    32   ar
    50    10     8    1
    51    77    75   ar
    52    44    45   ar
    53    63    67   ar
    54    63    54    1
    55    78    90    1
    56    78    76   ar
    57    42    33    1
    58    42    46   ar
    59    33    36   ar
    60    90    91   ar
    61    96    93    1
    62    93    92   ar
    63     4    15    1
    64     4     3   ar
    65    67    68    1
    66    45    46   ar
    67    45    51    1
    68    15    16   ar
    69    32    18    1
    70    32    35   ar
    71    46    47    1
    72    54    53   ar
    73    75    76   ar
    74    75    83    1
    75    76    79    1
    76    18    17   ar
    77    36    35   ar
    78    36    40    1
    79    51    52   ar
    80     8     9    1
    81     8     7    1
    82    41    40    1
    83    35    37    1
    84     2     3   ar
    85     2     7    1
    86    83    84    3
    87    84    85    1
    88    53    52   ar
    89    53    58    1
    90    52    57    1
    91    16    17   ar
    92    16    20    1
    93    17    26    1
    94     3    13    1
    95    91    92   ar
    96    91    95    1
    97    92    98    1
    98    58    59    1
    99    62    59    1
   100    28    26    1
   101    26    27    1
   102    26    29    1
   103   100    98    1
   104    59    60    1
   105    59    61    1
   106    98    99    1
   107    13    12    3
