@<TRIPOS>MOLECULE
mol_data/opt/cam/geoms/mol2/12ld12ei6fe-4ia12fa-4dh13fl13lh.out
 99 106 0 0 0
SMALL
GASTEIGER

@<TRIPOS>ATOM
      1 C           1.1963    2.0359    1.1925 C.ar    1  LIG1        0.1356
      2 C           2.3759    1.9485    0.5255 C.ar    1  LIG1        0.1757
      3 C           2.5751    3.2111   -0.1335 C.ar    1  LIG1        0.1420
      4 C           1.4886    3.9825    0.2038 C.ar    1  LIG1        0.1919
      5 O           0.6566    3.2782    0.9969 O.2     1  LIG1       -0.4547
      6 H           0.6289    1.3612    1.8090 H       1  LIG1        0.1068
      7 O           3.2522    0.9414    0.4176 O.3     1  LIG1       -0.4907
      8 C           2.8985   -0.2440    1.1089 C.3     1  LIG1        0.0790
      9 H           3.6982   -0.9598    0.9269 H       1  LIG1        0.0660
     10 H           2.8112   -0.0560    2.1852 H       1  LIG1        0.0660
     11 H           1.9513   -0.6470    0.7323 H       1  LIG1        0.0660
     12 N           4.5220    3.7096   -1.7424 N.1     1  LIG1       -0.1906
     13 C           3.6460    3.5077   -1.0142 C.1     1  LIG1        0.1068
     14 C           1.0730    5.3257   -0.1000 C.ar    1  LIG1        0.1875
     15 C           1.7149    6.4952   -0.4124 C.ar    1  LIG1        0.0770
     16 C           0.6978    7.5058   -0.5466 C.ar    1  LIG1        0.0116
     17 C          -0.4913    6.8798   -0.3063 C.ar    1  LIG1        0.1451
     18 O          -0.2661    5.5544   -0.0361 O.2     1  LIG1       -0.4500
     19 C           3.1120    6.7147   -0.5108 C.1     1  LIG1       -0.0655
     20 C           4.2945    6.9231   -0.5872 C.1     1  LIG1       -0.1138
     21 H           5.3474    7.0690   -0.6689 H       1  LIG1        0.1232
     22 C           0.9657    8.9460   -0.8380 C.3     1  LIG1       -0.0349
     23 H           0.2572    9.5968   -0.3210 H       1  LIG1        0.0279
     24 H           0.9015    9.1627   -1.9093 H       1  LIG1        0.0279
     25 H           1.9752    9.2084   -0.5156 H       1  LIG1        0.0279
     26 C          -2.8732    6.6732    0.5167 C.ar    1  LIG1        0.2239
     27 C          -1.8789    7.3229   -0.2592 C.ar    1  LIG1        0.0800
     28 C          -2.2945    8.4354   -0.9794 C.ar    1  LIG1       -0.0285
     29 C          -3.6017    8.9142   -0.8858 C.ar    1  LIG1        0.0515
     30 C          -4.4818    8.2365   -0.0200 C.ar    1  LIG1        0.0904
     31 N          -4.1067    7.1325    0.6267 N.ar    1  LIG1       -0.2112
     32 H          -1.6045    8.9335   -1.6491 H       1  LIG1        0.0639
     33 O          -2.6431    5.5477    1.2068 O.3     1  LIG1       -0.4919
     34 H          -1.7582    5.2053    1.0113 H       1  LIG1        0.2938
     35 C          -4.0082   10.0131   -1.7048 C.1     1  LIG1       -0.0675
     36 C          -4.3127   10.9302   -2.4231 C.1     1  LIG1       -0.1138
     37 H          -4.6023   11.7368   -3.0566 H       1  LIG1        0.1232
     38 C          -6.2558    9.8978    0.7254 C.ar    1  LIG1       -0.0406
     39 C          -7.6071   10.1909    0.8834 C.ar    1  LIG1       -0.0474
     40 C          -5.8959    8.6553    0.1795 C.ar    1  LIG1        0.0046
     41 C          -8.6096    9.2875    0.5153 C.ar    1  LIG1        0.0212
     42 H          -7.8906   11.1436    1.3150 H       1  LIG1        0.0627
     43 C          -6.8939    7.7365   -0.1499 C.ar    1  LIG1       -0.0516
     44 C          -8.2332    8.0427    0.0000 C.ar    1  LIG1       -0.0503
     45 H          -6.5999    6.7643   -0.5307 H       1  LIG1        0.0624
     46 C          -5.2327   10.9047    1.1857 C.3     1  LIG1       -0.0391
     47 H          -5.6814   11.6071    1.8909 H       1  LIG1        0.0278
     48 H          -4.8338   11.4792    0.3457 H       1  LIG1        0.0278
     49 H          -4.3877   10.4222    1.6830 H       1  LIG1        0.0278
     50 H          -8.9925    7.3199   -0.2725 H       1  LIG1        0.0625
     51 C         -10.0106    9.6281    0.6817 C.ar    1  LIG1        0.1768
     52 C         -10.6764   10.7319    1.1461 C.ar    1  LIG1        0.1632
     53 C         -12.0680   10.4672    1.0616 C.ar    1  LIG1        0.0265
     54 C         -12.1841    9.2060    0.5459 C.ar    1  LIG1        0.1406
     55 O         -10.9450    8.6981    0.3160 O.2     1  LIG1       -0.4510
     56 O         -10.0797   11.8633    1.5991 O.3     1  LIG1       -0.5032
     57 H         -10.7595   12.4884    1.8743 H       1  LIG1        0.2923
     58 H         -12.8709   11.1285    1.3466 H       1  LIG1        0.0692
     59 C         -14.6548    8.6994    0.3667 C.ar    1  LIG1        0.0631
     60 C         -15.6677    7.8001    0.0374 C.ar    1  LIG1       -0.0327
     61 C         -13.3013    8.3341    0.2098 C.ar    1  LIG1        0.0365
     62 C         -15.4021    6.5265   -0.4620 C.ar    1  LIG1        0.0239
     63 H         -16.6986    8.0995    0.1805 H       1  LIG1        0.0638
     64 C         -13.0389    7.0692   -0.3148 C.ar    1  LIG1       -0.0285
     65 C         -14.0464    6.1774   -0.6636 C.ar    1  LIG1        0.0346
     66 H         -12.0063    6.7783   -0.4689 H       1  LIG1        0.0643
     67 N         -15.3778   11.0084    1.2882 N.1     1  LIG1       -0.1908
     68 C         -15.0493    9.9772    0.8762 C.1     1  LIG1        0.0999
     69 N         -13.7079    4.9202   -1.1825 N.pl3   1  LIG1       -0.3574
     70 H         -14.3095    4.6310   -1.9444 H       1  LIG1        0.1423
     71 H         -12.7337    4.8523   -1.4458 H       1  LIG1        0.1423
     72 C         -16.5078    5.6176   -0.7329 C.ar    1  LIG1        0.0946
     73 C         -17.8491    5.8750   -0.9203 C.ar    1  LIG1        0.1851
     74 C         -18.5339    4.6438   -1.0444 C.ar    1  LIG1        0.1889
     75 C         -17.6096    3.6239   -0.9189 C.ar    1  LIG1        0.1130
     76 N         -16.3791    4.2289   -0.7768 N.ar    1  LIG1       -0.3470
     77 H         -15.5847    3.7660   -0.3596 H       1  LIG1        0.1662
     78 O         -18.4491    7.0883   -0.9994 O.3     1  LIG1       -0.5019
     79 H         -19.3947    6.9154   -1.1194 H       1  LIG1        0.2924
     80 O         -19.8856    4.6200   -1.2411 O.3     1  LIG1       -0.4895
     81 C         -20.3210    3.9881   -2.4429 C.3     1  LIG1        0.0791
     82 H         -21.3946    4.1673   -2.5123 H       1  LIG1        0.0660
     83 H         -19.8186    4.4234   -3.3137 H       1  LIG1        0.0660
     84 H         -20.1397    2.9127   -2.4047 H       1  LIG1        0.0660
     85 C         -17.7343    2.1843   -0.9360 C.ar    1  LIG1        0.1107
     86 C         -18.7890    1.3456   -0.6272 C.ar    1  LIG1        0.1673
     87 C         -18.3607   -0.0024   -0.7800 C.ar    1  LIG1        0.0851
     88 C         -17.0492    0.0427   -1.1825 C.ar    1  LIG1        0.0267
     89 N         -16.6681    1.3695   -1.2430 N.ar    1  LIG1       -0.3548
     90 H         -15.8482    1.6954   -1.7261 H       1  LIG1        0.1655
     91 H         -16.3533   -0.7513   -1.4021 H       1  LIG1        0.0827
     92 O         -20.0640    1.6784   -0.2596 O.3     1  LIG1       -0.4911
     93 C         -20.1862    2.2320    1.0470 C.3     1  LIG1        0.0790
     94 H         -21.2528    2.3736    1.2263 H       1  LIG1        0.0660
     95 H         -19.7747    1.5498    1.7985 H       1  LIG1        0.0660
     96 H         -19.6814    3.1995    1.1133 H       1  LIG1        0.0660
     97 N         -19.1656   -1.1053   -0.4767 N.pl3   1  LIG1       -0.3540
     98 H         -20.1434   -0.8431   -0.4692 H       1  LIG1        0.1425
     99 H         -19.0179   -1.8982   -1.0861 H       1  LIG1        0.1425
@<TRIPOS>BOND
     1    83    81    1
     2    37    36    1
     3    82    81    1
     4    81    84    1
     5    81    80    1
     6    36    35    3
     7    70    69    1
     8    24    22    1
     9    12    13    3
    10    90    89    1
    11    35    29    1
    12    32    28    1
    13    71    69    1
    14    91    88    1
    15    89    88   ar
    16    89    85   ar
    17    80    74    1
    18    69    65    1
    19    88    87   ar
    20    79    78    1
    21    99    97    1
    22    74    73   ar
    23    74    75   ar
    24    13     3    1
    25    78    73    1
    26    28    29   ar
    27    28    27   ar
    28    85    75    1
    29    85    86   ar
    30    73    72   ar
    31    75    76   ar
    32    29    30   ar
    33    22    16    1
    34    22    25    1
    35    22    23    1
    36    87    86   ar
    37    87    97    1
    38    76    72   ar
    39    76    77    1
    40    72    62    1
    41    21    20    1
    42    65    62   ar
    43    65    64   ar
    44    86    92    1
    45    20    19    3
    46    16    15   ar
    47    16    17   ar
    48    45    43    1
    49    19    15    1
    50    97    98    1
    51    66    64    1
    52    62    60   ar
    53    15    14   ar
    54    64    61   ar
    55    17    27    1
    56    17    18   ar
    57    50    44    1
    58    92    93    1
    59    27    26   ar
    60    43    44   ar
    61    43    40   ar
    62     3     4   ar
    63     3     2   ar
    64    14    18   ar
    65    14     4    1
    66    30    40    1
    67    30    31   ar
    68    44    41   ar
    69    60    63    1
    70    60    59   ar
    71    40    38   ar
    72     4     5   ar
    73    61    59   ar
    74    61    54    1
    75    55    54   ar
    76    55    51   ar
    77    48    46    1
    78    59    68    1
    79     7     2    1
    80     7     8    1
    81    41    51    1
    82    41    39   ar
    83    26    31   ar
    84    26    33    1
    85     2     1   ar
    86    54    53   ar
    87    51    52   ar
    88    38    39   ar
    89    38    46    1
    90    11     8    1
    91    68    67    3
    92    39    42    1
    93     9     8    1
    94     5     1   ar
    95    34    33    1
    96    93    96    1
    97    93    94    1
    98    93    95    1
    99    53    52   ar
   100    53    58    1
   101     8    10    1
   102    52    56    1
   103    46    49    1
   104    46    47    1
   105     1     6    1
   106    56    57    1
