@<TRIPOS>MOLECULE
mol_data/opt/cam/geoms/mol2/12le13ia12eh-4il-.out
 54 57 0 0 0
SMALL
GASTEIGER

@<TRIPOS>ATOM
      1 C           0.3143    1.9780    1.1892 C.ar    1  LIG1        0.1354
      2 C           1.5330    1.8169    0.6166 C.ar    1  LIG1        0.1736
      3 C           1.9340    3.0985    0.0938 C.ar    1  LIG1        0.1134
      4 C           0.9138    3.9609    0.4170 C.ar    1  LIG1        0.1701
      5 O          -0.0676    3.2887    1.0715 O.2     1  LIG1       -0.4564
      6 H          -0.3743    1.3220    1.6920 H       1  LIG1        0.1068
      7 O           2.2993    0.7195    0.4892 O.3     1  LIG1       -0.4907
      8 C           1.7459   -0.4602    1.0368 C.3     1  LIG1        0.0790
      9 H           2.4672   -1.2571    0.8605 H       1  LIG1        0.0660
     10 H           1.5773   -0.3511    2.1151 H       1  LIG1        0.0660
     11 H           0.7960   -0.7114    0.5493 H       1  LIG1        0.0660
     12 C           3.0992    3.3314   -0.6791 C.1     1  LIG1       -0.0621
     13 C           4.0893    3.4875   -1.3463 C.1     1  LIG1       -0.1137
     14 H           4.9616    3.6244   -1.9423 H       1  LIG1        0.1232
     15 C           0.6524    5.3621    0.1948 C.ar    1  LIG1        0.0869
     16 C           1.4794    6.4743    0.0756 C.ar    1  LIG1       -0.0214
     17 C           0.6317    7.5911   -0.0904 C.ar    1  LIG1       -0.0297
     18 C          -0.6785    7.1470   -0.0581 C.ar    1  LIG1        0.0842
     19 N          -0.6485    5.7934    0.1170 N.ar    1  LIG1       -0.3491
     20 H          -1.4608    5.2034    0.2044 H       1  LIG1        0.1661
     21 C           2.9725    6.5190    0.1615 C.3     1  LIG1       -0.0376
     22 H           3.2995    7.5007    0.5126 H       1  LIG1        0.0278
     23 H           3.4455    6.3316   -0.8063 H       1  LIG1        0.0278
     24 H           3.3568    5.7649    0.8514 H       1  LIG1        0.0278
     25 H           0.9397    8.6195   -0.2050 H       1  LIG1        0.0643
     26 C          -1.9275    7.8474   -0.1702 C.ar    1  LIG1        0.1689
     27 C          -2.2574    9.1678   -0.3534 C.ar    1  LIG1        0.0931
     28 C          -3.6963    9.2202   -0.3724 C.ar    1  LIG1        0.0873
     29 C          -4.1434    7.9455   -0.1786 C.ar    1  LIG1        0.1579
     30 O          -3.0487    7.1040   -0.0771 O.2     1  LIG1       -0.4502
     31 C          -1.3978   10.2790   -0.5322 C.1     1  LIG1       -0.0639
     32 C          -0.7094   11.2550   -0.6979 C.1     1  LIG1       -0.1137
     33 H          -0.0882   12.1097   -0.8358 H       1  LIG1        0.1232
     34 N          -4.4316   10.3844   -0.5615 N.pl3   1  LIG1       -0.3541
     35 H          -3.8737   11.1356   -0.9466 H       1  LIG1        0.1425
     36 H          -5.2832   10.2487   -1.0896 H       1  LIG1        0.1425
     37 C          -6.5245    7.8156    0.6107 C.ar    1  LIG1       -0.0395
     38 C          -7.7529    7.1706    0.5180 C.ar    1  LIG1       -0.0547
     39 C          -5.4654    7.3168   -0.1784 C.ar    1  LIG1        0.0255
     40 C          -7.9585    6.0541   -0.2867 C.ar    1  LIG1       -0.0197
     41 H          -8.5808    7.5383    1.1172 H       1  LIG1        0.0622
     42 C          -5.6595    6.1886   -0.9736 C.ar    1  LIG1       -0.0090
     43 C          -6.8947    5.5502   -1.0289 C.ar    1  LIG1        0.1208
     44 H          -4.8474    5.7962   -1.5747 H       1  LIG1        0.0661
     45 H          -8.9349    5.5874   -0.3126 H       1  LIG1        0.0654
     46 C          -6.3343    8.9487    1.5842 C.3     1  LIG1       -0.0390
     47 H          -7.2376    9.0950    2.1805 H       1  LIG1        0.0278
     48 H          -6.0872    9.8952    1.0964 H       1  LIG1        0.0278
     49 H          -5.5082    8.7349    2.2692 H       1  LIG1        0.0278
     50 O          -6.9639    4.4594   -1.8413 O.3     1  LIG1       -0.4951
     51 C          -8.1992    3.7872   -1.9400 C.3     1  LIG1        0.0788
     52 H          -8.0417    2.9590   -2.6309 H       1  LIG1        0.0660
     53 H          -8.5230    3.3891   -0.9709 H       1  LIG1        0.0660
     54 H          -8.9860    4.4401   -2.3366 H       1  LIG1        0.0660
@<TRIPOS>BOND
     1    52    51    1
     2    54    51    1
     3    14    13    1
     4    51    50    1
     5    51    53    1
     6    50    43    1
     7    44    42    1
     8    13    12    3
     9    36    34    1
    10    43    42   ar
    11    43    40   ar
    12    42    39   ar
    13    35    34    1
    14    33    32    1
    15    23    21    1
    16    32    31    3
    17    12     3    1
    18    34    28    1
    19    31    27    1
    20    28    27   ar
    21    28    29   ar
    22    27    26   ar
    23    45    40    1
    24    40    38   ar
    25    25    17    1
    26    29    39    1
    27    29    30   ar
    28    39    37   ar
    29    26    30   ar
    30    26    18    1
    31    17    18   ar
    32    17    16   ar
    33    18    19   ar
    34    16    21    1
    35    16    15   ar
    36     3     4   ar
    37     3     2   ar
    38    19    15   ar
    39    19    20    1
    40    21    22    1
    41    21    24    1
    42    15     4    1
    43     4     5   ar
    44     7     2    1
    45     7     8    1
    46    38    37   ar
    47    38    41    1
    48    11     8    1
    49    37    46    1
    50     2     1   ar
    51     9     8    1
    52     8    10    1
    53     5     1   ar
    54    48    46    1
    55     1     6    1
    56    46    47    1
    57    46    49    1
