@<TRIPOS>MOLECULE
mol_data/opt/cam/geoms/mol2/12le12le.out
 28 29 0 0 0
SMALL
GASTEIGER

@<TRIPOS>ATOM
      1 C           0.2588    1.8216    0.6371 C.ar    1  LIG1        0.1355
      2 C           1.4466    1.7177   -0.0142 C.ar    1  LIG1        0.1737
      3 C           1.7972    3.0407   -0.4555 C.ar    1  LIG1        0.1152
      4 C           0.7881    3.8562   -0.0099 C.ar    1  LIG1        0.1924
      5 O          -0.1440    3.1261    0.6463 O.2     1  LIG1       -0.4547
      6 H          -0.3960    1.1154    1.1172 H       1  LIG1        0.1068
      7 O           2.2160    0.6438   -0.2660 O.3     1  LIG1       -0.4907
      8 C           1.7028   -0.5834    0.2136 C.3     1  LIG1        0.0790
      9 H           2.4222   -1.3534   -0.0617 H       1  LIG1        0.0660
     10 H           1.5889   -0.5622    1.3043 H       1  LIG1        0.0660
     11 H           0.7321   -0.8087   -0.2441 H       1  LIG1        0.0660
     12 C           2.9309    3.4034   -1.2267 C.1     1  LIG1       -0.0621
     13 C           3.8964    3.7112   -1.8763 C.1     1  LIG1       -0.1137
     14 H           4.7447    3.9831   -2.4611 H       1  LIG1        0.1232
     15 C           0.5357    5.2728   -0.1571 C.ar    1  LIG1        0.2136
     16 C           1.2426    6.4258    0.0573 C.ar    1  LIG1        0.1842
     17 C           0.4139    7.5141   -0.3964 C.ar    1  LIG1        0.1047
     18 C          -0.7364    6.9328   -0.8334 C.ar    1  LIG1        0.1118
     19 O          -0.6905    5.6013   -0.6987 O.2     1  LIG1       -0.4547
     20 H          -1.6428    7.3490   -1.2441 H       1  LIG1        0.1043
     21 O           2.4429    6.6668    0.6016 O.3     1  LIG1       -0.4901
     22 C           3.0228    5.6670    1.4275 C.3     1  LIG1        0.0790
     23 H           3.8243    6.1619    1.9758 H       1  LIG1        0.0660
     24 H           2.2852    5.2721    2.1340 H       1  LIG1        0.0660
     25 H           3.4382    4.8519    0.8319 H       1  LIG1        0.0660
     26 C           0.7328    8.8969   -0.3620 C.1     1  LIG1       -0.0628
     27 C           1.0001   10.0696   -0.3337 C.1     1  LIG1       -0.1137
     28 H           1.2415   11.1069   -0.3071 H       1  LIG1        0.1232
@<TRIPOS>BOND
     1    14    13    1
     2    13    12    3
     3    20    18    1
     4    12     3    1
     5    18    19   ar
     6    18    17   ar
     7    19    15   ar
     8     3     2   ar
     9     3     4   ar
    10    17    26    1
    11    17    16   ar
    12    26    27    3
    13    27    28    1
    14     7     2    1
    15     7     8    1
    16    11     8    1
    17    15     4    1
    18    15    16   ar
    19     9     8    1
    20     2     1   ar
    21     4     5   ar
    22    16    21    1
    23     8    10    1
    24    21    22    1
    25     1     5   ar
    26     1     6    1
    27    25    22    1
    28    22    23    1
    29    22    24    1
