@<TRIPOS>MOLECULE
mol_data/opt/cam/geoms/mol2/12le12le-.out
 28 29 0 0 0
SMALL
GASTEIGER

@<TRIPOS>ATOM
      1 C           0.0864    1.8709    0.0001 C.ar    1  LIG1        0.1355
      2 C           1.4433    1.8373    0.0000 C.ar    1  LIG1        0.1737
      3 C           1.9046    3.2007   -0.0000 C.ar    1  LIG1        0.1152
      4 C           0.7595    3.9623   -0.0000 C.ar    1  LIG1        0.1924
      5 O          -0.3343    3.1742    0.0000 O.2     1  LIG1       -0.4547
      6 H          -0.6857    1.1221    0.0001 H       1  LIG1        0.1068
      7 O           2.2901    0.7921    0.0000 O.3     1  LIG1       -0.4907
      8 C           1.6686   -0.4770    0.0001 C.3     1  LIG1        0.0790
      9 H           2.4668   -1.2182    0.0001 H       1  LIG1        0.0660
     10 H           1.0459   -0.6095    0.8933 H       1  LIG1        0.0660
     11 H           1.0458   -0.6096   -0.8931 H       1  LIG1        0.0660
     12 C           3.2585    3.6187   -0.0001 C.1     1  LIG1       -0.0621
     13 C           4.4176    3.9435   -0.0001 C.1     1  LIG1       -0.1137
     14 H           5.4423    4.2340   -0.0001 H       1  LIG1        0.1232
     15 C           0.5385    5.3807   -0.0001 C.ar    1  LIG1        0.2136
     16 C          -0.5954    6.1523   -0.0001 C.ar    1  LIG1        0.1842
     17 C          -0.1508    7.5274   -0.0001 C.ar    1  LIG1        0.1047
     18 C           1.2140    7.4567   -0.0002 C.ar    1  LIG1        0.1118
     19 O           1.6396    6.1896   -0.0001 O.2     1  LIG1       -0.4547
     20 H           1.9690    8.2263   -0.0002 H       1  LIG1        0.1043
     21 O          -1.8303    5.6242   -0.0000 O.3     1  LIG1       -0.4901
     22 C          -2.9450    6.5006   -0.0001 C.3     1  LIG1        0.0790
     23 H          -3.8242    5.8569   -0.0001 H       1  LIG1        0.0660
     24 H          -2.9557    7.1350    0.8905 H       1  LIG1        0.0660
     25 H          -2.9556    7.1349   -0.8907 H       1  LIG1        0.0660
     26 C          -0.8862    8.7456   -0.0001 C.1     1  LIG1       -0.0628
     27 C          -1.4672    9.7999   -0.0002 C.1     1  LIG1       -0.1137
     28 H          -1.9843   10.7317   -0.0003 H       1  LIG1        0.1232
@<TRIPOS>BOND
     1    11     8    1
     2    25    22    1
     3    28    27    1
     4    20    18    1
     5    18    19   ar
     6    18    17   ar
     7    27    26    3
     8    19    15   ar
     9    26    17    1
    10    13    14    1
    11    13    12    3
    12    17    16   ar
    13    12     3    1
    14    22    23    1
    15    22    21    1
    16    22    24    1
    17    15    16   ar
    18    15     4    1
    19    16    21    1
    20     4     3   ar
    21     4     5   ar
    22     3     2   ar
    23     5     1   ar
    24     2     7    1
    25     2     1   ar
    26     7     8    1
    27     1     6    1
    28     8     9    1
    29     8    10    1
