@<TRIPOS>MOLECULE
mol_data/opt/cam/geoms/mol2/12le12le12le12le-.out
 54 57 0 0 0
SMALL
GASTEIGER

@<TRIPOS>ATOM
      1 C          -3.8904    2.3228   -1.6227 C.ar    1  LIG1        0.1355
      2 C          -4.6904    2.2919   -0.5253 C.ar    1  LIG1        0.1737
      3 C          -4.2915    1.1485    0.2503 C.ar    1  LIG1        0.1152
      4 C          -3.2798    0.5558   -0.4636 C.ar    1  LIG1        0.1924
      5 O          -3.0314    1.2619   -1.5913 O.2     1  LIG1       -0.4547
      6 H          -3.8006    2.9858   -2.4656 H       1  LIG1        0.1068
      7 O          -5.6756    3.1216   -0.1366 O.3     1  LIG1       -0.4907
      8 C          -5.9167    4.2089   -1.0071 C.3     1  LIG1        0.0790
      9 H          -6.7298    4.7870   -0.5700 H       1  LIG1        0.0660
     10 H          -5.0262    4.8423   -1.1009 H       1  LIG1        0.0660
     11 H          -6.2122    3.8570   -2.0031 H       1  LIG1        0.0660
     12 C          -4.8083    0.7583    1.5118 C.1     1  LIG1       -0.0621
     13 C          -5.2500    0.4235    2.5805 C.1     1  LIG1       -0.1137
     14 H          -5.6307    0.1306    3.5315 H       1  LIG1        0.1232
     15 C          -2.4519   -0.5999   -0.2101 C.ar    1  LIG1        0.2146
     16 C          -2.6682   -1.8885    0.1978 C.ar    1  LIG1        0.1849
     17 C          -1.3784   -2.5003    0.3739 C.ar    1  LIG1        0.1159
     18 C          -0.4647   -1.5357    0.0237 C.ar    1  LIG1        0.1934
     19 O          -1.0953   -0.3973   -0.3294 O.2     1  LIG1       -0.4434
     20 O          -3.7898   -2.5913    0.4106 O.3     1  LIG1       -0.4901
     21 C          -4.9714   -2.1976   -0.2732 C.3     1  LIG1        0.0790
     22 H          -5.6413   -3.0566   -0.2304 H       1  LIG1        0.0660
     23 H          -5.4465   -1.3428    0.2114 H       1  LIG1        0.0660
     24 H          -4.7514   -1.9564   -1.3184 H       1  LIG1        0.0660
     25 C          -1.1616   -3.8166    0.8517 C.1     1  LIG1       -0.0620
     26 C          -1.0117   -4.9333    1.2737 C.1     1  LIG1       -0.1137
     27 H          -0.8645   -5.9185    1.6507 H       1  LIG1        0.1232
     28 C           0.9712   -1.5179   -0.0575 C.ar    1  LIG1        0.2146
     29 C           1.9206   -2.4784   -0.2605 C.ar    1  LIG1        0.1849
     30 C           3.1992   -1.8191   -0.2540 C.ar    1  LIG1        0.1159
     31 C           2.9143   -0.4868   -0.0492 C.ar    1  LIG1        0.1934
     32 O           1.5857   -0.3010    0.0730 O.2     1  LIG1       -0.4434
     33 O           1.6801   -3.7962   -0.4104 O.3     1  LIG1       -0.4901
     34 C           2.0852   -4.3535   -1.6577 C.3     1  LIG1        0.0790
     35 H           1.7980   -5.4042   -1.6252 H       1  LIG1        0.0660
     36 H           1.5680   -3.8597   -2.4873 H       1  LIG1        0.0660
     37 H           3.1660   -4.2714   -1.7984 H       1  LIG1        0.0660
     38 C           4.4685   -2.4362   -0.3907 C.1     1  LIG1       -0.0620
     39 C           5.5326   -2.9871   -0.5105 C.1     1  LIG1       -0.1137
     40 H           6.4795   -3.4670   -0.6009 H       1  LIG1        0.1232
     41 C           3.7439    0.6760    0.0621 C.ar    1  LIG1        0.2136
     42 C           3.4710    1.9987    0.3085 C.ar    1  LIG1        0.1842
     43 C           4.7438    2.6822    0.3053 C.ar    1  LIG1        0.1047
     44 C           5.6680    1.7062    0.0570 C.ar    1  LIG1        0.1118
     45 O           5.0919    0.5092   -0.0917 O.2     1  LIG1       -0.4547
     46 H           6.7414    1.7468   -0.0354 H       1  LIG1        0.1043
     47 O           2.2251    2.4559    0.4912 O.3     1  LIG1       -0.4901
     48 C           2.0407    3.8067    0.8848 C.3     1  LIG1        0.0790
     49 H           0.9678    3.9231    1.0333 H       1  LIG1        0.0660
     50 H           2.5663    4.0249    1.8188 H       1  LIG1        0.0660
     51 H           2.3823    4.4983    0.1106 H       1  LIG1        0.0660
     52 C           5.0626    4.0555    0.4967 C.1     1  LIG1       -0.0628
     53 C           5.3775    5.2069    0.6519 C.1     1  LIG1       -0.1137
     54 H           5.6526    6.2273    0.7891 H       1  LIG1        0.1232
@<TRIPOS>BOND
     1    36    34    1
     2     6     1    1
     3    11     8    1
     4    37    34    1
     5    34    35    1
     6    34    33    1
     7     1     5   ar
     8     1     2   ar
     9     5     4   ar
    10    24    21    1
    11    10     8    1
    12     8     9    1
    13     8     7    1
    14    40    39    1
    15     2     7    1
    16     2     3   ar
    17    39    38    3
    18     4    15    1
    19     4     3   ar
    20    33    29    1
    21    38    30    1
    22    19    15   ar
    23    19    18   ar
    24    21    22    1
    25    21    23    1
    26    21    20    1
    27    29    30   ar
    28    29    28   ar
    29    30    31   ar
    30    15    16   ar
    31    45    44   ar
    32    45    41   ar
    33    28    18    1
    34    28    32   ar
    35    31    41    1
    36    31    32   ar
    37    46    44    1
    38    18    17   ar
    39    44    43   ar
    40    41    42   ar
    41    51    48    1
    42    16    17   ar
    43    16    20    1
    44     3    12    1
    45    43    42   ar
    46    43    52    1
    47    42    47    1
    48    17    25    1
    49    47    48    1
    50    52    53    3
    51    53    54    1
    52    25    26    3
    53    48    49    1
    54    48    50    1
    55    26    27    1
    56    12    13    3
    57    13    14    1
