@<TRIPOS>MOLECULE
mol_data/opt/cam/geoms/mol2/12le12le-12le-12le-.out
 54 57 0 0 0
SMALL
GASTEIGER

@<TRIPOS>ATOM
      1 C          -0.1741    1.9577   -0.0612 C.ar    1  LIG1        0.1355
      2 C           1.1626    1.8601   -0.2821 C.ar    1  LIG1        0.1737
      3 C           1.6795    3.2001   -0.3628 C.ar    1  LIG1        0.1152
      4 C           0.5864    4.0127   -0.1809 C.ar    1  LIG1        0.1924
      5 O          -0.5301    3.2782    0.0033 O.2     1  LIG1       -0.4547
      6 H          -0.9696    1.2442    0.0625 H       1  LIG1        0.1068
      7 O           1.9472    0.7759   -0.4160 O.3     1  LIG1       -0.4907
      8 C           1.2737   -0.4626   -0.3156 C.3     1  LIG1        0.0790
      9 H           2.0257   -1.2404   -0.4422 H       1  LIG1        0.0660
     10 H           0.7959   -0.5714    0.6657 H       1  LIG1        0.0660
     11 H           0.5112   -0.5597   -1.0980 H       1  LIG1        0.0660
     12 C           3.0270    3.5813   -0.5792 C.1     1  LIG1       -0.0621
     13 C           4.1681    3.9176   -0.7596 C.1     1  LIG1       -0.1137
     14 H           5.1669    4.2543   -0.9121 H       1  LIG1        0.1232
     15 C           0.4473    5.4411   -0.1447 C.ar    1  LIG1        0.2146
     16 C          -0.6201    6.2832   -0.0100 C.ar    1  LIG1        0.1849
     17 C          -0.1013    7.6247   -0.0255 C.ar    1  LIG1        0.1159
     18 C           1.2569    7.4872   -0.1981 C.ar    1  LIG1        0.1934
     19 O           1.5850    6.1774   -0.2686 O.2     1  LIG1       -0.4434
     20 O          -1.9201    5.9263    0.0813 O.3     1  LIG1       -0.4901
     21 C          -2.4740    6.0331    1.3893 C.3     1  LIG1        0.0790
     22 H          -3.5205    5.7400    1.3042 H       1  LIG1        0.0660
     23 H          -1.9609    5.3578    2.0821 H       1  LIG1        0.0660
     24 H          -2.4122    7.0602    1.7614 H       1  LIG1        0.0660
     25 C          -0.8747    8.8007    0.1437 C.1     1  LIG1       -0.0620
     26 C          -1.5804    9.7603    0.3228 C.1     1  LIG1       -0.1137
     27 H          -2.2054   10.6130    0.4547 H       1  LIG1        0.1232
     28 C           2.3553    8.4071   -0.3068 C.ar    1  LIG1        0.2146
     29 C           2.4700    9.7103   -0.7005 C.ar    1  LIG1        0.1849
     30 C           3.8678   10.0474   -0.6353 C.ar    1  LIG1        0.1159
     31 C           4.4967    8.9024   -0.2043 C.ar    1  LIG1        0.1934
     32 O           3.5962    7.9162   -0.0120 O.2     1  LIG1       -0.4434
     33 O           1.4651   10.4766   -1.1670 O.3     1  LIG1       -0.4901
     34 C           1.2142   11.6779   -0.4413 C.3     1  LIG1        0.0790
     35 H           0.4288   12.2010   -0.9862 H       1  LIG1        0.0660
     36 H           0.8630   11.4466    0.5688 H       1  LIG1        0.0660
     37 H           2.1072   12.3059   -0.3946 H       1  LIG1        0.0660
     38 C           4.4493   11.2678   -1.0638 C.1     1  LIG1       -0.0620
     39 C           4.8953   12.3141   -1.4601 C.1     1  LIG1       -0.1137
     40 H           5.2902   13.2372   -1.8169 H       1  LIG1        0.1232
     41 C           5.8709    8.5727    0.0656 C.ar    1  LIG1        0.2136
     42 C           6.9496    9.3079    0.4696 C.ar    1  LIG1        0.1842
     43 C           8.0537    8.3874    0.5943 C.ar    1  LIG1        0.1047
     44 C           7.5370    7.1687    0.2684 C.ar    1  LIG1        0.1118
     45 O           6.2347    7.2575   -0.0453 O.2     1  LIG1       -0.4547
     46 H           7.9794    6.1860    0.2303 H       1  LIG1        0.1043
     47 O           6.9182   10.6175    0.7832 O.3     1  LIG1       -0.4901
     48 C           7.8579   11.4444    0.1012 C.3     1  LIG1        0.0790
     49 H           7.7200   12.4490    0.4999 H       1  LIG1        0.0660
     50 H           8.8831   11.1148    0.2857 H       1  LIG1        0.0660
     51 H           7.6527   11.4484   -0.9735 H       1  LIG1        0.0660
     52 C           9.3819    8.6555    1.0218 C.1     1  LIG1       -0.0628
     53 C          10.5084    8.8758    1.3842 C.1     1  LIG1       -0.1137
     54 H          11.5033    9.0664    1.7153 H       1  LIG1        0.1232
@<TRIPOS>BOND
     1    40    39    1
     2    39    38    3
     3    33    29    1
     4    33    34    1
     5    11     8    1
     6    38    30    1
     7    35    34    1
     8    51    48    1
     9    14    13    1
    10    13    12    3
    11    29    30   ar
    12    29    28   ar
    13    30    31   ar
    14    12     3    1
    15     9     8    1
    16    34    37    1
    17    34    36    1
    18     7     8    1
    19     7     2    1
    20     3     2   ar
    21     3     4   ar
    22     8    10    1
    23    28    18    1
    24    28    32   ar
    25     2     1   ar
    26    19    18   ar
    27    19    15   ar
    28    31    32   ar
    29    31    41    1
    30    18    17   ar
    31     4    15    1
    32     4     5   ar
    33    15    16   ar
    34     1     5   ar
    35     1     6    1
    36    45    41   ar
    37    45    44   ar
    38    17    16   ar
    39    17    25    1
    40    16    20    1
    41    41    42   ar
    42    20    21    1
    43    48    50    1
    44    48    49    1
    45    48    47    1
    46    25    26    3
    47    46    44    1
    48    44    43   ar
    49    26    27    1
    50    42    43   ar
    51    42    47    1
    52    43    52    1
    53    52    53    3
    54    22    21    1
    55    53    54    1
    56    21    24    1
    57    21    23    1
