@<TRIPOS>MOLECULE
mol_data/opt/cam/geoms/mol2/12le12le12le-12le.out
 54 57 0 0 0
SMALL
GASTEIGER

@<TRIPOS>ATOM
      1 C           0.3357    1.5755   -0.6914 C.ar    1  LIG1        0.1355
      2 C           1.3901    1.5881    0.1650 C.ar    1  LIG1        0.1737
      3 C           1.6709    2.9671    0.4614 C.ar    1  LIG1        0.1152
      4 C           0.7629    3.6915   -0.2696 C.ar    1  LIG1        0.1924
      5 O          -0.0470    2.8581   -0.9635 O.2     1  LIG1       -0.4547
      6 H          -0.2320    0.7958   -1.1686 H       1  LIG1        0.1068
      7 O           2.0927    0.5757    0.7035 O.3     1  LIG1       -0.4907
      8 C           1.6570   -0.7170    0.3313 C.3     1  LIG1        0.0790
      9 H           2.3081   -1.4263    0.8403 H       1  LIG1        0.0660
     10 H           0.6185   -0.8854    0.6410 H       1  LIG1        0.0660
     11 H           1.7358   -0.8610   -0.7532 H       1  LIG1        0.0660
     12 C           2.6491    3.4571    1.3634 C.1     1  LIG1       -0.0621
     13 C           3.4832    3.8734    2.1251 C.1     1  LIG1       -0.1137
     14 H           4.2128    4.2429    2.8081 H       1  LIG1        0.1232
     15 C           0.5052    5.1078   -0.3814 C.ar    1  LIG1        0.2146
     16 C           1.2625    6.2321   -0.5719 C.ar    1  LIG1        0.1849
     17 C           0.3776    7.3612   -0.4734 C.ar    1  LIG1        0.1159
     18 C          -0.8693    6.8292   -0.2454 C.ar    1  LIG1        0.1934
     19 O          -0.8073    5.4872   -0.1926 O.2     1  LIG1       -0.4434
     20 O           2.5620    6.4108   -0.8445 O.3     1  LIG1       -0.4901
     21 C           3.2737    5.3485   -1.4656 C.3     1  LIG1        0.0790
     22 H           4.1781    5.7968   -1.8771 H       1  LIG1        0.0660
     23 H           3.5465    4.5771   -0.7435 H       1  LIG1        0.0660
     24 H           2.6822    4.9081   -2.2749 H       1  LIG1        0.0660
     25 C           0.7578    8.7172   -0.6316 C.1     1  LIG1       -0.0620
     26 C           1.1086    9.8603   -0.7728 C.1     1  LIG1       -0.1137
     27 H           1.4129   10.8724   -0.9088 H       1  LIG1        0.1232
     28 C          -2.1655    7.4235   -0.0867 C.ar    1  LIG1        0.2146
     29 C          -3.4122    6.9047    0.1290 C.ar    1  LIG1        0.1849
     30 C          -4.3205    8.0169    0.2011 C.ar    1  LIG1        0.1159
     31 C          -3.5450    9.1383    0.0252 C.ar    1  LIG1        0.1934
     32 O          -2.2503    8.7856   -0.1527 O.2     1  LIG1       -0.4434
     33 O          -3.6991    5.6011    0.3128 O.3     1  LIG1       -0.4901
     34 C          -4.5832    5.0289   -0.6481 C.3     1  LIG1        0.0790
     35 H          -4.7292    3.9924   -0.3453 H       1  LIG1        0.0660
     36 H          -5.5461    5.5463   -0.6598 H       1  LIG1        0.0660
     37 H          -4.1359    5.0573   -1.6471 H       1  LIG1        0.0660
     38 C          -5.7098    7.9608    0.4828 C.1     1  LIG1       -0.0620
     39 C          -6.8863    7.8910    0.7279 C.1     1  LIG1       -0.1137
     40 H          -7.9258    7.8396    0.9566 H       1  LIG1        0.1232
     41 C          -3.8903   10.5350   -0.0501 C.ar    1  LIG1        0.2136
     42 C          -3.3058   11.7298    0.2948 C.ar    1  LIG1        0.1842
     43 C          -4.2035   12.7688   -0.1402 C.ar    1  LIG1        0.1047
     44 C          -5.2648   12.1233   -0.6962 C.ar    1  LIG1        0.1118
     45 O          -5.1020   10.7952   -0.6517 O.2     1  LIG1       -0.4547
     46 H          -6.1776   12.4859   -1.1417 H       1  LIG1        0.1043
     47 O          -2.1727   12.0426    0.9322 O.3     1  LIG1       -0.4901
     48 C          -1.5315   11.0481    1.7241 C.3     1  LIG1        0.0790
     49 H          -0.8375   11.5861    2.3695 H       1  LIG1        0.0660
     50 H          -2.2633   10.5158    2.3408 H       1  LIG1        0.0660
     51 H          -0.9844   10.3401    1.1006 H       1  LIG1        0.0660
     52 C          -4.0175   14.1679    0.0120 C.1     1  LIG1       -0.0628
     53 C          -3.8632   15.3542    0.1391 C.1     1  LIG1       -0.1137
     54 H          -3.7222   16.4039    0.2547 H       1  LIG1        0.1232
@<TRIPOS>BOND
     1    24    21    1
     2    22    21    1
     3    37    34    1
     4    21    20    1
     5    21    23    1
     6     6     1    1
     7    46    44    1
     8     5     1   ar
     9     5     4   ar
    10    27    26    1
    11    20    16    1
    12    26    25    3
    13    11     8    1
    14    44    45   ar
    15    44    43   ar
    16     1     2   ar
    17    36    34    1
    18    45    41   ar
    19    34    35    1
    20    34    33    1
    21    25    17    1
    22    16    17   ar
    23    16    15   ar
    24    17    18   ar
    25    15     4    1
    26    15    19   ar
    27     4     3   ar
    28    18    19   ar
    29    18    28    1
    30    32    28   ar
    31    32    31   ar
    32    43    52    1
    33    43    42   ar
    34    28    29   ar
    35    41    31    1
    36    41    42   ar
    37    52    53    3
    38    31    30   ar
    39    29    30   ar
    40    29    33    1
    41    53    54    1
    42     2     3   ar
    43     2     7    1
    44    30    38    1
    45    42    47    1
    46     8    10    1
    47     8     7    1
    48     8     9    1
    49     3    12    1
    50    38    39    3
    51    39    40    1
    52    47    48    1
    53    51    48    1
    54    12    13    3
    55    48    50    1
    56    48    49    1
    57    13    14    1
