@<TRIPOS>MOLECULE
mol_data/opt/cam/geoms/mol2/12le12le12le.out
 41 43 0 0 0
SMALL
GASTEIGER

@<TRIPOS>ATOM
      1 C           0.5539    1.9783   -1.3755 C.ar    1  LIG1        0.1355
      2 C           1.4708    1.7189   -0.4070 C.ar    1  LIG1        0.1737
      3 C           1.6991    2.9546    0.2922 C.ar    1  LIG1        0.1152
      4 C           0.9050    3.8824   -0.3326 C.ar    1  LIG1        0.1924
      5 O           0.2094    3.2985   -1.3365 O.2     1  LIG1       -0.4547
      6 H           0.0664    1.3788   -2.1245 H       1  LIG1        0.1068
      7 O           2.0917    0.5739   -0.0732 O.3     1  LIG1       -0.4907
      8 C           1.7211   -0.5525   -0.8437 C.3     1  LIG1        0.0790
      9 H           2.2957   -1.3958   -0.4629 H       1  LIG1        0.0660
     10 H           0.6498   -0.7629   -0.7411 H       1  LIG1        0.0660
     11 H           1.9568   -0.3981   -1.9037 H       1  LIG1        0.0660
     12 C           2.5395    3.1469    1.4184 C.1     1  LIG1       -0.0621
     13 C           3.2577    3.3103    2.3705 C.1     1  LIG1       -0.1137
     14 H           3.8830    3.4533    3.2214 H       1  LIG1        0.1232
     15 C           0.6525    5.2850   -0.0836 C.ar    1  LIG1        0.2146
     16 C           1.4184    6.4089    0.0746 C.ar    1  LIG1        0.1849
     17 C           0.5204    7.4812    0.4091 C.ar    1  LIG1        0.1159
     18 C          -0.7376    6.9370    0.3894 C.ar    1  LIG1        0.1934
     19 O          -0.6706    5.6225    0.0956 O.2     1  LIG1       -0.4434
     20 O           2.7329    6.6384   -0.0440 O.3     1  LIG1       -0.4901
     21 C           3.5235    5.6936   -0.7517 C.3     1  LIG1        0.0790
     22 H           4.4693    6.1937   -0.9593 H       1  LIG1        0.0660
     23 H           3.7071    4.8010   -0.1508 H       1  LIG1        0.0660
     24 H           3.0423    5.4136   -1.6947 H       1  LIG1        0.0660
     25 C           0.8858    8.8164    0.7171 C.1     1  LIG1       -0.0620
     26 C           1.1917    9.9519    0.9738 C.1     1  LIG1       -0.1137
     27 H           1.4625   10.9542    1.2135 H       1  LIG1        0.1232
     28 C          -2.0464    7.4888    0.6575 C.ar    1  LIG1        0.2136
     29 C          -2.7404    8.6038    0.2688 C.ar    1  LIG1        0.1842
     30 C          -3.9794    8.6000    1.0043 C.ar    1  LIG1        0.1047
     31 C          -3.9428    7.4725    1.7660 C.ar    1  LIG1        0.1118
     32 O          -2.8057    6.7921    1.5737 O.2     1  LIG1       -0.4547
     33 H          -4.6504    7.0493    2.4614 H       1  LIG1        0.1043
     34 O          -2.4799    9.5671   -0.6250 O.3     1  LIG1       -0.4901
     35 C          -1.5688    9.2820   -1.6784 C.3     1  LIG1        0.0790
     36 H          -1.7408   10.0466   -2.4359 H       1  LIG1        0.0660
     37 H          -0.5343    9.3372   -1.3348 H       1  LIG1        0.0660
     38 H          -1.7676    8.2931   -2.1042 H       1  LIG1        0.0660
     39 C          -5.0214    9.5603    0.9192 C.1     1  LIG1       -0.0628
     40 C          -5.9063   10.3724    0.8489 C.1     1  LIG1       -0.1137
     41 H          -6.6870   11.0943    0.7837 H       1  LIG1        0.1232
@<TRIPOS>BOND
     1    36    35    1
     2     6     1    1
     3    38    35    1
     4    11     8    1
     5    24    21    1
     6    35    37    1
     7    35    34    1
     8     1     5   ar
     9     1     2   ar
    10     5     4   ar
    11    22    21    1
    12     8    10    1
    13     8     9    1
    14     8     7    1
    15    21    23    1
    16    21    20    1
    17    34    29    1
    18     2     7    1
    19     2     3   ar
    20     4    15    1
    21     4     3   ar
    22    15    16   ar
    23    15    19   ar
    24    20    16    1
    25    16    17   ar
    26    19    18   ar
    27    29    28   ar
    28    29    30   ar
    29     3    12    1
    30    18    17   ar
    31    18    28    1
    32    17    25    1
    33    28    32   ar
    34    25    26    3
    35    41    40    1
    36    40    39    3
    37    39    30    1
    38    26    27    1
    39    30    31   ar
    40    12    13    3
    41    32    31   ar
    42    31    33    1
    43    13    14    1
