@<TRIPOS>MOLECULE
mol_data/opt/cam/geoms/mol2/12le4he13hf-13ai-.out
 51 54 0 0 0
SMALL
GASTEIGER

@<TRIPOS>ATOM
      1 C           0.3525    1.6520    0.6549 C.ar    1  LIG1        0.1354
      2 C           1.6073    1.5889    0.1461 C.ar    1  LIG1        0.1736
      3 C           1.9963    2.9365   -0.1790 C.ar    1  LIG1        0.1120
      4 C           0.9326    3.7337    0.1781 C.ar    1  LIG1        0.1556
      5 O          -0.0576    2.9571    0.6771 O.2     1  LIG1       -0.4579
      6 H          -0.3448    0.9245    1.0318 H       1  LIG1        0.1068
      7 O           2.4151    0.5353   -0.0696 O.3     1  LIG1       -0.4907
      8 C           1.8671   -0.7173    0.2906 C.3     1  LIG1        0.0790
      9 H           2.6221   -1.4683    0.0617 H       1  LIG1        0.0660
     10 H           1.6316   -0.7493    1.3612 H       1  LIG1        0.0660
     11 H           0.9562   -0.9266   -0.2832 H       1  LIG1        0.0660
     12 C           3.2105    3.3026   -0.8120 C.1     1  LIG1       -0.0622
     13 C           4.2512    3.6109   -1.3360 C.1     1  LIG1       -0.1137
     14 H           5.1610    3.8692   -1.8269 H       1  LIG1        0.1232
     15 C           1.5561    6.1905    0.3829 C.ar    1  LIG1        0.0361
     16 C           1.1262    7.5191    0.3023 C.ar    1  LIG1       -0.0300
     17 C           0.6283    5.1610    0.0951 C.ar    1  LIG1        0.0404
     18 C          -0.1764    7.8895   -0.0296 C.ar    1  LIG1        0.0174
     19 H           1.8336    8.2999    0.5596 H       1  LIG1        0.0643
     20 C          -0.6795    5.5269   -0.2127 C.ar    1  LIG1       -0.0332
     21 C          -1.1107    6.8494   -0.2848 C.ar    1  LIG1        0.0346
     22 H          -1.3993    4.7415   -0.4102 H       1  LIG1        0.0638
     23 N           2.8325    5.9324    0.8256 N.pl3   1  LIG1       -0.3574
     24 H           3.2912    5.0914    0.5094 H       1  LIG1        0.1423
     25 H           3.4446    6.7323    0.8686 H       1  LIG1        0.1423
     26 C          -2.4825    7.0656   -0.6325 C.1     1  LIG1       -0.0690
     27 C          -3.6510    7.1862   -0.9107 C.1     1  LIG1       -0.1139
     28 H          -4.6789    7.2655   -1.1796 H       1  LIG1        0.1232
     29 C          -0.5036    9.3061   -0.0848 C.ar    1  LIG1        0.0728
     30 C           0.3357   10.4142   -0.1931 C.ar    1  LIG1        0.0930
     31 C          -0.4813   11.5609   -0.1393 C.ar    1  LIG1        0.1649
     32 C          -1.7947   11.1615   -0.0046 C.ar    1  LIG1        0.1072
     33 N          -1.7949    9.7915   -0.0025 N.ar    1  LIG1       -0.3486
     34 H          -2.5943    9.2105    0.1914 H       1  LIG1        0.1661
     35 N           1.7326   10.4589   -0.3397 N.pl3   1  LIG1       -0.3535
     36 H           2.0672    9.8229   -1.0546 H       1  LIG1        0.1425
     37 H           2.0267   11.4031   -0.5629 H       1  LIG1        0.1425
     38 O           0.0105   12.8278   -0.2670 O.3     1  LIG1       -0.5030
     39 H          -0.7318   13.4178   -0.4584 H       1  LIG1        0.2923
     40 C          -2.9867   11.9793    0.0087 C.ar    1  LIG1        0.0668
     41 C          -3.2038   13.2371    0.5344 C.ar    1  LIG1       -0.0320
     42 C          -4.5400   13.6223    0.2219 C.ar    1  LIG1       -0.0325
     43 C          -5.0921   12.5837   -0.4835 C.ar    1  LIG1        0.0051
     44 N          -4.1521   11.5894   -0.6040 N.ar    1  LIG1       -0.3592
     45 H          -4.2402   10.7652   -1.1755 H       1  LIG1        0.1654
     46 H          -6.0822   12.4719   -0.8994 H       1  LIG1        0.0809
     47 H          -2.5001   13.7889    1.1431 H       1  LIG1        0.0642
     48 C          -5.2204   14.8979    0.6102 C.3     1  LIG1       -0.0383
     49 H          -6.2451   14.9286    0.2319 H       1  LIG1        0.0278
     50 H          -4.6947   15.7718    0.2127 H       1  LIG1        0.0278
     51 H          -5.2658   15.0157    1.6975 H       1  LIG1        0.0278
@<TRIPOS>BOND
     1    14    13    1
     2    13    12    3
     3    28    27    1
     4    45    44    1
     5    36    35    1
     6    27    26    3
     7    46    43    1
     8    12     3    1
     9    26    21    1
    10    44    43   ar
    11    44    40   ar
    12    37    35    1
    13    43    42   ar
    14    39    38    1
    15    22    20    1
    16    35    30    1
    17    21    20   ar
    18    21    18   ar
    19    11     8    1
    20    38    31    1
    21    20    17   ar
    22    30    31   ar
    23    30    29   ar
    24     3     2   ar
    25     3     4   ar
    26    31    32   ar
    27    29    18    1
    28    29    33   ar
    29     7     2    1
    30     7     8    1
    31    18    16   ar
    32    32    33   ar
    33    32    40    1
    34    33    34    1
    35    40    41   ar
    36     9     8    1
    37    17     4    1
    38    17    15   ar
    39     2     1   ar
    40     4     5   ar
    41    50    48    1
    42    42    41   ar
    43    42    48    1
    44    49    48    1
    45     8    10    1
    46    16    15   ar
    47    16    19    1
    48    15    23    1
    49    24    23    1
    50    41    47    1
    51    48    51    1
    52     1     5   ar
    53     1     6    1
    54    23    25    1
