@<TRIPOS>MOLECULE
mol_data/opt/cam/geoms/mol2/12le12le-12le12le-.out
 54 57 0 0 0
SMALL
GASTEIGER

@<TRIPOS>ATOM
      1 C          -0.0987    1.9075    0.0127 C.ar    1  LIG1        0.1355
      2 C           1.1584    1.9265   -0.5011 C.ar    1  LIG1        0.1737
      3 C           1.5932    3.2978   -0.5107 C.ar    1  LIG1        0.1152
      4 C           0.5383    4.0078    0.0138 C.ar    1  LIG1        0.1924
      5 O          -0.4803    3.1832    0.3304 O.2     1  LIG1       -0.4547
      6 H          -0.8178    1.1329    0.2127 H       1  LIG1        0.1068
      7 O           1.9341    0.9223   -0.9462 O.3     1  LIG1       -0.4907
      8 C           1.3486   -0.3620   -0.8690 C.3     1  LIG1        0.0790
      9 H           2.0821   -1.0657   -1.2602 H       1  LIG1        0.0660
     10 H           1.1086   -0.6223    0.1691 H       1  LIG1        0.0660
     11 H           0.4338   -0.4134   -1.4719 H       1  LIG1        0.0660
     12 C           2.8313    3.7880   -0.9947 C.1     1  LIG1       -0.0621
     13 C           3.8788    4.2071   -1.4147 C.1     1  LIG1       -0.1137
     14 H           4.7909    4.6026   -1.7979 H       1  LIG1        0.1232
     15 C           0.3541    5.4092    0.2612 C.ar    1  LIG1        0.2146
     16 C          -0.7090    6.1695    0.6639 C.ar    1  LIG1        0.1849
     17 C          -0.2521    7.5331    0.7245 C.ar    1  LIG1        0.1159
     18 C           1.0720    7.4874    0.3489 C.ar    1  LIG1        0.1934
     19 O           1.4405    6.2172    0.0769 O.2     1  LIG1       -0.4434
     20 O          -1.9251    5.6912    0.9963 O.3     1  LIG1       -0.4901
     21 C          -3.0212    6.2386    0.2686 C.3     1  LIG1        0.0790
     22 H          -3.9152    5.7505    0.6561 H       1  LIG1        0.0660
     23 H          -3.0999    7.3182    0.4186 H       1  LIG1        0.0660
     24 H          -2.9216    6.0218   -0.8004 H       1  LIG1        0.0660
     25 C          -0.9776    8.6687    1.1655 C.1     1  LIG1       -0.0620
     26 C          -1.5829    9.6366    1.5489 C.1     1  LIG1       -0.1137
     27 H          -2.0808   10.5072    1.9095 H       1  LIG1        0.1232
     28 C           2.0809    8.4942    0.2117 C.ar    1  LIG1        0.2146
     29 C           3.4415    8.4638    0.0427 C.ar    1  LIG1        0.1849
     30 C           3.8818    9.8275   -0.0455 C.ar    1  LIG1        0.1159
     31 C           2.7436   10.5897    0.0770 C.ar    1  LIG1        0.1934
     32 O           1.6625    9.7943    0.2344 O.2     1  LIG1       -0.4434
     33 O           4.2634    7.4003   -0.0601 O.3     1  LIG1       -0.4901
     34 C           4.4279    6.6302    1.1307 C.3     1  LIG1        0.0790
     35 H           5.1613    5.8605    0.8944 H       1  LIG1        0.0660
     36 H           4.7995    7.2593    1.9459 H       1  LIG1        0.0660
     37 H           3.4921    6.1487    1.4216 H       1  LIG1        0.0660
     38 C           5.2222   10.2534   -0.2232 C.1     1  LIG1       -0.0620
     39 C           6.3684   10.5883   -0.3707 C.1     1  LIG1       -0.1137
     40 H           7.3817   10.8885   -0.5053 H       1  LIG1        0.1232
     41 C           2.4937   12.0018    0.0679 C.ar    1  LIG1        0.2136
     42 C           1.3465   12.7490    0.1238 C.ar    1  LIG1        0.1842
     43 C           1.7545   14.1283    0.0880 C.ar    1  LIG1        0.1047
     44 C           3.1153   14.1004    0.0186 C.ar    1  LIG1        0.1118
     45 O           3.5715   12.8337    0.0020 O.2     1  LIG1       -0.4547
     46 H           3.8587   14.8798   -0.0254 H       1  LIG1        0.1043
     47 O           0.0696   12.3196    0.2237 O.3     1  LIG1       -0.4901
     48 C          -0.5028   11.8599   -0.9995 C.3     1  LIG1        0.0790
     49 H          -1.5258   11.5668   -0.7671 H       1  LIG1        0.0660
     50 H          -0.5057   12.6577   -1.7495 H       1  LIG1        0.0660
     51 H           0.0377   10.9896   -1.3808 H       1  LIG1        0.0660
     52 C           0.9077   15.2678    0.1201 C.1     1  LIG1       -0.0628
     53 C           0.1865   16.2304    0.1414 C.1     1  LIG1       -0.1137
     54 H          -0.4530   17.0824    0.1665 H       1  LIG1        0.1232
@<TRIPOS>BOND
     1    14    13    1
     2    50    48    1
     3    11     8    1
     4    13    12    3
     5    51    48    1
     6     9     8    1
     7    48    49    1
     8    48    47    1
     9    12     3    1
    10     7     8    1
    11     7     2    1
    12     8    10    1
    13    24    21    1
    14     3     2   ar
    15     3     4   ar
    16    40    39    1
    17     2     1   ar
    18    39    38    3
    19    38    30    1
    20    33    29    1
    21    33    34    1
    22    30    29   ar
    23    30    31   ar
    24    46    44    1
    25    45    44   ar
    26    45    41   ar
    27     1     6    1
    28     1     5   ar
    29     4    15    1
    30     4     5   ar
    31    44    43   ar
    32    29    28   ar
    33    41    31    1
    34    41    42   ar
    35    19    15   ar
    36    19    18   ar
    37    31    32   ar
    38    43    52    1
    39    43    42   ar
    40    52    53    3
    41    42    47    1
    42    53    54    1
    43    28    32   ar
    44    28    18    1
    45    15    16   ar
    46    21    23    1
    47    21    22    1
    48    21    20    1
    49    18    17   ar
    50    16    17   ar
    51    16    20    1
    52    17    25    1
    53    35    34    1
    54    34    37    1
    55    34    36    1
    56    25    26    3
    57    26    27    1
