@<TRIPOS>MOLECULE
mol_data/opt/cam/geoms/mol2/12le12le-12le.out
 41 43 0 0 0
SMALL
GASTEIGER

@<TRIPOS>ATOM
      1 C          -0.1225    1.8210    0.0696 C.ar    1  LIG1        0.1355
      2 C           1.1976    1.7392   -0.2366 C.ar    1  LIG1        0.1737
      3 C           1.7066    3.0845   -0.2882 C.ar    1  LIG1        0.1152
      4 C           0.6259    3.8851   -0.0008 C.ar    1  LIG1        0.1924
      5 O          -0.4741    3.1358    0.2149 O.2     1  LIG1       -0.4547
      6 H          -0.9070    1.1000    0.2169 H       1  LIG1        0.1068
      7 O           1.9759    0.6675   -0.4667 O.3     1  LIG1       -0.4907
      8 C           1.3151   -0.5791   -0.3757 C.3     1  LIG1        0.0790
      9 H           2.0606   -1.3456   -0.5831 H       1  LIG1        0.0660
     10 H           0.9022   -0.7319    0.6288 H       1  LIG1        0.0660
     11 H           0.5043   -0.6481   -1.1110 H       1  LIG1        0.0660
     12 C           3.0416    3.4537   -0.5875 C.1     1  LIG1       -0.0621
     13 C           4.1833    3.7357   -0.8466 C.1     1  LIG1       -0.1137
     14 H           5.1894    3.9909   -1.0875 H       1  LIG1        0.1232
     15 C           0.4674    5.3092    0.0944 C.ar    1  LIG1        0.2146
     16 C          -0.6014    6.1170    0.3658 C.ar    1  LIG1        0.1849
     17 C          -0.1216    7.4723    0.3258 C.ar    1  LIG1        0.1159
     18 C           1.2175    7.3808    0.0302 C.ar    1  LIG1        0.1934
     19 O           1.5739    6.0825   -0.1137 O.2     1  LIG1       -0.4434
     20 O          -1.8437    5.6974    0.6817 O.3     1  LIG1       -0.4901
     21 C          -2.8733    6.1208   -0.2084 C.3     1  LIG1        0.0790
     22 H          -3.8043    5.7204    0.1923 H       1  LIG1        0.0660
     23 H          -2.9349    7.2111   -0.2558 H       1  LIG1        0.0660
     24 H          -2.7047    5.7176   -1.2126 H       1  LIG1        0.0660
     25 C          -0.8641    8.6456    0.6169 C.1     1  LIG1       -0.0620
     26 C          -1.5103    9.6286    0.8723 C.1     1  LIG1       -0.1137
     27 H          -2.0713   10.5032    1.1084 H       1  LIG1        0.1232
     28 C           2.2179    8.3941   -0.1913 C.ar    1  LIG1        0.2136
     29 C           3.5666    8.5332    0.0305 C.ar    1  LIG1        0.1842
     30 C           3.9442    9.8129   -0.5124 C.ar    1  LIG1        0.1047
     31 C           2.7954   10.3534   -1.0026 C.ar    1  LIG1        0.1118
     32 O           1.7561    9.5292   -0.8211 O.2     1  LIG1       -0.4547
     33 H           2.5897   11.2951   -1.4861 H       1  LIG1        0.1043
     34 O           4.4778    7.7640    0.6358 O.3     1  LIG1       -0.4901
     35 C           4.0354    6.7423    1.5230 C.3     1  LIG1        0.0790
     36 H           4.9095    6.4617    2.1102 H       1  LIG1        0.0660
     37 H           3.2557    7.1233    2.1910 H       1  LIG1        0.0660
     38 H           3.6646    5.8763    0.9735 H       1  LIG1        0.0660
     39 C           5.2426   10.3868   -0.5046 C.1     1  LIG1       -0.0628
     40 C           6.3415   10.8764   -0.5001 C.1     1  LIG1       -0.1137
     41 H           7.3165   11.3059   -0.4931 H       1  LIG1        0.1232
@<TRIPOS>BOND
     1    33    31    1
     2    24    21    1
     3    11     8    1
     4    14    13    1
     5    31    32   ar
     6    31    30   ar
     7    13    12    3
     8    32    28   ar
     9    12     3    1
    10     9     8    1
    11    30    39    1
    12    30    29   ar
    13    39    40    3
    14    40    41    1
    15     7     8    1
    16     7     2    1
    17     8    10    1
    18     3     2   ar
    19     3     4   ar
    20    23    21    1
    21     2     1   ar
    22    21    22    1
    23    21    20    1
    24    28    18    1
    25    28    29   ar
    26    19    18   ar
    27    19    15   ar
    28     4    15    1
    29     4     5   ar
    30    18    17   ar
    31    29    34    1
    32     1     5   ar
    33     1     6    1
    34    15    16   ar
    35    17    16   ar
    36    17    25    1
    37    16    20    1
    38    25    26    3
    39    34    35    1
    40    26    27    1
    41    38    35    1
    42    35    36    1
    43    35    37    1
