@<TRIPOS>MOLECULE
mol_data/opt/cam/geoms/mol2/12le12le-12le12le.out
 54 57 0 0 0
SMALL
GASTEIGER

@<TRIPOS>ATOM
      1 C          -0.2861    1.8475    0.0702 C.ar    1  LIG1        0.1355
      2 C           0.9349    1.7536   -0.5158 C.ar    1  LIG1        0.1737
      3 C           1.5166    3.0700   -0.5000 C.ar    1  LIG1        0.1152
      4 C           0.5765    3.8673    0.1097 C.ar    1  LIG1        0.1924
      5 O          -0.5069    3.1424    0.4545 O.2     1  LIG1       -0.4547
      6 H          -1.0734    1.1469    0.2856 H       1  LIG1        0.1068
      7 O           1.5723    0.6934   -1.0416 O.3     1  LIG1       -0.4907
      8 C           0.8565   -0.5242   -0.9785 C.3     1  LIG1        0.0790
      9 H           1.4872   -1.2834   -1.4389 H       1  LIG1        0.0660
     10 H           0.6471   -0.8033    0.0613 H       1  LIG1        0.0660
     11 H          -0.0899   -0.4518   -1.5280 H       1  LIG1        0.0660
     12 C           2.7844    3.4210   -1.0269 C.1     1  LIG1       -0.0621
     13 C           3.8654    3.6877   -1.4856 C.1     1  LIG1       -0.1137
     14 H           4.8153    3.9309   -1.9026 H       1  LIG1        0.1232
     15 C           0.5415    5.2695    0.4180 C.ar    1  LIG1        0.2146
     16 C          -0.3950    6.0770    1.0011 C.ar    1  LIG1        0.1849
     17 C           0.1613    7.4025    1.0385 C.ar    1  LIG1        0.1159
     18 C           1.4078    7.2953    0.4693 C.ar    1  LIG1        0.1934
     19 O           1.6381    6.0152    0.0920 O.2     1  LIG1       -0.4434
     20 O          -1.5789    5.6716    1.5040 O.3     1  LIG1       -0.4901
     21 C          -2.7291    6.2560    0.8975 C.3     1  LIG1        0.0790
     22 H          -3.5908    5.8439    1.4221 H       1  LIG1        0.0660
     23 H          -2.7241    7.3441    1.0012 H       1  LIG1        0.0660
     24 H          -2.7841    5.9873   -0.1627 H       1  LIG1        0.0660
     25 C          -0.4279    8.5543    1.6205 C.1     1  LIG1       -0.0620
     26 C          -0.9433    9.5183    2.1247 C.1     1  LIG1       -0.1137
     27 H          -1.3884   10.3760    2.5738 H       1  LIG1        0.1232
     28 C           2.4138    8.2864    0.1837 C.ar    1  LIG1        0.2146
     29 C           3.7862    8.3319    0.1382 C.ar    1  LIG1        0.1849
     30 C           4.1398    9.6519   -0.3066 C.ar    1  LIG1        0.1159
     31 C           2.9580   10.3298   -0.4598 C.ar    1  LIG1        0.1934
     32 O           1.9196    9.5195   -0.1697 O.2     1  LIG1       -0.4434
     33 O           4.7427    7.4427    0.4270 O.3     1  LIG1       -0.4901
     34 C           4.4164    6.3165    1.2347 C.3     1  LIG1        0.0790
     35 H           5.3689    5.9151    1.5801 H       1  LIG1        0.0660
     36 H           3.8161    6.6219    2.0983 H       1  LIG1        0.0660
     37 H           3.8823    5.5600    0.6591 H       1  LIG1        0.0660
     38 C           5.4529   10.1271   -0.5541 C.1     1  LIG1       -0.0620
     39 C           6.5661   10.5354   -0.7606 C.1     1  LIG1       -0.1137
     40 H           7.5505   10.8942   -0.9547 H       1  LIG1        0.1232
     41 C           2.6469   11.6712   -0.8978 C.ar    1  LIG1        0.2136
     42 C           3.0903   12.9311   -0.5937 C.ar    1  LIG1        0.1842
     43 C           2.4178   13.8364   -1.4905 C.ar    1  LIG1        0.1047
     44 C           1.6079   13.0523   -2.2534 C.ar    1  LIG1        0.1118
     45 O           1.7220   11.7615   -1.9168 O.2     1  LIG1       -0.4547
     46 H           0.9128   13.2886   -3.0436 H       1  LIG1        0.1043
     47 O           3.9325   13.3941    0.3393 O.3     1  LIG1       -0.4901
     48 C           4.1616   12.5998    1.4958 C.3     1  LIG1        0.0790
     49 H           4.6017   13.2695    2.2346 H       1  LIG1        0.0660
     50 H           3.2192   12.1971    1.8812 H       1  LIG1        0.0660
     51 H           4.8555   11.7840    1.2858 H       1  LIG1        0.0660
     52 C           2.5583   15.2482   -1.5365 C.1     1  LIG1       -0.0628
     53 C           2.6746   16.4449   -1.5776 C.1     1  LIG1       -0.1137
     54 H           2.7816   17.5044   -1.6111 H       1  LIG1        0.1232
@<TRIPOS>BOND
     1    46    44    1
     2    44    45   ar
     3    44    43   ar
     4    45    41   ar
     5    14    13    1
     6    54    53    1
     7    53    52    3
     8    52    43    1
     9    11     8    1
    10    43    42   ar
    11    13    12    3
    12     9     8    1
    13     7     8    1
    14     7     2    1
    15    12     3    1
    16     8    10    1
    17    40    39    1
    18    41    42   ar
    19    41    31    1
    20    39    38    3
    21    42    47    1
    22    38    30    1
    23     2     3   ar
    24     2     1   ar
    25     3     4   ar
    26    31    30   ar
    27    31    32   ar
    28    30    29   ar
    29    32    28   ar
    30    24    21    1
    31     1     6    1
    32     1     5   ar
    33    19    15   ar
    34    19    18   ar
    35     4    15    1
    36     4     5   ar
    37    29    28   ar
    38    29    33    1
    39    28    18    1
    40    47    48    1
    41    15    16   ar
    42    33    34    1
    43    18    17   ar
    44    37    34    1
    45    21    23    1
    46    21    22    1
    47    21    20    1
    48    16    17   ar
    49    16    20    1
    50    17    25    1
    51    34    35    1
    52    34    36    1
    53    51    48    1
    54    48    50    1
    55    48    49    1
    56    25    26    3
    57    26    27    1
