@<TRIPOS>MOLECULE
mol_data/opt/cam/geoms/mol2/12le12le12le-12le-.out
 54 57 0 0 0
SMALL
GASTEIGER

@<TRIPOS>ATOM
      1 C           0.1688    1.7894   -0.8348 C.ar    1  LIG1        0.1355
      2 C           1.2249    1.7066    0.0152 C.ar    1  LIG1        0.1737
      3 C           1.5431    3.0498    0.4200 C.ar    1  LIG1        0.1152
      4 C           0.6540    3.8542   -0.2476 C.ar    1  LIG1        0.1924
      5 O          -0.1804    3.1000   -1.0024 O.2     1  LIG1       -0.4547
      6 H          -0.4201    1.0653   -1.3702 H       1  LIG1        0.1068
      7 O           1.9015    0.6368    0.4685 O.3     1  LIG1       -0.4907
      8 C           1.4307   -0.6105   -0.0030 C.3     1  LIG1        0.0790
      9 H           2.0640   -1.3747    0.4454 H       1  LIG1        0.0660
     10 H           0.3889   -0.7754    0.2971 H       1  LIG1        0.0660
     11 H           1.5033   -0.6700   -1.0958 H       1  LIG1        0.0660
     12 C           2.5318    3.4383    1.3591 C.1     1  LIG1       -0.0621
     13 C           3.3737    3.7686    2.1536 C.1     1  LIG1       -0.1137
     14 H           4.1095    4.0623    2.8662 H       1  LIG1        0.1232
     15 C           0.4262    5.2791   -0.2478 C.ar    1  LIG1        0.2146
     16 C           1.1990    6.4059   -0.3353 C.ar    1  LIG1        0.1849
     17 C           0.3238    7.5364   -0.1752 C.ar    1  LIG1        0.1159
     18 C          -0.9333    7.0061   -0.0193 C.ar    1  LIG1        0.1934
     19 O          -0.8868    5.6609   -0.0642 O.2     1  LIG1       -0.4434
     20 O           2.5068    6.5864   -0.5621 O.3     1  LIG1       -0.4901
     21 C           3.2144    5.5742   -1.2662 C.3     1  LIG1        0.0790
     22 H           4.1371    6.0410   -1.6107 H       1  LIG1        0.0660
     23 H           3.4547    4.7312   -0.6162 H       1  LIG1        0.0660
     24 H           2.6357    5.2267   -2.1283 H       1  LIG1        0.0660
     25 C           0.7195    8.8964   -0.2065 C.1     1  LIG1       -0.0620
     26 C           1.0755   10.0453   -0.2364 C.1     1  LIG1       -0.1137
     27 H           1.3845   11.0644   -0.2607 H       1  LIG1        0.1232
     28 C          -2.2307    7.5923    0.1520 C.ar    1  LIG1        0.2146
     29 C          -3.4719    7.0645    0.3879 C.ar    1  LIG1        0.1849
     30 C          -4.3820    8.1708    0.4879 C.ar    1  LIG1        0.1159
     31 C          -3.6149    9.2962    0.3006 C.ar    1  LIG1        0.1934
     32 O          -2.3230    8.9499    0.0950 O.2     1  LIG1       -0.4434
     33 O          -3.8169    5.7737    0.5761 O.3     1  LIG1       -0.4901
     34 C          -3.9322    4.9853   -0.6073 C.3     1  LIG1        0.0790
     35 H          -4.3442    4.0266   -0.2921 H       1  LIG1        0.0660
     36 H          -4.6142    5.4556   -1.3232 H       1  LIG1        0.0660
     37 H          -2.9537    4.8264   -1.0674 H       1  LIG1        0.0660
     38 C          -5.7618    8.0612    0.7950 C.1     1  LIG1       -0.0620
     39 C          -6.9232    7.9106    1.0734 C.1     1  LIG1       -0.1137
     40 H          -7.9505    7.7721    1.3191 H       1  LIG1        0.1232
     41 C          -3.9061   10.7046    0.2842 C.ar    1  LIG1        0.2136
     42 C          -5.0198   11.4312   -0.0309 C.ar    1  LIG1        0.1842
     43 C          -4.6680   12.8200    0.1406 C.ar    1  LIG1        0.1047
     44 C          -3.3613   12.8091    0.5300 C.ar    1  LIG1        0.1118
     45 O          -2.8882   11.5564    0.6158 O.2     1  LIG1       -0.4547
     46 H          -2.6719   13.6044    0.7643 H       1  LIG1        0.1043
     47 O          -6.1713   10.9194   -0.5071 O.3     1  LIG1       -0.4901
     48 C          -7.3478   11.2464    0.2287 C.3     1  LIG1        0.0790
     49 H          -8.1779   10.7964   -0.3149 H       1  LIG1        0.0660
     50 H          -7.2988   10.8193    1.2348 H       1  LIG1        0.0660
     51 H          -7.4909   12.3281    0.2860 H       1  LIG1        0.0660
     52 C          -5.4721   13.9670   -0.0969 C.1     1  LIG1       -0.0628
     53 C          -6.1494   14.9417   -0.2972 C.1     1  LIG1       -0.1137
     54 H          -6.7439   15.8062   -0.4843 H       1  LIG1        0.1232
@<TRIPOS>BOND
     1    24    21    1
     2    22    21    1
     3     6     1    1
     4    36    34    1
     5    21    23    1
     6    21    20    1
     7    11     8    1
     8    37    34    1
     9     5     1   ar
    10     5     4   ar
    11     1     2   ar
    12    34    35    1
    13    34    33    1
    14    20    16    1
    15    47    42    1
    16    47    48    1
    17    54    53    1
    18    16    15   ar
    19    16    17   ar
    20    49    48    1
    21    53    52    3
    22    27    26    1
    23    15     4    1
    24    15    19   ar
    25     4     3   ar
    26    26    25    3
    27    25    17    1
    28    17    18   ar
    29    52    43    1
    30    19    18   ar
    31    42    43   ar
    32    42    41   ar
    33    18    28    1
    34     8    10    1
    35     8     9    1
    36     8     7    1
    37     2     3   ar
    38     2     7    1
    39    32    28   ar
    40    32    31   ar
    41    43    44   ar
    42    28    29   ar
    43    48    51    1
    44    48    50    1
    45    41    31    1
    46    41    45   ar
    47    31    30   ar
    48    29    30   ar
    49    29    33    1
    50     3    12    1
    51    30    38    1
    52    44    45   ar
    53    44    46    1
    54    38    39    3
    55    39    40    1
    56    12    13    3
    57    13    14    1
