@<TRIPOS>MOLECULE
mol_data/opt/cam/geoms/mol2/12le.out
 15 15 0 0 0
SMALL
GASTEIGER

@<TRIPOS>ATOM
      1 C           0.0618    1.9309    0.0000 C.ar    1  LIG1        0.1344
      2 C           1.4195    1.8790   -0.0000 C.ar    1  LIG1        0.1729
      3 C           1.8902    3.2414   -0.0001 C.ar    1  LIG1        0.1039
      4 C           0.7614    4.0039   -0.0001 C.ar    1  LIG1        0.1107
      5 O          -0.3431    3.2385   -0.0000 O.2     1  LIG1       -0.4660
      6 H          -0.7173    1.1889    0.0001 H       1  LIG1        0.1068
      7 H           0.6131    5.0720   -0.0001 H       1  LIG1        0.1043
      8 O           2.2540    0.8241   -0.0000 O.3     1  LIG1       -0.4907
      9 C           1.6178   -0.4381    0.0001 C.3     1  LIG1        0.0790
     10 H           2.4074   -1.1884    0.0001 H       1  LIG1        0.0660
     11 H           0.9938   -0.5633    0.8934 H       1  LIG1        0.0660
     12 H           0.9937   -0.5634   -0.8931 H       1  LIG1        0.0660
     13 C           3.2393    3.6831   -0.0002 C.1     1  LIG1       -0.0628
     14 C           4.3834    4.0559   -0.0002 C.1     1  LIG1       -0.1137
     15 H           5.3977    4.3820    0.0004 H       1  LIG1        0.1232
@<TRIPOS>BOND
     1    12     9    1
     2    13    14    3
     3    13     3    1
     4    14    15    1
     5     3     4   ar
     6     3     2   ar
     7     7     4    1
     8     4     5   ar
     9     5     1   ar
    10     2     8    1
    11     2     1   ar
    12     8     9    1
    13     1     6    1
    14    10     9    1
    15     9    11    1
