@<TRIPOS>MOLECULE
mol_data/opt/cam/geoms/mol2/12le12le12le12le.out
 54 57 0 0 0
SMALL
GASTEIGER

@<TRIPOS>ATOM
      1 C           0.8525    2.3809   -2.3927 C.ar    1  LIG1        0.1355
      2 C           1.5172    1.8525   -1.3320 C.ar    1  LIG1        0.1737
      3 C           1.5867    2.8810   -0.3294 C.ar    1  LIG1        0.1152
      4 C           0.9673    3.9736   -0.8808 C.ar    1  LIG1        0.1924
      5 O           0.5192    3.6769   -2.1233 O.2     1  LIG1       -0.4547
      6 H           0.5472    1.9978   -3.3509 H       1  LIG1        0.1068
      7 O           2.0342    0.6253   -1.1461 O.3     1  LIG1       -0.4907
      8 C           1.8427   -0.2720   -2.2223 C.3     1  LIG1        0.0790
      9 H           2.3059   -1.2138   -1.9316 H       1  LIG1        0.0660
     10 H           0.7750   -0.4325   -2.4140 H       1  LIG1        0.0660
     11 H           2.3192    0.1035   -3.1361 H       1  LIG1        0.0660
     12 C           2.1430    2.7603    0.9697 C.1     1  LIG1       -0.0621
     13 C           2.6208    2.6586    2.0697 C.1     1  LIG1       -0.1137
     14 H           3.0311    2.5660    3.0488 H       1  LIG1        0.1232
     15 C           0.6760    5.2964   -0.3729 C.ar    1  LIG1        0.2146
     16 C           1.3927    6.3000    0.2223 C.ar    1  LIG1        0.1849
     17 C           0.4519    7.3256    0.5837 C.ar    1  LIG1        0.1159
     18 C          -0.7693    6.8867    0.1417 C.ar    1  LIG1        0.1934
     19 O          -0.6471    5.6725   -0.4324 O.2     1  LIG1       -0.4434
     20 O           2.6992    6.4608    0.4707 O.3     1  LIG1       -0.4901
     21 C           3.6285    5.6631   -0.2498 C.3     1  LIG1        0.0790
     22 H           4.5993    6.1383   -0.1097 H       1  LIG1        0.0660
     23 H           3.6620    4.6440    0.1397 H       1  LIG1        0.0660
     24 H           3.3797    5.6453   -1.3160 H       1  LIG1        0.0660
     25 C           0.7457    8.5265    1.2784 C.1     1  LIG1       -0.0620
     26 C           0.9921    9.5493    1.8630 C.1     1  LIG1       -0.1137
     27 H           1.2068   10.4486    2.3927 H       1  LIG1        0.1232
     28 C          -2.0980    7.4502    0.2190 C.ar    1  LIG1        0.2146
     29 C          -2.6594    8.6725   -0.0388 C.ar    1  LIG1        0.1849
     30 C          -4.0349    8.5924    0.3719 C.ar    1  LIG1        0.1159
     31 C          -4.2210    7.3069    0.8115 C.ar    1  LIG1        0.1934
     32 O          -3.0674    6.6137    0.7226 O.2     1  LIG1       -0.4434
     33 O          -2.1726    9.7979   -0.5789 O.3     1  LIG1       -0.4901
     34 C          -1.0377    9.7028   -1.4301 C.3     1  LIG1        0.0790
     35 H          -1.0103   10.6348   -1.9946 H       1  LIG1        0.0660
     36 H          -0.1169    9.5997   -0.8539 H       1  LIG1        0.0660
     37 H          -1.1418    8.8591   -2.1202 H       1  LIG1        0.0660
     38 C          -4.9827    9.6468    0.3417 C.1     1  LIG1       -0.0620
     39 C          -5.7916   10.5376    0.3124 C.1     1  LIG1       -0.1137
     40 H          -6.5052   11.3288    0.2989 H       1  LIG1        0.1232
     41 C          -5.3660    6.6176    1.3608 C.ar    1  LIG1        0.2136
     42 C          -6.6888    6.4934    1.0272 C.ar    1  LIG1        0.1842
     43 C          -7.3140    5.7361    2.0815 C.ar    1  LIG1        0.1047
     44 C          -6.3143    5.4476    2.9593 C.ar    1  LIG1        0.1118
     45 O          -5.1454    5.9565    2.5501 O.2     1  LIG1       -0.4547
     46 H          -6.3052    4.8928    3.8842 H       1  LIG1        0.1043
     47 O          -7.3947    6.8963   -0.0381 O.3     1  LIG1       -0.4901
     48 C          -6.7031    7.1167   -1.2605 C.3     1  LIG1        0.0790
     49 H          -7.4665    7.1186   -2.0385 H       1  LIG1        0.0660
     50 H          -6.1861    8.0778   -1.2567 H       1  LIG1        0.0660
     51 H          -5.9881    6.3096   -1.4507 H       1  LIG1        0.0660
     52 C          -8.6787    5.3533    2.1593 C.1     1  LIG1       -0.0628
     53 C          -9.8347    5.0270    2.2279 C.1     1  LIG1       -0.1137
     54 H         -10.8593    4.7408    2.2849 H       1  LIG1        0.1232
@<TRIPOS>BOND
     1     6     1    1
     2    11     8    1
     3    10     8    1
     4     1     5   ar
     5     1     2   ar
     6     8     9    1
     7     8     7    1
     8     5     4   ar
     9    37    34    1
    10    49    48    1
    11    35    34    1
    12    51    48    1
    13    34    36    1
    14    34    33    1
    15     2     7    1
    16     2     3   ar
    17    24    21    1
    18    48    50    1
    19    48    47    1
    20     4    15    1
    21     4     3   ar
    22    33    29    1
    23    19    15   ar
    24    19    18   ar
    25    15    16   ar
    26     3    12    1
    27    21    22    1
    28    21    23    1
    29    21    20    1
    30    29    28   ar
    31    29    30   ar
    32    47    42    1
    33    18    28    1
    34    18    17   ar
    35    28    32   ar
    36    16    20    1
    37    16    17   ar
    38    40    39    1
    39    39    38    3
    40    38    30    1
    41    30    31   ar
    42    17    25    1
    43    32    31   ar
    44    31    41    1
    45    12    13    3
    46    42    41   ar
    47    42    43   ar
    48    25    26    3
    49    41    45   ar
    50    26    27    1
    51    13    14    1
    52    43    52    1
    53    43    44   ar
    54    52    53    3
    55    53    54    1
    56    45    44   ar
    57    44    46    1
