@<TRIPOS>MOLECULE
mol_data/opt/cam/geoms/mol2/12lf12lf12lf12lf.out
 50 53 0 0 0
SMALL
GASTEIGER

@<TRIPOS>ATOM
      1 C           0.5799    1.0692   -0.5633 C.ar    1  LIG1        0.1381
      2 C           1.9191    1.1382   -0.3317 C.ar    1  LIG1        0.2002
      3 C           2.2152    2.5091   -0.0451 C.ar    1  LIG1        0.2086
      4 C           1.0201    3.1745   -0.1281 C.ar    1  LIG1        0.2184
      5 O           0.0188    2.3027   -0.4462 O.2     1  LIG1       -0.4521
      6 H          -0.0892    0.2622   -0.8081 H       1  LIG1        0.1069
      7 O           2.8665    0.1780   -0.3381 O.3     1  LIG1       -0.4888
      8 C           2.3878   -1.1190   -0.6223 C.3     1  LIG1        0.0791
      9 H           3.2480   -1.7869   -0.5911 H       1  LIG1        0.0660
     10 H           1.6493   -1.4396    0.1233 H       1  LIG1        0.0660
     11 H           1.9289   -1.1616   -1.6183 H       1  LIG1        0.0660
     12 O           3.4462    2.9566    0.2512 O.3     1  LIG1       -0.5007
     13 H           3.4102    3.9280    0.3500 H       1  LIG1        0.2924
     14 C           0.6917    4.5605    0.0502 C.ar    1  LIG1        0.2196
     15 C           1.4859    5.6632    0.2148 C.ar    1  LIG1        0.2117
     16 C           0.6202    6.7795    0.3951 C.ar    1  LIG1        0.2094
     17 C          -0.6557    6.2801    0.3155 C.ar    1  LIG1        0.2195
     18 O          -0.6097    4.9249    0.1154 O.2     1  LIG1       -0.4407
     19 O           2.8549    5.6547    0.2528 O.3     1  LIG1       -0.4883
     20 C           3.4795    6.5068   -0.7129 C.3     1  LIG1        0.0791
     21 H           4.5542    6.4066   -0.5618 H       1  LIG1        0.0660
     22 H           3.2166    6.1930   -1.7280 H       1  LIG1        0.0660
     23 H           3.1746    7.5426   -0.5522 H       1  LIG1        0.0660
     24 O           1.0489    8.0389    0.5955 O.3     1  LIG1       -0.5007
     25 H           0.2749    8.6387    0.6025 H       1  LIG1        0.2924
     26 C          -1.9329    6.9227    0.4027 C.ar    1  LIG1        0.2197
     27 C          -2.2717    8.2491    0.4333 C.ar    1  LIG1        0.2117
     28 C          -3.6857    8.3166    0.5890 C.ar    1  LIG1        0.2094
     29 C          -4.1194    7.0164    0.6293 C.ar    1  LIG1        0.2194
     30 O          -3.0485    6.1671    0.5260 O.2     1  LIG1       -0.4407
     31 O          -1.3841    9.2923    0.3817 O.3     1  LIG1       -0.4883
     32 C          -1.6275   10.2254   -0.6766 C.3     1  LIG1        0.0791
     33 H          -0.8637   10.9978   -0.5881 H       1  LIG1        0.0660
     34 H          -1.5462    9.7308   -1.6497 H       1  LIG1        0.0660
     35 H          -2.6195   10.6669   -0.5651 H       1  LIG1        0.0660
     36 O          -4.3810    9.4663    0.6683 O.3     1  LIG1       -0.5007
     37 H          -5.3376    9.2579    0.6694 H       1  LIG1        0.2924
     38 C          -5.4357    6.4590    0.7531 C.ar    1  LIG1        0.2186
     39 C          -6.6678    7.0479    0.6945 C.ar    1  LIG1        0.2109
     40 C          -7.6264    6.0197    0.9502 C.ar    1  LIG1        0.1979
     41 C          -6.9156    4.8781    1.1364 C.ar    1  LIG1        0.1379
     42 O          -5.5780    5.1429    1.0304 O.2     1  LIG1       -0.4521
     43 H          -7.1891    3.8562    1.3402 H       1  LIG1        0.1069
     44 O          -6.9033    8.3816    0.4804 O.3     1  LIG1       -0.4883
     45 C          -7.7022    8.6625   -0.6740 C.3     1  LIG1        0.0791
     46 H          -7.8090    9.7463   -0.7194 H       1  LIG1        0.0660
     47 H          -7.2089    8.2978   -1.5804 H       1  LIG1        0.0660
     48 H          -8.6847    8.1969   -0.5733 H       1  LIG1        0.0660
     49 O          -8.9645    6.2490    0.9620 O.3     1  LIG1       -0.5012
     50 H          -9.4313    5.4273    1.1533 H       1  LIG1        0.2924
@<TRIPOS>BOND
     1    22    20    1
     2    34    32    1
     3    11     8    1
     4    47    45    1
     5     6     1    1
     6    46    45    1
     7    20    21    1
     8    20    23    1
     9    20    19    1
    10    32    33    1
    11    32    35    1
    12    32    31    1
    13    45    48    1
    14    45    44    1
    15     8     9    1
    16     8     7    1
    17     8    10    1
    18     1     5   ar
    19     1     2   ar
    20     5     4   ar
    21     7     2    1
    22     2     3   ar
    23     4     3   ar
    24     4    14    1
    25     3    12    1
    26    14    18   ar
    27    14    15   ar
    28    18    17   ar
    29    15    19    1
    30    15    16   ar
    31    12    13    1
    32    17    16   ar
    33    17    26    1
    34    31    27    1
    35    16    24    1
    36    26    27   ar
    37    26    30   ar
    38    27    28   ar
    39    44    39    1
    40    30    29   ar
    41    28    29   ar
    42    28    36    1
    43    24    25    1
    44    29    38    1
    45    36    37    1
    46    39    38   ar
    47    39    40   ar
    48    38    42   ar
    49    40    49    1
    50    40    41   ar
    51    49    50    1
    52    42    41   ar
    53    41    43    1
