@<TRIPOS>MOLECULE
mol_data/opt/cam/geoms/mol2/12lf6eh-12hi-13id-.out
 51 54 0 0 0
SMALL
GASTEIGER

@<TRIPOS>ATOM
      1 C           0.3151    1.5238   -0.3843 C.ar    1  LIG1        0.1379
      2 C           1.6269    1.6693   -0.0507 C.ar    1  LIG1        0.2001
      3 C           1.8422    3.0733    0.1030 C.ar    1  LIG1        0.2054
      4 C           0.6466    3.6850   -0.1501 C.ar    1  LIG1        0.1825
      5 O          -0.2902    2.7393   -0.4408 O.2     1  LIG1       -0.4553
      6 H          -0.3056    0.6706   -0.5975 H       1  LIG1        0.1069
      7 O           2.6020    0.7564    0.1291 O.3     1  LIG1       -0.4888
      8 C           2.1959   -0.5844   -0.0540 C.3     1  LIG1        0.0791
      9 H           3.0726   -1.2060    0.1237 H       1  LIG1        0.0660
     10 H           1.4047   -0.8568    0.6554 H       1  LIG1        0.0660
     11 H           1.8318   -0.7502   -1.0756 H       1  LIG1        0.0660
     12 O           3.0388    3.6134    0.4484 O.3     1  LIG1       -0.5008
     13 H           2.8843    4.4823    0.8404 H       1  LIG1        0.2924
     14 C          -0.9468    5.6203    0.2421 C.ar    1  LIG1        0.1248
     15 C           0.2976    5.0981   -0.1683 C.ar    1  LIG1        0.0566
     16 C           1.2503    6.0159   -0.6174 C.ar    1  LIG1       -0.0254
     17 C           0.9819    7.3755   -0.6299 C.ar    1  LIG1        0.0548
     18 C          -0.2680    7.8044   -0.1326 C.ar    1  LIG1        0.1298
     19 N          -1.1977    6.9310    0.2526 N.ar    1  LIG1       -0.2327
     20 H           2.1925    5.6511   -1.0175 H       1  LIG1        0.0644
     21 C          -2.0105    4.7792    0.7170 C.1     1  LIG1       -0.0491
     22 C          -2.9131    4.1038    1.1359 C.1     1  LIG1       -0.1124
     23 H          -3.7095    3.4981    1.5019 H       1  LIG1        0.1232
     24 N           1.9105    8.3043   -1.1175 N.pl3   1  LIG1       -0.3562
     25 H           2.6464    7.8835   -1.6704 H       1  LIG1        0.1424
     26 H           1.4639    9.0584   -1.6293 H       1  LIG1        0.1424
     27 C          -0.6124    9.2174   -0.0339 C.ar    1  LIG1        0.1765
     28 C           0.0619   10.3508    0.3614 C.ar    1  LIG1        0.0762
     29 C          -0.9064   11.4099    0.4334 C.ar    1  LIG1        0.0181
     30 C          -2.0950   10.8473    0.0683 C.ar    1  LIG1        0.1568
     31 O          -1.9393    9.5297   -0.2045 O.2     1  LIG1       -0.4496
     32 N           1.3777   10.4828    0.7718 N.pl3   1  LIG1       -0.3548
     33 H           2.0040    9.7685    0.4154 H       1  LIG1        0.1424
     34 H           1.7509   11.4154    0.6695 H       1  LIG1        0.1424
     35 C          -0.6311   12.7856    0.9471 C.3     1  LIG1       -0.0343
     36 H          -1.5534   13.2817    1.2514 H       1  LIG1        0.0279
     37 H          -0.1406   13.4252    0.2045 H       1  LIG1        0.0279
     38 H           0.0236   12.7361    1.8230 H       1  LIG1        0.0279
     39 C          -3.4611   11.3179   -0.0331 C.ar    1  LIG1        0.0866
     40 C          -4.0265   12.5195   -0.4051 C.ar    1  LIG1       -0.0048
     41 C          -5.4421   12.3331   -0.3154 C.ar    1  LIG1        0.0726
     42 C          -5.6825   11.0337    0.0861 C.ar    1  LIG1        0.0200
     43 N          -4.4833   10.4352    0.2534 N.ar    1  LIG1       -0.3569
     44 H          -4.3222    9.4721    0.5075 H       1  LIG1        0.1655
     45 H          -6.6150   10.5180    0.2527 H       1  LIG1        0.0820
     46 C          -3.3441   13.7616   -0.8810 C.3     1  LIG1       -0.0364
     47 H          -3.9228   14.2312   -1.6802 H       1  LIG1        0.0279
     48 H          -2.3484   13.5372   -1.2683 H       1  LIG1        0.0279
     49 H          -3.2359   14.5057   -0.0853 H       1  LIG1        0.0279
     50 N          -7.2196   14.1172   -0.8712 N.1     1  LIG1       -0.1908
     51 C          -6.4307   13.3083   -0.6174 C.1     1  LIG1        0.1009
@<TRIPOS>BOND
     1    47    46    1
     2    25    24    1
     3    26    24    1
     4    48    46    1
     5    24    17    1
     6    11     8    1
     7    20    16    1
     8    46    40    1
     9    46    49    1
    10    50    51    3
    11    17    16   ar
    12    17    18   ar
    13    51    41    1
    14    16    15   ar
    15     6     1    1
    16     5     1   ar
    17     5     4   ar
    18    40    41   ar
    19    40    39   ar
    20     1     2   ar
    21    41    42   ar
    22    31    27   ar
    23    31    30   ar
    24    15     4    1
    25    15    14   ar
    26     4     3   ar
    27    18    27    1
    28    18    19   ar
    29     8     9    1
    30     8     7    1
    31     8    10    1
    32     2     3   ar
    33     2     7    1
    34    27    28   ar
    35    39    30    1
    36    39    43   ar
    37    30    29   ar
    38    42    45    1
    39    42    43   ar
    40     3    12    1
    41    37    35    1
    42    14    19   ar
    43    14    21    1
    44    43    44    1
    45    28    29   ar
    46    28    32    1
    47    33    32    1
    48    29    35    1
    49    12    13    1
    50    34    32    1
    51    21    22    3
    52    35    36    1
    53    35    38    1
    54    22    23    1
