@<TRIPOS>MOLECULE
mol_data/opt/cam/geoms/mol2/12lf12lf12lf12lf-.out
 50 53 0 0 0
SMALL
GASTEIGER

@<TRIPOS>ATOM
      1 C           0.5429    1.1037    0.6403 C.ar    1  LIG1        0.1381
      2 C           1.8565    1.1997    0.2983 C.ar    1  LIG1        0.2002
      3 C           2.0927    2.5707   -0.0401 C.ar    1  LIG1        0.2086
      4 C           0.8920    3.2091    0.1278 C.ar    1  LIG1        0.2184
      5 O          -0.0583    2.3208    0.5440 O.2     1  LIG1       -0.4521
      6 H          -0.0817    0.2868    0.9586 H       1  LIG1        0.1069
      7 O           2.8258    0.2640    0.2467 O.3     1  LIG1       -0.4888
      8 C           2.4082   -1.0374    0.6005 C.3     1  LIG1        0.0791
      9 H           3.2810   -1.6834    0.5129 H       1  LIG1        0.0660
     10 H           2.0352   -1.0658    1.6321 H       1  LIG1        0.0660
     11 H           1.6196   -1.3956   -0.0732 H       1  LIG1        0.0660
     12 O           3.2828    3.0407   -0.4459 O.3     1  LIG1       -0.5007
     13 H           3.2131    4.0076   -0.5676 H       1  LIG1        0.2924
     14 C           0.5140    4.5818   -0.0507 C.ar    1  LIG1        0.2196
     15 C           1.2584    5.7002   -0.3134 C.ar    1  LIG1        0.2117
     16 C           0.3485    6.7891   -0.4415 C.ar    1  LIG1        0.2094
     17 C          -0.8993    6.2600   -0.2318 C.ar    1  LIG1        0.2195
     18 O          -0.7992    4.9112   -0.0066 O.2     1  LIG1       -0.4407
     19 O           2.6172    5.7247   -0.4759 O.3     1  LIG1       -0.4883
     20 C           3.3043    6.6234    0.4021 C.3     1  LIG1        0.0791
     21 H           4.3628    6.5434    0.1560 H       1  LIG1        0.0660
     22 H           2.9588    7.6458    0.2382 H       1  LIG1        0.0660
     23 H           3.1429    6.3371    1.4461 H       1  LIG1        0.0660
     24 O           0.7181    8.0542   -0.7108 O.3     1  LIG1       -0.5007
     25 H          -0.0790    8.6220   -0.7183 H       1  LIG1        0.2924
     26 C          -2.1998    6.8567   -0.2256 C.ar    1  LIG1        0.2197
     27 C          -2.6077    8.1585   -0.3381 C.ar    1  LIG1        0.2117
     28 C          -4.0327    8.1466   -0.3391 C.ar    1  LIG1        0.2094
     29 C          -4.4025    6.8353   -0.2147 C.ar    1  LIG1        0.2194
     30 O          -3.2863    6.0470   -0.1538 O.2     1  LIG1       -0.4407
     31 O          -1.7717    9.2339   -0.4789 O.3     1  LIG1       -0.4883
     32 C          -1.9742   10.2740    0.4859 C.3     1  LIG1        0.0791
     33 H          -1.2597   11.0603    0.2436 H       1  LIG1        0.0660
     34 H          -2.9924   10.6603    0.4142 H       1  LIG1        0.0660
     35 H          -1.7882    9.8995    1.4973 H       1  LIG1        0.0660
     36 O          -4.8118    9.2460   -0.4305 O.3     1  LIG1       -0.5007
     37 H          -5.7363    8.9587   -0.3767 H       1  LIG1        0.2924
     38 C          -5.7072    6.2486   -0.1317 C.ar    1  LIG1        0.2186
     39 C          -6.2463    4.9993   -0.0056 C.ar    1  LIG1        0.2109
     40 C          -7.6686    5.1693    0.0468 C.ar    1  LIG1        0.1979
     41 C          -7.9217    6.4930   -0.0551 C.ar    1  LIG1        0.1379
     42 O          -6.7263    7.1651   -0.1731 O.2     1  LIG1       -0.4521
     43 H          -8.8186    7.0863   -0.0725 H       1  LIG1        0.1069
     44 O          -5.7259    3.7524    0.1155 O.3     1  LIG1       -0.4883
     45 C          -4.7118    3.3637   -0.8136 C.3     1  LIG1        0.0791
     46 H          -4.6213    2.2809   -0.7258 H       1  LIG1        0.0660
     47 H          -5.0055    3.6271   -1.8349 H       1  LIG1        0.0660
     48 H          -3.7571    3.8329   -0.5724 H       1  LIG1        0.0660
     49 O          -8.5408    4.1484    0.1724 O.3     1  LIG1       -0.5012
     50 H          -8.0086    3.3411    0.2311 H       1  LIG1        0.2924
@<TRIPOS>BOND
     1    47    45    1
     2    45    46    1
     3    45    48    1
     4    45    44    1
     5    25    24    1
     6    24    16    1
     7    13    12    1
     8    31    27    1
     9    31    32    1
    10    19    15    1
    11    19    20    1
    12    12     3    1
    13    16    15   ar
    14    16    17   ar
    15    36    37    1
    16    36    28    1
    17    28    27   ar
    18    28    29   ar
    19    27    26   ar
    20    15    14   ar
    21    17    26    1
    22    17    18   ar
    23    26    30   ar
    24    29    30   ar
    25    29    38    1
    26    42    38   ar
    27    42    41   ar
    28    38    39   ar
    29    11     8    1
    30    43    41    1
    31    41    40   ar
    32    14    18   ar
    33    14     4    1
    34     3     4   ar
    35     3     2   ar
    36    39    40   ar
    37    39    44    1
    38    40    49    1
    39     4     5   ar
    40    21    20    1
    41    49    50    1
    42    22    20    1
    43    33    32    1
    44     7     2    1
    45     7     8    1
    46     2     1   ar
    47    20    23    1
    48    34    32    1
    49    32    35    1
    50     9     8    1
    51     5     1   ar
    52     8    10    1
    53     1     6    1
