@<TRIPOS>MOLECULE
mol_data/opt/cam/geoms/mol2/12lf12lf-12lf-12lf.out
 50 53 0 0 0
SMALL
GASTEIGER

@<TRIPOS>ATOM
      1 C          -0.0996    2.1577    0.1630 C.ar    1  LIG1        0.1381
      2 C           1.2555    2.2665    0.1113 C.ar    1  LIG1        0.2002
      3 C           1.5586    3.6650    0.1714 C.ar    1  LIG1        0.2086
      4 C           0.3525    4.3063    0.2556 C.ar    1  LIG1        0.2184
      5 O          -0.6654    3.3980    0.2555 O.2     1  LIG1       -0.4521
      6 H          -0.7791    1.3234    0.1534 H       1  LIG1        0.1069
      7 O           2.2115    1.3220    0.0207 O.3     1  LIG1       -0.4888
      8 C           1.7304   -0.0056   -0.0151 C.3     1  LIG1        0.0791
      9 H           2.6025   -0.6548   -0.0834 H       1  LIG1        0.0660
     10 H           1.1670   -0.2450    0.8953 H       1  LIG1        0.0660
     11 H           1.0851   -0.1678   -0.8875 H       1  LIG1        0.0660
     12 O           2.8115    4.1578    0.1447 O.3     1  LIG1       -0.5007
     13 H           2.7851    5.1194    0.2729 H       1  LIG1        0.2924
     14 C           0.0821    5.7113    0.3419 C.ar    1  LIG1        0.2196
     15 C          -0.9919    6.5589    0.3587 C.ar    1  LIG1        0.2117
     16 C          -0.4741    7.8882    0.4465 C.ar    1  LIG1        0.2094
     17 C           0.8855    7.7899    0.4855 C.ar    1  LIG1        0.2195
     18 O           1.2197    6.4583    0.4154 O.2     1  LIG1       -0.4407
     19 O          -2.3356    6.3525    0.3290 O.3     1  LIG1       -0.4883
     20 C          -2.8228    5.5736   -0.7628 C.3     1  LIG1        0.0791
     21 H          -3.9107    5.5992   -0.6944 H       1  LIG1        0.0660
     22 H          -2.5039    6.0036   -1.7183 H       1  LIG1        0.0660
     23 H          -2.4736    4.5415   -0.6907 H       1  LIG1        0.0660
     24 O          -1.2362    8.9995    0.4575 O.3     1  LIG1       -0.5007
     25 H          -2.1568    8.6980    0.4515 H       1  LIG1        0.2924
     26 C           2.0029    8.6852    0.5161 C.ar    1  LIG1        0.2197
     27 C           2.1675   10.0286    0.7239 C.ar    1  LIG1        0.2117
     28 C           3.5704   10.2806    0.6028 C.ar    1  LIG1        0.2094
     29 C           4.1607    9.0741    0.3495 C.ar    1  LIG1        0.2194
     30 O           3.2103    8.0988    0.2986 O.2     1  LIG1       -0.4407
     31 O           1.1960   10.9108    1.0557 O.3     1  LIG1       -0.4883
     32 C           0.9814   11.9411    0.0981 C.3     1  LIG1        0.0791
     33 H           0.2128   12.5925    0.5143 H       1  LIG1        0.0660
     34 H           1.8959   12.5167   -0.0741 H       1  LIG1        0.0660
     35 H           0.6258   11.5206   -0.8489 H       1  LIG1        0.0660
     36 O           4.1435   11.4987    0.7313 O.3     1  LIG1       -0.5007
     37 H           5.0981   11.3966    0.6072 H       1  LIG1        0.2924
     38 C           5.5274    8.6985    0.1580 C.ar    1  LIG1        0.2186
     39 C           6.1650    7.5005    0.0146 C.ar    1  LIG1        0.2109
     40 C           7.5619    7.8108   -0.1141 C.ar    1  LIG1        0.1979
     41 C           7.6779    9.1598   -0.0370 C.ar    1  LIG1        0.1379
     42 O           6.4352    9.7178    0.1386 O.2     1  LIG1       -0.4521
     43 H           8.5118    9.8405   -0.0798 H       1  LIG1        0.1069
     44 O           5.5785    6.2819    0.0770 O.3     1  LIG1       -0.4883
     45 C           5.8045    5.4310   -1.0459 C.3     1  LIG1        0.0791
     46 H           5.1888    4.5471   -0.8800 H       1  LIG1        0.0660
     47 H           5.4921    5.9244   -1.9731 H       1  LIG1        0.0660
     48 H           6.8585    5.1502   -1.1208 H       1  LIG1        0.0660
     49 O           8.5102    6.8550   -0.2764 O.3     1  LIG1       -0.5012
     50 H           9.3812    7.2662   -0.3178 H       1  LIG1        0.2924
@<TRIPOS>BOND
     1    47    45    1
     2    22    20    1
     3    48    45    1
     4    45    46    1
     5    45    44    1
     6    11     8    1
     7    35    32    1
     8    20    21    1
     9    20    23    1
    10    20    19    1
    11    50    49    1
    12    49    40    1
    13    40    41   ar
    14    40    39   ar
    15     9     8    1
    16    43    41    1
    17    34    32    1
    18    41    42   ar
    19     8     7    1
    20     8    10    1
    21    39    44    1
    22    39    38   ar
    23     7     2    1
    24    32    33    1
    25    32    31    1
    26     2     1   ar
    27     2     3   ar
    28    42    38   ar
    29    12     3    1
    30    12    13    1
    31     6     1    1
    32    38    29    1
    33     1     5   ar
    34     3     4   ar
    35     5     4   ar
    36     4    14    1
    37    30    29   ar
    38    30    26   ar
    39    19    15    1
    40    14    15   ar
    41    14    18   ar
    42    29    28   ar
    43    15    16   ar
    44    18    17   ar
    45    16    24    1
    46    16    17   ar
    47    25    24    1
    48    17    26    1
    49    26    27   ar
    50    28    27   ar
    51    28    36    1
    52    37    36    1
    53    27    31    1
