@<TRIPOS>MOLECULE
mol_data/opt/cam/geoms/mol2/12lf12lf.out
 26 27 0 0 0
SMALL
GASTEIGER

@<TRIPOS>ATOM
      1 C           0.3987    1.8407   -0.7673 C.ar    1  LIG1        0.1381
      2 C           1.3489    1.7414    0.2027 C.ar    1  LIG1        0.2002
      3 C           1.5256    3.0636    0.7165 C.ar    1  LIG1        0.2086
      4 C           0.6889    3.8764    0.0142 C.ar    1  LIG1        0.2184
      5 O          -0.0118    3.1290   -0.8970 O.2     1  LIG1       -0.4521
      6 H          -0.0705    1.1202   -1.4157 H       1  LIG1        0.1069
      7 O           2.0320    0.6758    0.6686 O.3     1  LIG1       -0.4888
      8 C           1.6999   -0.5517    0.0539 C.3     1  LIG1        0.0791
      9 H           2.3176   -1.3164    0.5234 H       1  LIG1        0.0660
     10 H           0.6406   -0.7944    0.2045 H       1  LIG1        0.0660
     11 H           1.9093   -0.5236   -1.0228 H       1  LIG1        0.0660
     12 O           2.3990    3.3798    1.7016 O.3     1  LIG1       -0.5007
     13 H           2.2212    4.2886    1.9811 H       1  LIG1        0.2924
     14 C           0.4402    5.2971    0.1157 C.ar    1  LIG1        0.2186
     15 C           1.2063    6.4217   -0.0627 C.ar    1  LIG1        0.2109
     16 C           0.3710    7.5418    0.2573 C.ar    1  LIG1        0.1979
     17 C          -0.8395    7.0322    0.5920 C.ar    1  LIG1        0.1379
     18 O          -0.8186    5.6789    0.5183 O.2     1  LIG1       -0.4521
     19 H          -1.7726    7.4885    0.8828 H       1  LIG1        0.1069
     20 O           2.4747    6.6139   -0.4662 O.3     1  LIG1       -0.4883
     21 C           3.1807    5.5016   -0.9934 C.3     1  LIG1        0.0791
     22 H           4.1100    5.9026   -1.3972 H       1  LIG1        0.0660
     23 H           3.4088    4.7684   -0.2140 H       1  LIG1        0.0660
     24 H           2.6111    5.0152   -1.7916 H       1  LIG1        0.0660
     25 O           0.8171    8.8194    0.1867 O.3     1  LIG1       -0.5012
     26 H           0.0969    9.4208    0.4075 H       1  LIG1        0.2924
@<TRIPOS>BOND
     1    24    21    1
     2     6     1    1
     3    22    21    1
     4    11     8    1
     5    21    20    1
     6    21    23    1
     7     5     1   ar
     8     5     4   ar
     9     1     2   ar
    10    20    15    1
    11    15    14   ar
    12    15    16   ar
    13     4    14    1
    14     4     3   ar
    15     8    10    1
    16     8     9    1
    17     8     7    1
    18    14    18   ar
    19    25    16    1
    20    25    26    1
    21     2     7    1
    22     2     3   ar
    23    16    17   ar
    24    18    17   ar
    25    17    19    1
    26     3    12    1
    27    12    13    1
