@<TRIPOS>MOLECULE
mol_data/opt/cam/geoms/mol2/12lf12lf-12lf.out
 38 40 0 0 0
SMALL
GASTEIGER

@<TRIPOS>ATOM
      1 C          -0.1313    1.7663   -0.0008 C.ar    1  LIG1        0.1381
      2 C           1.2293    1.7262   -0.0002 C.ar    1  LIG1        0.2002
      3 C           1.6717    3.0852   -0.0000 C.ar    1  LIG1        0.2086
      4 C           0.5430    3.8552   -0.0005 C.ar    1  LIG1        0.2184
      5 O          -0.5627    3.0596   -0.0010 O.2     1  LIG1       -0.4521
      6 H          -0.8959    1.0090   -0.0011 H       1  LIG1        0.1069
      7 O           2.0827    0.6823    0.0002 O.3     1  LIG1       -0.4888
      8 C           1.4623   -0.5862   -0.0001 C.3     1  LIG1        0.0791
      9 H           2.2604   -1.3276    0.0003 H       1  LIG1        0.0660
     10 H           0.8386   -0.7203    0.8926 H       1  LIG1        0.0660
     11 H           0.8394   -0.7203   -0.8933 H       1  LIG1        0.0660
     12 O           2.9686    3.4652    0.0006 O.3     1  LIG1       -0.5007
     13 H           2.9864    4.4306    0.0006 H       1  LIG1        0.2924
     14 C           0.3824    5.2797   -0.0006 C.ar    1  LIG1        0.2196
     15 C          -0.6994    6.1108   -0.0008 C.ar    1  LIG1        0.2117
     16 C          -0.1821    7.4510   -0.0008 C.ar    1  LIG1        0.2094
     17 C           1.1858    7.3500   -0.0005 C.ar    1  LIG1        0.2194
     18 O           1.5318    6.0247   -0.0004 O.2     1  LIG1       -0.4407
     19 O          -1.9708    5.6312   -0.0010 O.3     1  LIG1       -0.4883
     20 C          -3.0494    6.5354    0.0014 C.3     1  LIG1        0.0791
     21 H          -3.9553    5.9295    0.0025 H       1  LIG1        0.0660
     22 H          -3.0610    7.1607    0.9047 H       1  LIG1        0.0660
     23 H          -3.0641    7.1618   -0.9012 H       1  LIG1        0.0660
     24 O          -0.8569    8.6295   -0.0010 O.3     1  LIG1       -0.5007
     25 H          -1.8022    8.4624   -0.0024 H       1  LIG1        0.2924
     26 C           2.1945    8.3873   -0.0004 C.ar    1  LIG1        0.2186
     27 C           3.5670    8.5278   -0.0002 C.ar    1  LIG1        0.2109
     28 C           3.8273    9.9376   -0.0003 C.ar    1  LIG1        0.1979
     29 C           2.6279   10.5614   -0.0007 C.ar    1  LIG1        0.1379
     30 O           1.6345    9.6378   -0.0007 O.2     1  LIG1       -0.4521
     31 H           2.3269   11.5963   -0.0009 H       1  LIG1        0.1069
     32 O           4.6388    7.7078    0.0002 O.3     1  LIG1       -0.4883
     33 C           4.4757    6.3110    0.0007 C.3     1  LIG1        0.0791
     34 H           5.4803    5.8882    0.0011 H       1  LIG1        0.0660
     35 H           3.9466    5.9733    0.8991 H       1  LIG1        0.0660
     36 H           3.9469    5.9725   -0.8975 H       1  LIG1        0.0660
     37 O           5.0914   10.4254   -0.0002 O.3     1  LIG1       -0.5012
     38 H           5.0579   11.3886   -0.0003 H       1  LIG1        0.2924
@<TRIPOS>BOND
     1    23    20    1
     2    36    33    1
     3    11     8    1
     4    25    24    1
     5     6     1    1
     6    19    15    1
     7    19    20    1
     8     5     1   ar
     9     5     4   ar
    10    24    16    1
    11    31    29    1
    12    16    15   ar
    13    16    17   ar
    14    15    14   ar
    15     1     2   ar
    16    30    29   ar
    17    30    26   ar
    18    29    28   ar
    19    14     4    1
    20    14    18   ar
    21     4     3   ar
    22    17    26    1
    23    17    18   ar
    24    26    27   ar
    25    28    37    1
    26    28    27   ar
    27    38    37    1
    28     2     3   ar
    29     2     7    1
    30    27    32    1
    31     8     7    1
    32     8     9    1
    33     8    10    1
    34     3    12    1
    35    32    33    1
    36    12    13    1
    37    33    34    1
    38    33    35    1
    39    20    21    1
    40    20    22    1
