@<TRIPOS>MOLECULE
mol_data/opt/cam/geoms/mol2/12lf12lf-12lf12lf.out
 50 53 0 0 0
SMALL
GASTEIGER

@<TRIPOS>ATOM
      1 C          -0.2364    1.7598   -0.0242 C.ar    1  LIG1        0.1381
      2 C           1.0950    1.9439   -0.2351 C.ar    1  LIG1        0.2002
      3 C           1.3274    3.3577   -0.2033 C.ar    1  LIG1        0.2086
      4 C           0.1044    3.9288    0.0287 C.ar    1  LIG1        0.2184
      5 O          -0.8561    2.9663    0.1414 O.2     1  LIG1       -0.4521
      6 H          -0.8652    0.8887    0.0367 H       1  LIG1        0.1069
      7 O           2.0835    1.0525   -0.4429 O.3     1  LIG1       -0.4888
      8 C           1.6721   -0.2984   -0.4416 C.3     1  LIG1        0.0791
      9 H           2.5635   -0.8993   -0.6174 H       1  LIG1        0.0660
     10 H           1.2294   -0.5750    0.5235 H       1  LIG1        0.0660
     11 H           0.9406   -0.4887   -1.2370 H       1  LIG1        0.0660
     12 O           2.5378    3.9159   -0.3774 O.3     1  LIG1       -0.5007
     13 H           2.4698    4.8860   -0.3357 H       1  LIG1        0.2924
     14 C          -0.2146    5.3175    0.1778 C.ar    1  LIG1        0.2196
     15 C          -1.2993    6.1295    0.3687 C.ar    1  LIG1        0.2117
     16 C          -0.8097    7.4715    0.4381 C.ar    1  LIG1        0.2094
     17 C           0.5448    7.4141    0.2816 C.ar    1  LIG1        0.2195
     18 O           0.8981    6.0994    0.1162 O.2     1  LIG1       -0.4407
     19 O          -2.6274    5.8816    0.5225 O.3     1  LIG1       -0.4883
     20 C          -3.2322    5.0824   -0.4928 C.3     1  LIG1        0.0791
     21 H          -4.3005    5.0687   -0.2751 H       1  LIG1        0.0660
     22 H          -3.0636    5.5207   -1.4823 H       1  LIG1        0.0660
     23 H          -2.8390    4.0637   -0.4721 H       1  LIG1        0.0660
     24 O          -1.5893    8.5538    0.6258 O.3     1  LIG1       -0.5007
     25 H          -2.4952    8.2244    0.7207 H       1  LIG1        0.2924
     26 C           1.6423    8.3301    0.2460 C.ar    1  LIG1        0.2197
     27 C           2.9849    8.1018    0.0863 C.ar    1  LIG1        0.2117
     28 C           3.6157    9.3821    0.1135 C.ar    1  LIG1        0.2094
     29 C           2.6111   10.2992    0.2893 C.ar    1  LIG1        0.2194
     30 O           1.4026    9.6577    0.3558 O.2     1  LIG1       -0.4407
     31 O           3.5717    6.8890   -0.1096 O.3     1  LIG1       -0.4883
     32 C           4.6097    6.5698    0.8187 C.3     1  LIG1        0.0791
     33 H           4.9425    5.5633    0.5651 H       1  LIG1        0.0660
     34 H           5.4394    7.2749    0.7319 H       1  LIG1        0.0660
     35 H           4.2248    6.5793    1.8441 H       1  LIG1        0.0660
     36 O           4.9443    9.5684    0.0039 O.3     1  LIG1       -0.5007
     37 H           5.1286   10.5288   -0.0294 H       1  LIG1        0.2924
     38 C           2.6386   11.7305    0.3871 C.ar    1  LIG1        0.2186
     39 C           3.6479   12.6264    0.1694 C.ar    1  LIG1        0.2109
     40 C           3.1214   13.9196    0.4721 C.ar    1  LIG1        0.1979
     41 C           1.8304   13.7250    0.8442 C.ar    1  LIG1        0.1379
     42 O           1.5342   12.3899    0.8064 O.2     1  LIG1       -0.4521
     43 H           1.0354   14.3860    1.1469 H       1  LIG1        0.1069
     44 O           4.9242   12.3124   -0.2206 O.3     1  LIG1       -0.4883
     45 C           5.3133   12.8828   -1.4751 C.3     1  LIG1        0.0791
     46 H           6.3359   12.5539   -1.6599 H       1  LIG1        0.0660
     47 H           4.6577   12.5296   -2.2769 H       1  LIG1        0.0660
     48 H           5.2783   13.9728   -1.4187 H       1  LIG1        0.0660
     49 O           3.8547   15.0565    0.3566 O.3     1  LIG1       -0.5012
     50 H           3.3137   15.8155    0.6029 H       1  LIG1        0.2924
@<TRIPOS>BOND
     1    47    45    1
     2    46    45    1
     3    22    20    1
     4    45    48    1
     5    45    44    1
     6    11     8    1
     7     9     8    1
     8    20    23    1
     9    20    21    1
    10    20    19    1
    11     7     8    1
    12     7     2    1
    13     8    10    1
    14    12    13    1
    15    12     3    1
    16     2     3   ar
    17     2     1   ar
    18    44    39    1
    19     3     4   ar
    20    31    27    1
    21    31    32    1
    22    37    36    1
    23     1     6    1
    24     1     5   ar
    25    36    28    1
    26     4     5   ar
    27     4    14    1
    28    27    28   ar
    29    27    26   ar
    30    28    29   ar
    31    18    14   ar
    32    18    17   ar
    33    39    38   ar
    34    39    40   ar
    35    14    15   ar
    36    26    17    1
    37    26    30   ar
    38    17    16   ar
    39    29    30   ar
    40    29    38    1
    41    49    40    1
    42    49    50    1
    43    15    16   ar
    44    15    19    1
    45    38    42   ar
    46    16    24    1
    47    40    41   ar
    48    33    32    1
    49    24    25    1
    50    34    32    1
    51    42    41   ar
    52    32    35    1
    53    41    43    1
