@<TRIPOS>MOLECULE
mol_data/opt/cam/geoms/mol2/12lf12lf12lf-12lf-.out
 50 53 0 0 0
SMALL
GASTEIGER

@<TRIPOS>ATOM
      1 C           1.6129    1.8523   -0.7306 C.ar    1  LIG1        0.1381
      2 C           0.5419    1.5537    0.0559 C.ar    1  LIG1        0.2002
      3 C          -0.1672    2.7797    0.2536 C.ar    1  LIG1        0.2086
      4 C           0.5301    3.7332   -0.4369 C.ar    1  LIG1        0.2184
      5 O           1.6185    3.1801   -1.0366 O.2     1  LIG1       -0.4521
      6 H           2.4194    1.2671   -1.1372 H       1  LIG1        0.1069
      7 O           0.1400    0.3847    0.5930 O.3     1  LIG1       -0.4888
      8 C           0.9695   -0.7188    0.2932 C.3     1  LIG1        0.0791
      9 H           0.5306   -1.5856    0.7857 H       1  LIG1        0.0660
     10 H           1.0137   -0.8962   -0.7885 H       1  LIG1        0.0660
     11 H           1.9874   -0.5606    0.6707 H       1  LIG1        0.0660
     12 O          -1.2912    2.8966    0.9927 O.3     1  LIG1       -0.5007
     13 H          -1.5064    3.8372    1.0731 H       1  LIG1        0.2924
     14 C           0.2538    5.1312   -0.5744 C.ar    1  LIG1        0.2196
     15 C           0.8715    6.2139   -1.1370 C.ar    1  LIG1        0.2117
     16 C           0.0152    7.3379   -0.8940 C.ar    1  LIG1        0.2094
     17 C          -1.0638    6.8688   -0.2008 C.ar    1  LIG1        0.2195
     18 O          -0.9328    5.5179   -0.0097 O.2     1  LIG1       -0.4407
     19 O           2.0283    6.1905   -1.8360 O.3     1  LIG1       -0.4883
     20 C           3.0321    7.0855   -1.3631 C.3     1  LIG1        0.0791
     21 H           3.3238    6.8337   -0.3376 H       1  LIG1        0.0660
     22 H           3.8888    6.9578   -2.0247 H       1  LIG1        0.0660
     23 H           2.6881    8.1222   -1.4014 H       1  LIG1        0.0660
     24 O           0.2761    8.5985   -1.2933 O.3     1  LIG1       -0.5007
     25 H          -0.4315    9.1783   -0.9723 H       1  LIG1        0.2924
     26 C          -2.2285    7.5240    0.2960 C.ar    1  LIG1        0.2197
     27 C          -3.3529    7.1222    0.9579 C.ar    1  LIG1        0.2117
     28 C          -4.1143    8.3008    1.2161 C.ar    1  LIG1        0.2094
     29 C          -3.4453    9.3560    0.6741 C.ar    1  LIG1        0.2194
     30 O          -2.2800    8.8684    0.0985 O.2     1  LIG1       -0.4407
     31 O          -3.7294    5.8873    1.3990 O.3     1  LIG1       -0.4883
     32 C          -4.1817    4.9976    0.3738 C.3     1  LIG1        0.0791
     33 H          -4.5320    4.0974    0.8794 H       1  LIG1        0.0660
     34 H          -5.0012    5.4444   -0.1985 H       1  LIG1        0.0660
     35 H          -3.3640    4.7370   -0.3033 H       1  LIG1        0.0660
     36 O          -5.2899    8.3214    1.8835 O.3     1  LIG1       -0.5007
     37 H          -5.4214    7.4333    2.2468 H       1  LIG1        0.2924
     38 C          -3.6491   10.7805    0.6280 C.ar    1  LIG1        0.2186
     39 C          -4.7071   11.6088    0.3706 C.ar    1  LIG1        0.2109
     40 C          -4.2448   12.9480    0.5620 C.ar    1  LIG1        0.1979
     41 C          -2.9386   12.8608    0.9051 C.ar    1  LIG1        0.1379
     42 O          -2.5623   11.5529    0.9534 O.2     1  LIG1       -0.4521
     43 H          -2.1825   13.5962    1.1209 H       1  LIG1        0.1069
     44 O          -5.9893   11.4223   -0.0160 O.3     1  LIG1       -0.4883
     45 C          -6.3199   10.1938   -0.6499 C.3     1  LIG1        0.0791
     46 H          -7.3206   10.3258   -1.0616 H       1  LIG1        0.0660
     47 H          -5.6167    9.9756   -1.4605 H       1  LIG1        0.0660
     48 H          -6.3255    9.3728    0.0704 H       1  LIG1        0.0660
     49 O          -5.0046   14.0542    0.3934 O.3     1  LIG1       -0.5012
     50 H          -5.8790   13.7526    0.1103 H       1  LIG1        0.2924
@<TRIPOS>BOND
     1    22    20    1
     2    19    20    1
     3    19    15    1
     4    47    45    1
     5    23    20    1
     6    20    21    1
     7    24    25    1
     8    24    16    1
     9     6     1    1
    10    15    16   ar
    11    15    14   ar
    12    46    45    1
    13     5     1   ar
    14     5     4   ar
    15    16    17   ar
    16    10     8    1
    17     1     2   ar
    18    45    44    1
    19    45    48    1
    20    14     4    1
    21    14    18   ar
    22     4     3   ar
    23    35    32    1
    24    17    18   ar
    25    17    26    1
    26    34    32    1
    27    44    39    1
    28     2     3   ar
    29     2     7    1
    30    30    26   ar
    31    30    29   ar
    32    50    49    1
    33     3    12    1
    34     8     7    1
    35     8    11    1
    36     8     9    1
    37    26    27   ar
    38    39    40   ar
    39    39    38   ar
    40    32    33    1
    41    32    31    1
    42    49    40    1
    43    40    41   ar
    44    38    29    1
    45    38    42   ar
    46    29    28   ar
    47    41    42   ar
    48    41    43    1
    49    27    28   ar
    50    27    31    1
    51    12    13    1
    52    28    36    1
    53    36    37    1
