@<TRIPOS>MOLECULE
mol_data/opt/cam/geoms/mol2/12lf12lf12lf-12lf.out
 50 53 0 0 0
SMALL
GASTEIGER

@<TRIPOS>ATOM
      1 C           0.0931    1.2506    0.0181 C.ar    1  LIG1        0.1381
      2 C           1.4095    1.4224    0.3164 C.ar    1  LIG1        0.2002
      3 C           1.6150    2.8311    0.4727 C.ar    1  LIG1        0.2086
      4 C           0.3951    3.4128    0.2527 C.ar    1  LIG1        0.2184
      5 O          -0.5393    2.4563   -0.0281 O.2     1  LIG1       -0.4521
      6 H          -0.5157    0.3845   -0.1764 H       1  LIG1        0.1069
      7 O           2.4044    0.5253    0.4653 O.3     1  LIG1       -0.4888
      8 C           2.0148   -0.8212    0.2960 C.3     1  LIG1        0.0791
      9 H           2.9065   -1.4288    0.4463 H       1  LIG1        0.0660
     10 H           1.2507   -1.1061    1.0300 H       1  LIG1        0.0660
     11 H           1.6211   -0.9945   -0.7135 H       1  LIG1        0.0660
     12 O           2.7991    3.3799    0.7884 O.3     1  LIG1       -0.5007
     13 H           2.7055    4.3522    0.7824 H       1  LIG1        0.2924
     14 C          -0.0182    4.7863    0.2608 C.ar    1  LIG1        0.2196
     15 C           0.6909    5.9528    0.3485 C.ar    1  LIG1        0.2117
     16 C          -0.2542    7.0216    0.3459 C.ar    1  LIG1        0.2094
     17 C          -1.4860    6.4262    0.2466 C.ar    1  LIG1        0.2195
     18 O          -1.3460    5.0663    0.2136 O.2     1  LIG1       -0.4407
     19 O           2.0511    6.0352    0.4694 O.3     1  LIG1       -0.4883
     20 C           2.6903    6.8408   -0.5270 C.3     1  LIG1        0.0791
     21 H           3.7557    6.8224   -0.2988 H       1  LIG1        0.0660
     22 H           2.5169    6.4252   -1.5246 H       1  LIG1        0.0660
     23 H           2.3152    7.8647   -0.4797 H       1  LIG1        0.0660
     24 O           0.0805    8.3250    0.4148 O.3     1  LIG1       -0.5007
     25 H          -0.7205    8.8791    0.4475 H       1  LIG1        0.2924
     26 C          -2.7761    7.0405    0.1930 C.ar    1  LIG1        0.2197
     27 C          -4.1010    6.7023    0.1287 C.ar    1  LIG1        0.2117
     28 C          -4.8432    7.9259    0.1417 C.ar    1  LIG1        0.2094
     29 C          -3.9409    8.9455    0.2111 C.ar    1  LIG1        0.2194
     30 O          -2.6825    8.4003    0.2313 O.2     1  LIG1       -0.4407
     31 O          -4.7662    5.5192    0.1006 O.3     1  LIG1       -0.4883
     32 C          -4.3007    4.5412   -0.8298 C.3     1  LIG1        0.0791
     33 H          -5.0444    3.7441   -0.8284 H       1  LIG1        0.0660
     34 H          -4.2242    4.9712   -1.8342 H       1  LIG1        0.0660
     35 H          -3.3309    4.1407   -0.5284 H       1  LIG1        0.0660
     36 O          -6.1874    7.9943    0.0892 O.3     1  LIG1       -0.5007
     37 H          -6.5061    7.0798    0.0638 H       1  LIG1        0.2924
     38 C          -3.9654   10.3770    0.2443 C.ar    1  LIG1        0.2186
     39 C          -2.9401   11.2835    0.2626 C.ar    1  LIG1        0.2109
     40 C          -3.5565   12.5747    0.3250 C.ar    1  LIG1        0.1979
     41 C          -4.8974   12.3620    0.3361 C.ar    1  LIG1        0.1379
     42 O          -5.1548   11.0204    0.2971 O.2     1  LIG1       -0.4521
     43 H          -5.7532   13.0154    0.3748 H       1  LIG1        0.1069
     44 O          -1.6082   10.9934    0.2785 O.3     1  LIG1       -0.4883
     45 C          -0.8576   11.5893   -0.7791 C.3     1  LIG1        0.0791
     46 H           0.1671   11.2364   -0.6607 H       1  LIG1        0.0660
     47 H          -1.2436   11.2712   -1.7537 H       1  LIG1        0.0660
     48 H          -0.8859   12.6795   -0.7122 H       1  LIG1        0.0660
     49 O          -2.8438   13.7303    0.3588 O.3     1  LIG1       -0.5012
     50 H          -3.4478   14.4796    0.4160 H       1  LIG1        0.2924
@<TRIPOS>BOND
     1    34    32    1
     2    47    45    1
     3    22    20    1
     4    32    33    1
     5    32    35    1
     6    32    31    1
     7    45    48    1
     8    45    46    1
     9    45    44    1
    10    11     8    1
    11    20    23    1
    12    20    21    1
    13    20    19    1
    14     6     1    1
    15     5     1   ar
    16     5     4   ar
    17     1     2   ar
    18    37    36    1
    19    36    28    1
    20    31    27    1
    21    27    28   ar
    22    27    26   ar
    23    28    29   ar
    24    26    30   ar
    25    26    17    1
    26    29    30   ar
    27    29    38    1
    28    18    17   ar
    29    18    14   ar
    30    38    39   ar
    31    38    42   ar
    32    17    16   ar
    33     4    14    1
    34     4     3   ar
    35    14    15   ar
    36    39    44    1
    37    39    40   ar
    38     8     9    1
    39     8     7    1
    40     8    10    1
    41    42    41   ar
    42     2     7    1
    43     2     3   ar
    44    40    41   ar
    45    40    49    1
    46    41    43    1
    47    16    15   ar
    48    16    24    1
    49    15    19    1
    50    49    50    1
    51    24    25    1
    52     3    12    1
    53    13    12    1
