@<TRIPOS>MOLECULE
mol_data/opt/cam/geoms/mol2/12lf.out
 14 14 0 0 0
SMALL
GASTEIGER

@<TRIPOS>ATOM
      1 C           0.0628    1.9466   -0.0000 C.ar    1  LIG1        0.1370
      2 C           1.4215    1.8925    0.0000 C.ar    1  LIG1        0.1994
      3 C           1.8783    3.2520   -0.0000 C.ar    1  LIG1        0.1971
      4 C           0.7641    4.0253   -0.0001 C.ar    1  LIG1        0.1368
      5 O          -0.3508    3.2437   -0.0001 O.2     1  LIG1       -0.4635
      6 H          -0.7092    1.1963    0.0000 H       1  LIG1        0.1069
      7 H           0.6080    5.0921   -0.0001 H       1  LIG1        0.1069
      8 O           2.2670    0.8414    0.0000 O.3     1  LIG1       -0.4888
      9 C           1.6346   -0.4211    0.0001 C.3     1  LIG1        0.0791
     10 H           2.4257   -1.1701    0.0001 H       1  LIG1        0.0660
     11 H           1.0099   -0.5494    0.8929 H       1  LIG1        0.0660
     12 H           1.0099   -0.5495   -0.8928 H       1  LIG1        0.0660
     13 O           3.1941    3.5798   -0.0000 O.3     1  LIG1       -0.5012
     14 H           3.2819    4.5396   -0.0000 H       1  LIG1        0.2924
@<TRIPOS>BOND
     1    12     9    1
     2     5     4   ar
     3     5     1   ar
     4     7     4    1
     5     4     3   ar
     6     3    13    1
     7     3     2   ar
     8    14    13    1
     9     1     2   ar
    10     1     6    1
    11     2     8    1
    12     8     9    1
    13     9    10    1
    14     9    11    1
