@<TRIPOS>MOLECULE
mol_data/opt/cam/geoms/mol2/12lf12lf-12lf-12lf-.out
 50 53 0 0 0
SMALL
GASTEIGER

@<TRIPOS>ATOM
      1 C           0.1475    1.8365   -0.0001 C.ar    1  LIG1        0.1381
      2 C           1.5057    1.9300   -0.0002 C.ar    1  LIG1        0.2002
      3 C           1.8185    3.3262   -0.0001 C.ar    1  LIG1        0.2086
      4 C           0.6151    3.9781   -0.0000 C.ar    1  LIG1        0.2184
      5 O          -0.4096    3.0809   -0.0001 O.2     1  LIG1       -0.4521
      6 H          -0.5385    1.0074   -0.0002 H       1  LIG1        0.1069
      7 O           2.4546    0.9713   -0.0003 O.3     1  LIG1       -0.4888
      8 C           1.9572   -0.3494   -0.0003 C.3     1  LIG1        0.0791
      9 H           2.8218   -1.0124   -0.0004 H       1  LIG1        0.0660
     10 H           1.3491   -0.5427    0.8925 H       1  LIG1        0.0660
     11 H           1.3490   -0.5426   -0.8931 H       1  LIG1        0.0660
     12 O           3.0741    3.8150   -0.0001 O.3     1  LIG1       -0.5007
     13 H           3.0365    4.7834   -0.0001 H       1  LIG1        0.2924
     14 C           0.3484    5.3841    0.0000 C.ar    1  LIG1        0.2196
     15 C          -0.7640    6.1783    0.0001 C.ar    1  LIG1        0.2117
     16 C          -0.2922    7.5372    0.0002 C.ar    1  LIG1        0.2094
     17 C           1.0771    7.4780    0.0001 C.ar    1  LIG1        0.2195
     18 O           1.4626    6.1654    0.0000 O.2     1  LIG1       -0.4407
     19 O          -2.0201    5.6546    0.0002 O.3     1  LIG1       -0.4883
     20 C          -3.1233    6.5264   -0.0001 C.3     1  LIG1        0.0791
     21 H          -4.0125    5.8960   -0.0002 H       1  LIG1        0.0660
     22 H          -3.1545    7.1527    0.9026 H       1  LIG1        0.0660
     23 H          -3.1541    7.1526   -0.9028 H       1  LIG1        0.0660
     24 O          -0.9954    8.7002    0.0003 O.3     1  LIG1       -0.5007
     25 H          -1.9367    8.5121    0.0005 H       1  LIG1        0.2924
     26 C           2.1596    8.4212    0.0001 C.ar    1  LIG1        0.2197
     27 C           2.2667    9.7878    0.0001 C.ar    1  LIG1        0.2117
     28 C           3.6713   10.0839    0.0001 C.ar    1  LIG1        0.2094
     29 C           4.3220    8.8773    0.0001 C.ar    1  LIG1        0.2194
     30 O           3.4025    7.8726    0.0002 O.2     1  LIG1       -0.4407
     31 O           1.1779   10.6014   -0.0000 O.3     1  LIG1       -0.4883
     32 C           1.3593   11.9951   -0.0007 C.3     1  LIG1        0.0791
     33 H           0.3612   12.4332   -0.0010 H       1  LIG1        0.0660
     34 H           1.8804   12.3444    0.9018 H       1  LIG1        0.0660
     35 H           1.8806   12.3435   -0.9033 H       1  LIG1        0.0660
     36 O           4.3047   11.2878    0.0001 O.3     1  LIG1       -0.5007
     37 H           3.6572   11.9960    0.0003 H       1  LIG1        0.2924
     38 C           5.6972    8.4496    0.0002 C.ar    1  LIG1        0.2186
     39 C           6.9108    9.0898    0.0001 C.ar    1  LIG1        0.2109
     40 C           7.9082    8.0519    0.0002 C.ar    1  LIG1        0.1979
     41 C           7.2298    6.8767    0.0004 C.ar    1  LIG1        0.1379
     42 O           5.8938    7.1043    0.0004 O.2     1  LIG1       -0.4521
     43 H           7.5576    5.8513    0.0005 H       1  LIG1        0.1069
     44 O           7.0280   10.4441   -0.0001 O.3     1  LIG1       -0.4883
     45 C           8.3127   11.0130   -0.0006 C.3     1  LIG1        0.0791
     46 H           8.1700   12.0937   -0.0010 H       1  LIG1        0.0660
     47 H           8.8818   10.7479    0.9016 H       1  LIG1        0.0660
     48 H           8.8814   10.7473   -0.9029 H       1  LIG1        0.0660
     49 O           9.2698    8.1249    0.0002 O.3     1  LIG1       -0.5012
     50 H           9.5529    9.0417    0.0002 H       1  LIG1        0.2924
@<TRIPOS>BOND
     1    35    32    1
     2    48    45    1
     3    23    20    1
     4    11     8    1
     5    33    32    1
     6    46    45    1
     7    32    31    1
     8    32    34    1
     9    45    44    1
    10    45    47    1
    11     9     8    1
    12     8     7    1
    13     8    10    1
    14     7     2    1
    15    21    20    1
    16     2     1   ar
    17     2     3   ar
    18     6     1    1
    19     1     5   ar
    20    12     3    1
    21    12    13    1
    22     3     4   ar
    23    44    39    1
    24    20    19    1
    25    20    22    1
    26     5     4   ar
    27     4    14    1
    28    31    27    1
    29    18    14   ar
    30    18    17   ar
    31    14    15   ar
    32    27    28   ar
    33    27    26   ar
    34    36    28    1
    35    36    37    1
    36    39    38   ar
    37    39    40   ar
    38    28    29   ar
    39    26    17    1
    40    26    30   ar
    41    17    16   ar
    42    15    19    1
    43    15    16   ar
    44    29    30   ar
    45    29    38    1
    46    49    40    1
    47    49    50    1
    48    38    42   ar
    49    16    24    1
    50    40    41   ar
    51    24    25    1
    52    42    41   ar
    53    41    43    1
