@<TRIPOS>MOLECULE
mol_data/opt/cam/geoms/mol2/12lf12lf-12lf12lf-.out
 50 53 0 0 0
SMALL
GASTEIGER

@<TRIPOS>ATOM
      1 C          -0.1770    1.7724   -0.0002 C.ar    1  LIG1        0.1381
      2 C           1.1826    1.7059   -0.0004 C.ar    1  LIG1        0.2002
      3 C           1.6514    3.0559   -0.0003 C.ar    1  LIG1        0.2086
      4 C           0.5378    3.8480   -0.0001 C.ar    1  LIG1        0.2184
      5 O          -0.5832    3.0739    0.0000 O.2     1  LIG1       -0.4521
      6 H          -0.9561    1.0300   -0.0002 H       1  LIG1        0.1069
      7 O           2.0153    0.6454   -0.0006 O.3     1  LIG1       -0.4888
      8 C           1.3699   -0.6106   -0.0006 C.3     1  LIG1        0.0791
      9 H           2.1533   -1.3676   -0.0008 H       1  LIG1        0.0660
     10 H           0.7442   -0.7323    0.8924 H       1  LIG1        0.0660
     11 H           0.7439   -0.7321   -0.8935 H       1  LIG1        0.0660
     12 O           2.9551    3.4109   -0.0004 O.3     1  LIG1       -0.5007
     13 H           2.9910    4.3758   -0.0003 H       1  LIG1        0.2924
     14 C           0.4049    5.2750    0.0001 C.ar    1  LIG1        0.2196
     15 C          -0.6613    6.1264    0.0004 C.ar    1  LIG1        0.2117
     16 C          -0.1207    7.4565    0.0004 C.ar    1  LIG1        0.2094
     17 C           1.2465    7.3311    0.0002 C.ar    1  LIG1        0.2195
     18 O           1.5678    5.9989    0.0000 O.2     1  LIG1       -0.4407
     19 O          -1.9414    5.6691    0.0005 O.3     1  LIG1       -0.4883
     20 C          -3.0039    6.5915    0.0005 C.3     1  LIG1        0.0791
     21 H          -3.9202    6.0013    0.0004 H       1  LIG1        0.0660
     22 H          -3.0064    7.2176    0.9034 H       1  LIG1        0.0660
     23 H          -3.0062    7.2177   -0.9025 H       1  LIG1        0.0660
     24 O          -0.7748    8.6461    0.0007 O.3     1  LIG1       -0.5007
     25 H          -1.7222    8.4924    0.0010 H       1  LIG1        0.2924
     26 C           2.2732    8.3463    0.0002 C.ar    1  LIG1        0.2197
     27 C           3.6517    8.4574    0.0003 C.ar    1  LIG1        0.2117
     28 C           3.9441    9.8546    0.0002 C.ar    1  LIG1        0.2094
     29 C           2.7498   10.5106   -0.0000 C.ar    1  LIG1        0.2194
     30 O           1.7361    9.6098   -0.0000 O.2     1  LIG1       -0.4407
     31 O           4.7034    7.6126    0.0005 O.3     1  LIG1       -0.4883
     32 C           4.5136    6.2193    0.0003 C.3     1  LIG1        0.0791
     33 H           5.5102    5.7781    0.0005 H       1  LIG1        0.0660
     34 H           3.9788    5.8909    0.8987 H       1  LIG1        0.0660
     35 H           3.9791    5.8911   -0.8983 H       1  LIG1        0.0660
     36 O           5.2002   10.3465    0.0002 O.3     1  LIG1       -0.5007
     37 H           5.1396   11.3122    0.0001 H       1  LIG1        0.2924
     38 C           2.4724   11.9159   -0.0002 C.ar    1  LIG1        0.2186
     39 C           1.3404   12.6820   -0.0004 C.ar    1  LIG1        0.2109
     40 C           1.7874   14.0536   -0.0005 C.ar    1  LIG1        0.1979
     41 C           3.1427   14.0178   -0.0003 C.ar    1  LIG1        0.1379
     42 O           3.5744   12.7230   -0.0002 O.2     1  LIG1       -0.4521
     43 H           3.8904   14.7915   -0.0003 H       1  LIG1        0.1069
     44 O           0.0964   12.1349   -0.0004 O.3     1  LIG1       -0.4883
     45 C          -1.0166   12.9931   -0.0011 C.3     1  LIG1        0.0791
     46 H          -1.8982   12.3523   -0.0012 H       1  LIG1        0.0660
     47 H          -1.0549   13.6196    0.9013 H       1  LIG1        0.0660
     48 H          -1.0542   13.6192   -0.9037 H       1  LIG1        0.0660
     49 O           1.0779   15.2151   -0.0007 O.3     1  LIG1       -0.5012
     50 H           0.1361   15.0298   -0.0007 H       1  LIG1        0.2924
@<TRIPOS>BOND
     1    48    45    1
     2    23    20    1
     3    35    32    1
     4    11     8    1
     5    46    45    1
     6    45    44    1
     7    45    47    1
     8     9     8    1
     9    49    50    1
    10    49    40    1
    11     8     7    1
    12     8    10    1
    13     7     2    1
    14    40    39   ar
    15    40    41   ar
    16    44    39    1
    17    12    13    1
    18    12     3    1
    19    39    38   ar
    20     2     3   ar
    21     2     1   ar
    22    43    41    1
    23    41    42   ar
    24     3     4   ar
    25    38    42   ar
    26    38    29    1
    27     1     6    1
    28     1     5   ar
    29     4     5   ar
    30     4    14    1
    31    30    29   ar
    32    30    26   ar
    33    29    28   ar
    34    18    14   ar
    35    18    17   ar
    36    14    15   ar
    37    37    36    1
    38    28    36    1
    39    28    27   ar
    40    26    17    1
    41    26    27   ar
    42    17    16   ar
    43    27    31    1
    44    32    33    1
    45    32    31    1
    46    32    34    1
    47    15    16   ar
    48    15    19    1
    49    21    20    1
    50    16    24    1
    51    20    19    1
    52    20    22    1
    53    24    25    1
