@<TRIPOS>MOLECULE
mol_data/opt/cam/geoms/mol2/12lf12lf-.out
 26 27 0 0 0
SMALL
GASTEIGER

@<TRIPOS>ATOM
      1 C           0.0672    1.8235    0.0001 C.ar    1  LIG1        0.1381
      2 C           1.4286    1.8203   -0.0000 C.ar    1  LIG1        0.2002
      3 C           1.8359    3.1914   -0.0001 C.ar    1  LIG1        0.2086
      4 C           0.6846    3.9273   -0.0000 C.ar    1  LIG1        0.2184
      5 O          -0.3998    3.1044    0.0001 O.2     1  LIG1       -0.4521
      6 H          -0.6763    1.0453    0.0002 H       1  LIG1        0.1069
      7 O           2.3088    0.7987   -0.0001 O.3     1  LIG1       -0.4888
      8 C           1.7213   -0.4850    0.0000 C.3     1  LIG1        0.0791
      9 H           2.5383   -1.2056   -0.0000 H       1  LIG1        0.0660
     10 H           1.1016   -0.6354    0.8930 H       1  LIG1        0.0660
     11 H           1.1014   -0.6355   -0.8928 H       1  LIG1        0.0660
     12 O           3.1222    3.6016   -0.0002 O.3     1  LIG1       -0.5007
     13 H           3.1250    4.5693   -0.0003 H       1  LIG1        0.2924
     14 C           0.5066    5.3512   -0.0000 C.ar    1  LIG1        0.2186
     15 C          -0.5705    6.1913    0.0001 C.ar    1  LIG1        0.2109
     16 C          -0.0319    7.5300   -0.0000 C.ar    1  LIG1        0.1979
     17 C           1.3179    7.4023   -0.0002 C.ar    1  LIG1        0.1379
     18 O           1.6604    6.0809   -0.0002 O.2     1  LIG1       -0.4521
     19 H           2.1165    8.1233   -0.0003 H       1  LIG1        0.1069
     20 O          -1.8494    5.7287    0.0003 O.3     1  LIG1       -0.4883
     21 C          -2.9032    6.6606   -0.0003 C.3     1  LIG1        0.0791
     22 H          -3.8262    6.0810   -0.0004 H       1  LIG1        0.0660
     23 H          -2.8984    7.2878    0.9022 H       1  LIG1        0.0660
     24 H          -2.8978    7.2874   -0.9030 H       1  LIG1        0.0660
     25 O          -0.6611    8.7365    0.0000 O.3     1  LIG1       -0.5012
     26 H          -1.6134    8.6159    0.0004 H       1  LIG1        0.2924
@<TRIPOS>BOND
     1    24    21    1
     2    11     8    1
     3    22    21    1
     4    19    17    1
     5    21    20    1
     6    21    23    1
     7    13    12    1
     8    12     3    1
     9    18    17   ar
    10    18    14   ar
    11    17    16   ar
    12     3     2   ar
    13     3     4   ar
    14     7     2    1
    15     7     8    1
    16    14     4    1
    17    14    15   ar
    18     9     8    1
    19     2     1   ar
    20    16    25    1
    21    16    15   ar
    22     4     5   ar
    23    25    26    1
    24     8    10    1
    25    15    20    1
    26     1     5   ar
    27     1     6    1
