@<TRIPOS>MOLECULE
mol_data/opt/cam/geoms/mol2/12lf12id4ea-6id.out
 50 53 0 0 0
SMALL
GASTEIGER

@<TRIPOS>ATOM
      1 C           0.7082    1.7696    0.9224 C.ar    1  LIG1        0.1381
      2 C           1.6565    1.7157   -0.0524 C.ar    1  LIG1        0.2002
      3 C           1.7516    3.0387   -0.5885 C.ar    1  LIG1        0.2085
      4 C           0.8666    3.8044    0.1119 C.ar    1  LIG1        0.2149
      5 O           0.2175    3.0333    1.0336 O.2     1  LIG1       -0.4522
      6 H           0.2892    1.0341    1.5875 H       1  LIG1        0.1069
      7 O           2.3994    0.6906   -0.5110 O.3     1  LIG1       -0.4888
      8 C           2.1593   -0.5471    0.1284 C.3     1  LIG1        0.0791
      9 H           2.8217   -1.2751   -0.3379 H       1  LIG1        0.0660
     10 H           2.3809   -0.4854    1.2009 H       1  LIG1        0.0660
     11 H           1.1173   -0.8632   -0.0044 H       1  LIG1        0.0660
     12 O           2.5814    3.3738   -1.6025 O.3     1  LIG1       -0.5007
     13 H           2.3252    4.2403   -1.9439 H       1  LIG1        0.2924
     14 C           0.5457    5.2081    0.0213 C.ar    1  LIG1        0.1785
     15 C           1.3170    6.3192   -0.1419 C.ar    1  LIG1        0.0165
     16 C           0.3896    7.4186   -0.2048 C.ar    1  LIG1        0.1010
     17 C          -0.8703    6.9002   -0.0452 C.ar    1  LIG1        0.1546
     18 O          -0.7773    5.5570    0.0733 O.2     1  LIG1       -0.4500
     19 C           2.8062    6.4274   -0.1993 C.3     1  LIG1       -0.0348
     20 H           3.1783    7.0454    0.6226 H       1  LIG1        0.0279
     21 H           3.1346    6.9051   -1.1275 H       1  LIG1        0.0279
     22 H           3.2803    5.4477   -0.1278 H       1  LIG1        0.0279
     23 N           1.1367    9.8302   -0.7202 N.1     1  LIG1       -0.1907
     24 C           0.7662    8.7624   -0.4721 C.1     1  LIG1        0.1033
     25 C          -2.5838    8.6390    0.6017 C.ar    1  LIG1        0.0359
     26 C          -3.9058    9.0911    0.5228 C.ar    1  LIG1       -0.0379
     27 C          -2.2283    7.4445   -0.0537 C.ar    1  LIG1        0.0340
     28 C          -4.8849    8.3801   -0.1634 C.ar    1  LIG1       -0.0149
     29 H          -4.1666   10.0076    1.0400 H       1  LIG1        0.0636
     30 C          -3.2202    6.7251   -0.7272 C.ar    1  LIG1       -0.0493
     31 C          -4.5245    7.1807   -0.7846 C.ar    1  LIG1       -0.0532
     32 H          -2.9483    5.8003   -1.2224 H       1  LIG1        0.0625
     33 C          -1.6596    9.3860    1.3969 C.1     1  LIG1       -0.0689
     34 C          -0.9227   10.0375    2.0895 C.1     1  LIG1       -0.1139
     35 H          -0.2455   10.6141    2.6772 H       1  LIG1        0.1232
     36 H          -5.2652    6.6143   -1.3378 H       1  LIG1        0.0624
     37 C          -7.4065    8.1772    0.1269 C.ar    1  LIG1        0.0460
     38 C          -6.2679    8.9179   -0.2501 C.ar    1  LIG1        0.0044
     39 C          -6.4599   10.2167   -0.7073 C.ar    1  LIG1       -0.0335
     40 C          -7.7497   10.7341   -0.8010 C.ar    1  LIG1        0.0704
     41 C          -8.8129    9.9132   -0.4242 C.ar    1  LIG1        0.0452
     42 N          -8.6419    8.6811    0.0311 N.ar    1  LIG1       -0.2583
     43 H          -5.6091   10.8205   -1.0038 H       1  LIG1        0.0637
     44 H          -9.8348   10.2772   -0.4902 H       1  LIG1        0.0843
     45 C          -7.3266    6.7830    0.6842 C.3     1  LIG1       -0.0218
     46 H          -6.4118    6.6183    1.2552 H       1  LIG1        0.0293
     47 H          -7.3555    6.0393   -0.1187 H       1  LIG1        0.0293
     48 H          -8.1953    6.6099    1.3192 H       1  LIG1        0.0293
     49 N          -8.1837   13.1396   -1.6550 N.1     1  LIG1       -0.1908
     50 C          -7.9870   12.0656   -1.2739 C.1     1  LIG1        0.1007
@<TRIPOS>BOND
     1    13    12    1
     2    49    50    3
     3    12     3    1
     4    36    31    1
     5    50    40    1
     6    32    30    1
     7    21    19    1
     8    43    39    1
     9    40    39   ar
    10    40    41   ar
    11    31    30   ar
    12    31    28   ar
    13    30    27   ar
    14    23    24    3
    15    39    38   ar
    16     3     2   ar
    17     3     4   ar
    18     7     2    1
    19     7     8    1
    20    44    41    1
    21    24    16    1
    22    41    42   ar
    23     9     8    1
    24    38    28    1
    25    38    37   ar
    26    16    15   ar
    27    16    17   ar
    28    19    15    1
    29    19    22    1
    30    19    20    1
    31    28    26   ar
    32    15    14   ar
    33    47    45    1
    34    27    17    1
    35    27    25   ar
    36     2     1   ar
    37    17    18   ar
    38    11     8    1
    39    14    18   ar
    40    14     4    1
    41    42    37   ar
    42     4     5   ar
    43    37    45    1
    44     8    10    1
    45    26    25   ar
    46    26    29    1
    47    25    33    1
    48    45    46    1
    49    45    48    1
    50     1     5   ar
    51     1     6    1
    52    33    34    3
    53    34    35    1
