@<TRIPOS>MOLECULE
mol_data/opt/cam/geoms/mol2/12lf12lf12lf.out
 38 40 0 0 0
SMALL
GASTEIGER

@<TRIPOS>ATOM
      1 C           0.1457    1.2260   -0.3554 C.ar    1  LIG1        0.1381
      2 C           1.4649    1.2305   -0.0211 C.ar    1  LIG1        0.2002
      3 C           1.8096    2.5896    0.2678 C.ar    1  LIG1        0.2086
      4 C           0.6614    3.3137    0.0821 C.ar    1  LIG1        0.2184
      5 O          -0.3571    2.4889   -0.3005 O.2     1  LIG1       -0.4521
      6 H          -0.5438    0.4499   -0.6398 H       1  LIG1        0.1069
      7 O           2.3578    0.2229    0.0603 O.3     1  LIG1       -0.4888
      8 C           1.8344   -1.0529   -0.2406 C.3     1  LIG1        0.0791
      9 H           2.6531   -1.7636   -0.1327 H       1  LIG1        0.0660
     10 H           1.0249   -1.3207    0.4501 H       1  LIG1        0.0660
     11 H           1.4516   -1.0907   -1.2685 H       1  LIG1        0.0660
     12 O           3.0358    2.9793    0.6527 O.3     1  LIG1       -0.5007
     13 H           3.0443    3.9532    0.7307 H       1  LIG1        0.2924
     14 C           0.3934    4.7180    0.2147 C.ar    1  LIG1        0.2196
     15 C           1.2287    5.7819    0.4217 C.ar    1  LIG1        0.2117
     16 C           0.4094    6.9435    0.5233 C.ar    1  LIG1        0.2094
     17 C          -0.8795    6.5071    0.3578 C.ar    1  LIG1        0.2194
     18 O          -0.8894    5.1484    0.1795 O.2     1  LIG1       -0.4407
     19 O           2.5888    5.7055    0.5613 O.3     1  LIG1       -0.4883
     20 C           3.3260    6.5072   -0.3674 C.3     1  LIG1        0.0791
     21 H           4.3800    6.3550   -0.1360 H       1  LIG1        0.0660
     22 H           3.1219    6.1893   -1.3948 H       1  LIG1        0.0660
     23 H           3.0648    7.5599   -0.2442 H       1  LIG1        0.0660
     24 O           0.8853    8.1843    0.7374 O.3     1  LIG1       -0.5007
     25 H           0.1465    8.8225    0.6687 H       1  LIG1        0.2924
     26 C          -2.1270    7.2163    0.3443 C.ar    1  LIG1        0.2186
     27 C          -2.3965    8.5559    0.3169 C.ar    1  LIG1        0.2109
     28 C          -3.8176    8.6902    0.3811 C.ar    1  LIG1        0.1979
     29 C          -4.3147    7.4281    0.4331 C.ar    1  LIG1        0.1379
     30 O          -3.2870    6.5251    0.4243 O.2     1  LIG1       -0.4521
     31 H          -5.3117    7.0223    0.4769 H       1  LIG1        0.1069
     32 O          -1.4594    9.5563    0.2846 O.3     1  LIG1       -0.4883
     33 C          -1.5537   10.4166   -0.8559 C.3     1  LIG1        0.0791
     34 H          -0.7592   11.1555   -0.7520 H       1  LIG1        0.0660
     35 H          -1.4143    9.8462   -1.7795 H       1  LIG1        0.0660
     36 H          -2.5247   10.9157   -0.8708 H       1  LIG1        0.0660
     37 O          -4.4431    9.8952    0.3672 O.3     1  LIG1       -0.5012
     38 H          -5.3969    9.7644    0.4193 H       1  LIG1        0.2924
@<TRIPOS>BOND
     1    35    33    1
     2    22    20    1
     3    11     8    1
     4    36    33    1
     5    33    34    1
     6    33    32    1
     7     6     1    1
     8    20    23    1
     9    20    21    1
    10    20    19    1
    11     1     5   ar
    12     1     2   ar
    13     5     4   ar
    14     8     9    1
    15     8     7    1
    16     8    10    1
    17     2     7    1
    18     2     3   ar
    19     4    14    1
    20     4     3   ar
    21    18    14   ar
    22    18    17   ar
    23    14    15   ar
    24     3    12    1
    25    32    27    1
    26    27    26   ar
    27    27    28   ar
    28    26    17    1
    29    26    30   ar
    30    17    16   ar
    31    37    28    1
    32    37    38    1
    33    28    29   ar
    34    15    16   ar
    35    15    19    1
    36    30    29   ar
    37    29    31    1
    38    16    24    1
    39    12    13    1
    40    25    24    1
