@<TRIPOS>MOLECULE
mol_data/opt/cam/geoms/mol2/12lh13dl-4ld12fh-12ll-12ff-6ia13fa.out
 98 105 0 0 0
SMALL
GASTEIGER

@<TRIPOS>ATOM
      1 C           1.7591    3.7301    4.1062 C.ar    1  LIG1        0.1361
      2 C           3.1053    3.7395    3.9469 C.ar    1  LIG1        0.1789
      3 C           3.4166    4.6447    2.8754 C.ar    1  LIG1        0.1148
      4 C           2.2028    5.1175    2.4430 C.ar    1  LIG1        0.1765
      5 O           1.1877    4.5637    3.1981 O.2     1  LIG1       -0.4558
      6 H           1.0919    3.2072    4.7701 H       1  LIG1        0.1068
      7 O           4.0915    3.0797    4.5929 O.3     1  LIG1       -0.4901
      8 C           3.6577    2.2191    5.6276 C.3     1  LIG1        0.0790
      9 H           4.5494    1.7606    6.0530 H       1  LIG1        0.0660
     10 H           3.1280    2.7810    6.4062 H       1  LIG1        0.0660
     11 H           2.9956    1.4379    5.2350 H       1  LIG1        0.0660
     12 N           4.7091    4.9523    2.5288 N.pl3   1  LIG1       -0.3521
     13 H           5.3884    4.2875    2.8682 H       1  LIG1        0.1425
     14 H           4.8887    5.2822    1.5908 H       1  LIG1        0.1425
     15 C           1.7527    6.0676    1.4626 C.ar    1  LIG1        0.1057
     16 C           2.3597    6.6700    0.3603 C.ar    1  LIG1        0.1222
     17 C           1.4010    7.5668   -0.2166 C.ar    1  LIG1        0.1634
     18 C           0.2449    7.4874    0.5253 C.ar    1  LIG1        0.0941
     19 N           0.4920    6.5667    1.5322 N.ar    1  LIG1       -0.3476
     20 H          -0.1446    6.3378    2.2795 H       1  LIG1        0.1661
     21 N           4.7251    6.1603   -0.5128 N.1     1  LIG1       -0.1907
     22 C           3.6590    6.4057   -0.1250 C.1     1  LIG1        0.1051
     23 O           1.5994    8.3594   -1.2951 O.3     1  LIG1       -0.4917
     24 C           1.7632    7.6738   -2.5321 C.3     1  LIG1        0.0789
     25 H           1.8625    8.4443   -3.2966 H       1  LIG1        0.0660
     26 H           2.6615    7.0486   -2.5325 H       1  LIG1        0.0660
     27 H           0.8877    7.0530   -2.7512 H       1  LIG1        0.0660
     28 C          -1.2790    9.4529    0.0442 C.ar    1  LIG1        0.1300
     29 C          -2.5571    9.9626   -0.1043 C.ar    1  LIG1       -0.0073
     30 C          -1.0777    8.0990    0.3811 C.ar    1  LIG1        0.0448
     31 C          -3.7028    9.1817    0.0974 C.ar    1  LIG1        0.0418
     32 H          -2.6547   11.0054   -0.3785 H       1  LIG1        0.0662
     33 C          -2.2155    7.3249    0.5910 C.ar    1  LIG1       -0.0309
     34 C          -3.5109    7.8342    0.4706 C.ar    1  LIG1        0.0634
     35 H          -2.1044    6.2732    0.8330 H       1  LIG1        0.0638
     36 O          -0.2388   10.3021   -0.1908 O.3     1  LIG1       -0.4944
     37 C           0.4936   10.7184    0.9531 C.3     1  LIG1        0.0788
     38 H           1.2963   11.3575    0.5861 H       1  LIG1        0.0660
     39 H          -0.1457   11.2898    1.6363 H       1  LIG1        0.0660
     40 H           0.9303    9.8697    1.4875 H       1  LIG1        0.0660
     41 N          -5.3571    6.1048    1.0208 N.1     1  LIG1       -0.1908
     42 C          -4.5772    6.9164    0.7525 C.1     1  LIG1        0.0999
     43 C          -4.9969    9.7989   -0.0703 C.ar    1  LIG1        0.1803
     44 C          -5.3926   11.0952   -0.2747 C.ar    1  LIG1        0.1846
     45 C          -6.8096   11.1098   -0.3670 C.ar    1  LIG1        0.1170
     46 C          -7.2085    9.8103   -0.1946 C.ar    1  LIG1        0.1986
     47 O          -6.1256    9.0198   -0.0157 O.2     1  LIG1       -0.4458
     48 O          -4.6367   12.2057   -0.3686 O.3     1  LIG1       -0.5020
     49 H          -5.2679   12.9463   -0.3683 H       1  LIG1        0.2924
     50 N          -7.5143   12.3206   -0.5605 N.pl3   1  LIG1       -0.3521
     51 H          -7.7164   12.4809   -1.5437 H       1  LIG1        0.1425
     52 H          -8.3977   12.3030   -0.0595 H       1  LIG1        0.1425
     53 C          -8.5014    9.1857   -0.1384 C.ar    1  LIG1        0.2178
     54 C          -9.7693    9.6719    0.0345 C.ar    1  LIG1        0.2118
     55 C         -10.6446    8.5423    0.0268 C.ar    1  LIG1        0.2119
     56 C          -9.8498    7.4409   -0.1376 C.ar    1  LIG1        0.2197
     57 O          -8.5510    7.8293   -0.2368 O.2     1  LIG1       -0.4408
     58 O         -10.1210   10.9758    0.2259 O.3     1  LIG1       -0.4883
     59 C         -11.0709   11.4652   -0.7253 C.3     1  LIG1        0.0791
     60 H         -11.3534   12.4647   -0.3936 H       1  LIG1        0.0660
     61 H         -10.6194   11.5208   -1.7223 H       1  LIG1        0.0660
     62 H         -11.9515   10.8209   -0.7630 H       1  LIG1        0.0660
     63 O         -12.0004    8.5704    0.1089 O.3     1  LIG1       -0.4883
     64 C         -12.4960    8.8053    1.4278 C.3     1  LIG1        0.0791
     65 H         -13.5812    8.8673    1.3410 H       1  LIG1        0.0660
     66 H         -12.2299    7.9745    2.0855 H       1  LIG1        0.0660
     67 H         -12.1054    9.7460    1.8303 H       1  LIG1        0.0660
     68 C         -10.1346    6.0364   -0.2038 C.ar    1  LIG1        0.2193
     69 C         -11.1065    5.2545    0.3510 C.ar    1  LIG1        0.2091
     70 C         -10.8359    3.9247   -0.0631 C.ar    1  LIG1        0.2060
     71 C          -9.7164    3.9562   -0.8478 C.ar    1  LIG1        0.1826
     72 O          -9.2881    5.2455   -0.9310 O.2     1  LIG1       -0.4439
     73 O         -12.1111    5.6305    1.1737 O.3     1  LIG1       -0.5007
     74 H         -12.5705    4.8245    1.4481 H       1  LIG1        0.2924
     75 O         -11.6257    2.8862    0.3432 O.3     1  LIG1       -0.5008
     76 H         -11.0824    2.0948    0.4492 H       1  LIG1        0.2924
     77 C          -7.6161    2.9236   -1.8133 C.ar    1  LIG1        0.0497
     78 C          -9.0019    2.8948   -1.5421 C.ar    1  LIG1        0.0421
     79 C          -9.7196    1.7646   -1.9537 C.ar    1  LIG1       -0.0472
     80 C          -9.0834    0.7139   -2.5824 C.ar    1  LIG1       -0.0334
     81 C          -7.7088    0.8236   -2.8069 C.ar    1  LIG1        0.0910
     82 N          -7.0124    1.9094   -2.4300 N.ar    1  LIG1       -0.2496
     83 H         -10.7934    1.7286   -1.7965 H       1  LIG1        0.0626
     84 C          -6.7334    4.0779   -1.4312 C.3     1  LIG1       -0.0216
     85 H          -6.8336    4.3540   -0.3794 H       1  LIG1        0.0293
     86 H          -6.9806    4.9738   -2.0056 H       1  LIG1        0.0293
     87 H          -5.6974    3.8048   -1.6288 H       1  LIG1        0.0293
     88 H          -9.6202   -0.1666   -2.9111 H       1  LIG1        0.0640
     89 C          -6.9345   -0.2127   -3.4601 C.ar    1  LIG1        0.1069
     90 C          -7.2498   -1.4543   -3.9859 C.ar    1  LIG1        0.1435
     91 C          -6.0680   -2.0300   -4.5059 C.ar    1  LIG1       -0.0021
     92 C          -5.0556   -1.1186   -4.2825 C.ar    1  LIG1        0.0058
     93 N          -5.5832   -0.0407   -3.6588 N.ar    1  LIG1       -0.3565
     94 H          -5.1237    0.8037   -3.3530 H       1  LIG1        0.1655
     95 H          -4.0061   -1.1740   -4.5277 H       1  LIG1        0.0808
     96 O          -8.5069   -1.9834   -3.9744 O.3     1  LIG1       -0.5046
     97 H          -8.4849   -2.8422   -4.4097 H       1  LIG1        0.2922
     98 H          -5.9696   -2.9937   -4.9853 H       1  LIG1        0.0669
@<TRIPOS>BOND
     1    98    91    1
     2    95    92    1
     3    91    92   ar
     4    91    90   ar
     5    97    96    1
     6    92    93   ar
     7    90    96    1
     8    90    89   ar
     9    93    89   ar
    10    93    94    1
    11    89    81    1
    12    25    24    1
    13    88    80    1
    14    81    80   ar
    15    81    82   ar
    16    27    24    1
    17    80    79   ar
    18    26    24    1
    19    24    23    1
    20    82    77   ar
    21    86    84    1
    22    79    83    1
    23    79    78   ar
    24    77    78   ar
    25    77    84    1
    26    61    59    1
    27    87    84    1
    28    51    50    1
    29    78    71    1
    30    84    85    1
    31    23    17    1
    32    72    71   ar
    33    72    68   ar
    34    71    70   ar
    35    62    59    1
    36    59    60    1
    37    59    58    1
    38    50    45    1
    39    50    52    1
    40    21    22    3
    41    32    29    1
    42    48    49    1
    43    48    44    1
    44    45    44   ar
    45    45    46   ar
    46    44    43   ar
    47    57    53   ar
    48    57    56   ar
    49    17    16   ar
    50    17    18   ar
    51    68    56    1
    52    68    69   ar
    53    46    53    1
    54    46    47   ar
    55    36    28    1
    56    36    37    1
    57    53    54   ar
    58    56    55   ar
    59    22    16    1
    60    29    28   ar
    61    29    31   ar
    62    43    47   ar
    63    43    31    1
    64    70    75    1
    65    70    69   ar
    66    55    54   ar
    67    55    63    1
    68    54    58    1
    69    28    30   ar
    70    31    34   ar
    71    63    64    1
    72    75    76    1
    73    69    73    1
    74    16    15   ar
    75    30    18    1
    76    30    33   ar
    77    34    33   ar
    78    34    42    1
    79    18    19   ar
    80    38    37    1
    81    33    35    1
    82    42    41    3
    83    37    40    1
    84    37    39    1
    85    73    74    1
    86    65    64    1
    87    64    67    1
    88    64    66    1
    89    15    19   ar
    90    15     4    1
    91    19    20    1
    92    14    12    1
    93     4     3   ar
    94     4     5   ar
    95    12    13    1
    96    12     3    1
    97     3     2   ar
    98     5     1   ar
    99     2     1   ar
   100     2     7    1
   101     1     6    1
   102     7     8    1
   103    11     8    1
   104     8     9    1
   105     8    10    1
