@<TRIPOS>MOLECULE
mol_data/opt/cam/geoms/mol2/12li12li-12li-12li.out
 58 61 0 0 0
SMALL
GASTEIGER

@<TRIPOS>ATOM
      1 C          -0.2645    2.1687   -0.2622 C.ar    1  LIG1        0.1345
      2 C           1.0544    2.1077   -0.5832 C.ar    1  LIG1        0.1612
      3 C           1.5955    3.4314   -0.4891 C.ar    1  LIG1        0.0402
      4 C           0.5381    4.2091   -0.1080 C.ar    1  LIG1        0.1799
      5 O          -0.5914    3.4621    0.0319 O.2     1  LIG1       -0.4557
      6 H          -1.0589    1.4463   -0.1921 H       1  LIG1        0.1068
      7 O           1.8191    1.0518   -0.9378 O.3     1  LIG1       -0.4917
      8 C           1.1409   -0.1860   -0.9797 C.3     1  LIG1        0.0789
      9 H           1.8713   -0.9384   -1.2758 H       1  LIG1        0.0660
     10 H           0.7297   -0.4432    0.0043 H       1  LIG1        0.0660
     11 H           0.3237   -0.1624   -1.7114 H       1  LIG1        0.0660
     12 C           3.0210    3.7867   -0.7616 C.3     1  LIG1       -0.0325
     13 H           3.2208    4.8410   -0.5775 H       1  LIG1        0.0280
     14 H           3.2823    3.5642   -1.8008 H       1  LIG1        0.0280
     15 H           3.6896    3.1871   -0.1358 H       1  LIG1        0.0280
     16 C           0.3997    5.6154    0.1708 C.ar    1  LIG1        0.2126
     17 C          -0.6186    6.4020    0.6404 C.ar    1  LIG1        0.1723
     18 C          -0.1191    7.7377    0.7556 C.ar    1  LIG1        0.0410
     19 C           1.1790    7.6726    0.3323 C.ar    1  LIG1        0.1809
     20 O           1.4960    6.3940   -0.0286 O.2     1  LIG1       -0.4444
     21 O          -1.8698    6.0319    1.0219 O.3     1  LIG1       -0.4909
     22 C          -2.7706    5.7623   -0.0452 C.3     1  LIG1        0.0790
     23 H          -3.7380    5.5530    0.4132 H       1  LIG1        0.0660
     24 H          -2.8659    6.6291   -0.7096 H       1  LIG1        0.0660
     25 H          -2.4460    4.8925   -0.6221 H       1  LIG1        0.0660
     26 C          -0.8876    8.8936    1.3066 C.3     1  LIG1       -0.0325
     27 H          -1.2052    8.6846    2.3320 H       1  LIG1        0.0280
     28 H          -1.7973    9.0733    0.7251 H       1  LIG1        0.0280
     29 H          -0.2927    9.8068    1.3016 H       1  LIG1        0.0280
     30 C           2.2492    8.6282    0.1997 C.ar    1  LIG1        0.2127
     31 C           2.3259    9.9827    0.0158 C.ar    1  LIG1        0.1723
     32 C           3.7060   10.3483   -0.0261 C.ar    1  LIG1        0.0410
     33 C           4.3838    9.1698    0.1218 C.ar    1  LIG1        0.1809
     34 O           3.5178    8.1299    0.2578 O.2     1  LIG1       -0.4444
     35 O           1.2985   10.8720   -0.1027 O.3     1  LIG1       -0.4909
     36 C           0.5929   10.7879   -1.3368 C.3     1  LIG1        0.0790
     37 H          -0.1625   11.5741   -1.3172 H       1  LIG1        0.0660
     38 H           1.2679   10.9495   -2.1840 H       1  LIG1        0.0660
     39 H           0.1035    9.8150   -1.4480 H       1  LIG1        0.0660
     40 C           4.2342   11.7340   -0.2076 C.3     1  LIG1       -0.0325
     41 H           3.3997   12.4347   -0.2714 H       1  LIG1        0.0280
     42 H           4.8342   11.8215   -1.1173 H       1  LIG1        0.0280
     43 H           4.8724   12.0329    0.6275 H       1  LIG1        0.0280
     44 C           5.7822    8.8403    0.1455 C.ar    1  LIG1        0.2116
     45 C           6.4824    7.6663    0.2297 C.ar    1  LIG1        0.1716
     46 C           7.8762    7.9970    0.1623 C.ar    1  LIG1        0.0297
     47 C           7.9139    9.3458    0.0417 C.ar    1  LIG1        0.0993
     48 O           6.6616    9.8755    0.0341 O.2     1  LIG1       -0.4557
     49 H           8.7236   10.0533   -0.0445 H       1  LIG1        0.1033
     50 O           6.0061    6.3952    0.3048 O.3     1  LIG1       -0.4909
     51 C           5.4810    6.0178    1.5737 C.3     1  LIG1        0.0790
     52 H           5.2296    4.9593    1.4992 H       1  LIG1        0.0660
     53 H           6.2255    6.1605    2.3652 H       1  LIG1        0.0660
     54 H           4.5780    6.5862    1.8098 H       1  LIG1        0.0660
     55 C           9.0092    7.0259    0.2034 C.3     1  LIG1       -0.0332
     56 H           9.9684    7.5332    0.0810 H       1  LIG1        0.0280
     57 H           8.9119    6.2805   -0.5904 H       1  LIG1        0.0280
     58 H           9.0335    6.4826    1.1526 H       1  LIG1        0.0280
@<TRIPOS>BOND
     1    38    36    1
     2    14    12    1
     3    11     8    1
     4    39    36    1
     5    36    37    1
     6    36    35    1
     7     9     8    1
     8    42    40    1
     9     8     7    1
    10     8    10    1
    11     7     2    1
    12    12    13    1
    13    12     3    1
    14    12    15    1
    15    24    22    1
    16    25    22    1
    17    57    55    1
    18     2     3   ar
    19     2     1   ar
    20     3     4   ar
    21    41    40    1
    22     1     6    1
    23     1     5   ar
    24    40    32    1
    25    40    43    1
    26     4     5   ar
    27     4    16    1
    28    35    31    1
    29    22    23    1
    30    22    21    1
    31    49    47    1
    32    20    16   ar
    33    20    19   ar
    34    32    31   ar
    35    32    33   ar
    36    31    30   ar
    37    48    47   ar
    38    48    44   ar
    39    47    46   ar
    40    56    55    1
    41    33    44    1
    42    33    34   ar
    43    44    45   ar
    44    46    55    1
    45    46    45   ar
    46    16    17   ar
    47    30    34   ar
    48    30    19    1
    49    55    58    1
    50    45    50    1
    51    50    51    1
    52    19    18   ar
    53    17    18   ar
    54    17    21    1
    55    28    26    1
    56    18    26    1
    57    29    26    1
    58    26    27    1
    59    52    51    1
    60    51    54    1
    61    51    53    1
