@<TRIPOS>MOLECULE
mol_data/opt/cam/geoms/mol2/12li12li-.out
 30 31 0 0 0
SMALL
GASTEIGER

@<TRIPOS>ATOM
      1 C          -0.0765    2.0853   -0.1419 C.ar    1  LIG1        0.1345
      2 C           1.2685    1.9809    0.0184 C.ar    1  LIG1        0.1612
      3 C           1.8102    3.3060    0.0807 C.ar    1  LIG1        0.0402
      4 C           0.7282    4.1291   -0.0486 C.ar    1  LIG1        0.1799
      5 O          -0.4178    3.4075   -0.1825 O.2     1  LIG1       -0.4557
      6 H          -0.8823    1.3793   -0.2430 H       1  LIG1        0.1068
      7 O           2.0564    0.8868    0.1085 O.3     1  LIG1       -0.4917
      8 C           1.3748   -0.3462    0.0115 C.3     1  LIG1        0.0789
      9 H           2.1255   -1.1314    0.0952 H       1  LIG1        0.0660
     10 H           0.6410   -0.4549    0.8198 H       1  LIG1        0.0660
     11 H           0.8582   -0.4353   -0.9521 H       1  LIG1        0.0660
     12 C           3.2596    3.6266    0.2438 C.3     1  LIG1       -0.0325
     13 H           3.4431    4.6943    0.1367 H       1  LIG1        0.0280
     14 H           3.8556    3.0891   -0.4992 H       1  LIG1        0.0280
     15 H           3.6206    3.3133    1.2285 H       1  LIG1        0.0280
     16 C           0.5697    5.5630   -0.0770 C.ar    1  LIG1        0.2116
     17 C          -0.4868    6.3899   -0.3459 C.ar    1  LIG1        0.1716
     18 C          -0.0130    7.7400   -0.2396 C.ar    1  LIG1        0.0297
     19 C           1.2972    7.6286    0.0826 C.ar    1  LIG1        0.0993
     20 O           1.6671    6.3242    0.1918 O.2     1  LIG1       -0.4557
     21 H           2.0751    8.3537    0.2632 H       1  LIG1        0.1033
     22 O          -1.7527    6.0532   -0.7127 O.3     1  LIG1       -0.4909
     23 C          -2.5984    5.6465    0.3560 C.3     1  LIG1        0.0790
     24 H          -3.5846    5.4762   -0.0781 H       1  LIG1        0.0660
     25 H          -2.2363    4.7206    0.8105 H       1  LIG1        0.0660
     26 H          -2.6713    6.4273    1.1221 H       1  LIG1        0.0660
     27 C          -0.8238    8.9727   -0.4667 C.3     1  LIG1       -0.0332
     28 H          -1.6298    9.0610    0.2679 H       1  LIG1        0.0280
     29 H          -1.2907    8.9539   -1.4549 H       1  LIG1        0.0280
     30 H          -0.2059    9.8703   -0.3968 H       1  LIG1        0.0280
@<TRIPOS>BOND
     1    29    27    1
     2    11     8    1
     3    22    17    1
     4    22    23    1
     5    14    12    1
     6    27    30    1
     7    27    18    1
     8    27    28    1
     9    17    18   ar
    10    17    16   ar
    11     6     1    1
    12    18    19   ar
    13     5     1   ar
    14     5     4   ar
    15     1     2   ar
    16    24    23    1
    17    16     4    1
    18    16    20   ar
    19     4     3   ar
    20     8     9    1
    21     8     7    1
    22     8    10    1
    23     2     3   ar
    24     2     7    1
    25     3    12    1
    26    19    20   ar
    27    19    21    1
    28    13    12    1
    29    12    15    1
    30    23    25    1
    31    23    26    1
