@<TRIPOS>MOLECULE
mol_data/opt/cam/geoms/mol2/12li12li12li-12li-.out
 58 61 0 0 0
SMALL
GASTEIGER

@<TRIPOS>ATOM
      1 C           2.1584    2.1946   -0.7534 C.ar    1  LIG1        0.1345
      2 C           0.9264    1.6840   -0.4923 C.ar    1  LIG1        0.1612
      3 C           0.0124    2.7795   -0.3608 C.ar    1  LIG1        0.0402
      4 C           0.7795    3.8938   -0.5529 C.ar    1  LIG1        0.1799
      5 O           2.0770    3.5578   -0.7899 O.2     1  LIG1       -0.4557
      6 H           3.1298    1.7678   -0.9329 H       1  LIG1        0.1068
      7 O           0.5206    0.4012   -0.3685 O.3     1  LIG1       -0.4917
      8 C           1.5354   -0.5637   -0.5510 C.3     1  LIG1        0.0789
      9 H           1.0694   -1.5413   -0.4310 H       1  LIG1        0.0660
     10 H           1.9742   -0.4883   -1.5537 H       1  LIG1        0.0660
     11 H           2.3308   -0.4444    0.1952 H       1  LIG1        0.0660
     12 C          -1.4512    2.6443   -0.0943 C.3     1  LIG1       -0.0325
     13 H          -1.9696    3.5974   -0.1931 H       1  LIG1        0.0280
     14 H          -1.6299    2.2602    0.9158 H       1  LIG1        0.0280
     15 H          -1.8977    1.9260   -0.7877 H       1  LIG1        0.0280
     16 C           0.4811    5.3021   -0.5605 C.ar    1  LIG1        0.2126
     17 C           1.1542    6.4162   -0.9860 C.ar    1  LIG1        0.1723
     18 C           0.3086    7.5489   -0.7690 C.ar    1  LIG1        0.0410
     19 C          -0.8357    7.0365   -0.2246 C.ar    1  LIG1        0.1809
     20 O          -0.7367    5.6832   -0.0846 O.2     1  LIG1       -0.4444
     21 O           2.3753    6.4766   -1.5797 O.3     1  LIG1       -0.4909
     22 C           3.4779    6.4343   -0.6816 C.3     1  LIG1        0.0790
     23 H           4.3760    6.5525   -1.2892 H       1  LIG1        0.0660
     24 H           3.4246    7.2510    0.0475 H       1  LIG1        0.0660
     25 H           3.5163    5.4756   -0.1574 H       1  LIG1        0.0660
     26 C           0.6538    8.9626   -1.1052 C.3     1  LIG1       -0.0325
     27 H           0.9516    9.5268   -0.2157 H       1  LIG1        0.0280
     28 H          -0.1935    9.4877   -1.5484 H       1  LIG1        0.0280
     29 H           1.4890    8.9743   -1.8083 H       1  LIG1        0.0280
     30 C          -2.0733    7.6234    0.2043 C.ar    1  LIG1        0.2127
     31 C          -3.2320    7.1117    0.7246 C.ar    1  LIG1        0.1723
     32 C          -4.1264    8.2050    0.9459 C.ar    1  LIG1        0.0410
     33 C          -3.4492    9.3136    0.5224 C.ar    1  LIG1        0.1809
     34 O          -2.2023    8.9708    0.0774 O.2     1  LIG1       -0.4444
     35 O          -3.5323    5.8072    0.9736 O.3     1  LIG1       -0.4909
     36 C          -3.0056    5.3056    2.1973 C.3     1  LIG1        0.0790
     37 H          -3.3771    4.2853    2.2997 H       1  LIG1        0.0660
     38 H          -1.9120    5.2920    2.1752 H       1  LIG1        0.0660
     39 H          -3.3482    5.9044    3.0487 H       1  LIG1        0.0660
     40 C          -5.4838    8.0980    1.5607 C.3     1  LIG1       -0.0325
     41 H          -5.4119    7.9722    2.6462 H       1  LIG1        0.0280
     42 H          -6.0066    7.2213    1.1703 H       1  LIG1        0.0280
     43 H          -6.0851    8.9863    1.3644 H       1  LIG1        0.0280
     44 C          -3.7876   10.7155    0.4603 C.ar    1  LIG1        0.2116
     45 C          -4.9516   11.4004    0.2442 C.ar    1  LIG1        0.1716
     46 C          -4.6591   12.7989    0.3499 C.ar    1  LIG1        0.0297
     47 C          -3.3293   12.8550    0.6064 C.ar    1  LIG1        0.0993
     48 O          -2.7842   11.6150    0.6743 O.2     1  LIG1       -0.4557
     49 H          -2.6473   13.6777    0.7549 H       1  LIG1        0.1033
     50 O          -6.1968   10.9078   -0.0136 O.3     1  LIG1       -0.4909
     51 C          -6.3198   10.2070   -1.2477 C.3     1  LIG1        0.0790
     52 H          -7.3743    9.9506   -1.3537 H       1  LIG1        0.0660
     53 H          -6.0107   10.8394   -2.0866 H       1  LIG1        0.0660
     54 H          -5.7216    9.2908   -1.2490 H       1  LIG1        0.0660
     55 C          -5.6358   13.9171    0.1949 C.3     1  LIG1       -0.0332
     56 H          -6.4265   13.8563    0.9478 H       1  LIG1        0.0280
     57 H          -6.1223   13.8854   -0.7841 H       1  LIG1        0.0280
     58 H          -5.1433   14.8863    0.2967 H       1  LIG1        0.0280
@<TRIPOS>BOND
     1    53    51    1
     2    29    26    1
     3    21    17    1
     4    21    22    1
     5    10     8    1
     6    28    26    1
     7    52    51    1
     8    23    22    1
     9    54    51    1
    10    51    50    1
    11    26    18    1
    12    26    27    1
    13    17    18   ar
    14    17    16   ar
    15     6     1    1
    16     5     1   ar
    17     5     4   ar
    18    15    12    1
    19    57    55    1
    20    18    19   ar
    21     1     2   ar
    22    22    25    1
    23    22    24    1
    24    16     4    1
    25    16    20   ar
    26     4     3   ar
    27     8     9    1
    28     8     7    1
    29     8    11    1
    30     2     7    1
    31     2     3   ar
    32     3    12    1
    33    19    20   ar
    34    19    30    1
    35    13    12    1
    36    12    14    1
    37    50    45    1
    38    34    30   ar
    39    34    33   ar
    40    55    58    1
    41    55    46    1
    42    55    56    1
    43    30    31   ar
    44    45    46   ar
    45    45    44   ar
    46    46    47   ar
    47    44    33    1
    48    44    48   ar
    49    33    32   ar
    50    47    48   ar
    51    47    49    1
    52    31    32   ar
    53    31    35    1
    54    32    40    1
    55    35    36    1
    56    42    40    1
    57    43    40    1
    58    40    41    1
    59    38    36    1
    60    36    37    1
    61    36    39    1
