@<TRIPOS>MOLECULE
mol_data/opt/cam/geoms/mol2/12li12li.out
 30 31 0 0 0
SMALL
GASTEIGER

@<TRIPOS>ATOM
      1 C           1.0884    2.0459   -1.1594 C.ar    1  LIG1        0.1345
      2 C           1.5248    1.7085    0.0829 C.ar    1  LIG1        0.1612
      3 C           1.5650    2.9042    0.8700 C.ar    1  LIG1        0.0402
      4 C           1.1358    3.8935    0.0360 C.ar    1  LIG1        0.1799
      5 O           0.8333    3.3870   -1.1955 O.2     1  LIG1       -0.4557
      6 H           0.9123    1.4994   -2.0698 H       1  LIG1        0.1068
      7 O           1.8927    0.5090    0.5850 O.3     1  LIG1       -0.4917
      8 C           1.8050   -0.5683   -0.3238 C.3     1  LIG1        0.0789
      9 H           2.1237   -1.4621    0.2116 H       1  LIG1        0.0660
     10 H           0.7751   -0.7019   -0.6774 H       1  LIG1        0.0660
     11 H           2.4601   -0.4079   -1.1892 H       1  LIG1        0.0660
     12 C           2.0071    2.9967    2.2922 C.3     1  LIG1       -0.0325
     13 H           2.0204    4.0335    2.6291 H       1  LIG1        0.0280
     14 H           3.0067    2.5707    2.4173 H       1  LIG1        0.0280
     15 H           1.3350    2.4371    2.9496 H       1  LIG1        0.0280
     16 C           0.8986    5.3048    0.2637 C.ar    1  LIG1        0.2116
     17 C           1.1145    6.4737   -0.4187 C.ar    1  LIG1        0.1716
     18 C           0.5741    7.5440    0.3692 C.ar    1  LIG1        0.0297
     19 C           0.0844    6.9482    1.4812 C.ar    1  LIG1        0.0993
     20 O           0.2632    5.6092    1.4470 O.2     1  LIG1       -0.4557
     21 H          -0.3998    7.3394    2.3628 H       1  LIG1        0.1033
     22 O           1.7217    6.7487   -1.5919 O.3     1  LIG1       -0.4909
     23 C           2.5680    5.7587   -2.1528 C.3     1  LIG1        0.0790
     24 H           3.0921    6.2408   -2.9782 H       1  LIG1        0.0660
     25 H           3.2966    5.4055   -1.4144 H       1  LIG1        0.0660
     26 H           1.9934    4.9070   -2.5225 H       1  LIG1        0.0660
     27 C           0.5955    8.9896    0.0003 C.3     1  LIG1       -0.0332
     28 H           0.1728    9.6051    0.7972 H       1  LIG1        0.0280
     29 H           0.0215    9.1729   -0.9126 H       1  LIG1        0.0280
     30 H           1.6172    9.3293   -0.1907 H       1  LIG1        0.0280
@<TRIPOS>BOND
     1    24    23    1
     2    26    23    1
     3    23    22    1
     4    23    25    1
     5     6     1    1
     6    22    17    1
     7     5     1   ar
     8     5     4   ar
     9    11     8    1
    10     1     2   ar
    11    29    27    1
    12    10     8    1
    13    17    16   ar
    14    17    18   ar
    15     8     9    1
    16     8     7    1
    17    30    27    1
    18    27    18    1
    19    27    28    1
    20     4    16    1
    21     4     3   ar
    22     2     7    1
    23     2     3   ar
    24    16    20   ar
    25    18    19   ar
    26     3    12    1
    27    20    19   ar
    28    19    21    1
    29    12    14    1
    30    12    13    1
    31    12    15    1
