@<TRIPOS>MOLECULE
mol_data/opt/cam/geoms/mol2/12li12li12li12li-.out
 58 61 0 0 0
SMALL
GASTEIGER

@<TRIPOS>ATOM
      1 C           2.6392    2.2574   -1.0954 C.ar    1  LIG1        0.1345
      2 C           1.4124    1.6798   -1.1829 C.ar    1  LIG1        0.1612
      3 C           0.4272    2.6917   -0.9395 C.ar    1  LIG1        0.0402
      4 C           1.1505    3.8308   -0.7210 C.ar    1  LIG1        0.1799
      5 O           2.4866    3.5849   -0.8108 O.2     1  LIG1       -0.4557
      6 H           3.6498    1.9042   -1.2035 H       1  LIG1        0.1068
      7 O           1.0662    0.4002   -1.4438 O.3     1  LIG1       -0.4917
      8 C           2.1511   -0.4755   -1.6676 C.3     1  LIG1        0.0789
      9 H           1.7287   -1.4601   -1.8657 H       1  LIG1        0.0660
     10 H           2.7458   -0.1524   -2.5309 H       1  LIG1        0.0660
     11 H           2.8028   -0.5283   -0.7865 H       1  LIG1        0.0660
     12 C          -1.0486    2.4579   -0.9481 C.3     1  LIG1       -0.0325
     13 H          -1.6053    3.3567   -0.6886 H       1  LIG1        0.0280
     14 H          -1.3134    1.6646   -0.2420 H       1  LIG1        0.0280
     15 H          -1.3797    2.1209   -1.9353 H       1  LIG1        0.0280
     16 C           0.7804    5.1918   -0.4286 C.ar    1  LIG1        0.2126
     17 C           1.4787    6.3493   -0.2062 C.ar    1  LIG1        0.1723
     18 C           0.5284    7.3940    0.0222 C.ar    1  LIG1        0.0410
     19 C          -0.6957    6.7972   -0.0953 C.ar    1  LIG1        0.1809
     20 O          -0.5495    5.4655   -0.3605 O.2     1  LIG1       -0.4444
     21 O           2.8228    6.5513   -0.2204 O.3     1  LIG1       -0.4909
     22 C           3.5255    6.0363    0.9043 C.3     1  LIG1        0.0790
     23 H           4.5637    6.3500    0.7885 H       1  LIG1        0.0660
     24 H           3.1264    6.4459    1.8393 H       1  LIG1        0.0660
     25 H           3.4772    4.9448    0.9317 H       1  LIG1        0.0660
     26 C           0.8782    8.8063    0.3592 C.3     1  LIG1       -0.0325
     27 H          -0.0084    9.4389    0.3994 H       1  LIG1        0.0280
     28 H           1.5711    9.2167   -0.3807 H       1  LIG1        0.0280
     29 H           1.3832    8.8590    1.3289 H       1  LIG1        0.0280
     30 C          -2.0590    7.2526    0.0063 C.ar    1  LIG1        0.2127
     31 C          -2.6993    8.4500   -0.1678 C.ar    1  LIG1        0.1723
     32 C          -4.0903    8.2518    0.0904 C.ar    1  LIG1        0.0410
     33 C          -4.2033    6.9231    0.3927 C.ar    1  LIG1        0.1809
     34 O          -2.9881    6.3135    0.3454 O.2     1  LIG1       -0.4444
     35 O          -2.1511    9.6483   -0.5199 O.3     1  LIG1       -0.4909
     36 C          -1.7706    9.7342   -1.8905 C.3     1  LIG1        0.0790
     37 H          -1.3902   10.7445   -2.0446 H       1  LIG1        0.0660
     38 H          -0.9863    9.0090   -2.1298 H       1  LIG1        0.0660
     39 H          -2.6314    9.5630   -2.5454 H       1  LIG1        0.0660
     40 C          -5.1480    9.3044    0.0167 C.3     1  LIG1       -0.0325
     41 H          -5.9094    9.0601   -0.7286 H       1  LIG1        0.0280
     42 H          -4.6916   10.2594   -0.2500 H       1  LIG1        0.0280
     43 H          -5.6622    9.4241    0.9735 H       1  LIG1        0.0280
     44 C          -5.3229    6.0847    0.7222 C.ar    1  LIG1        0.2116
     45 C          -5.4760    4.7399    0.9301 C.ar    1  LIG1        0.1716
     46 C          -6.8672    4.5052    1.1873 C.ar    1  LIG1        0.0297
     47 C          -7.4509    5.7255    1.1138 C.ar    1  LIG1        0.0993
     48 O          -6.5365    6.6937    0.8386 O.2     1  LIG1       -0.4557
     49 H          -8.4694    6.0610    1.2300 H       1  LIG1        0.1033
     50 O          -4.5394    3.7570    0.8574 O.3     1  LIG1       -0.4909
     51 C          -3.6550    3.6772    1.9704 C.3     1  LIG1        0.0790
     52 H          -3.0332    2.7965    1.8056 H       1  LIG1        0.0660
     53 H          -3.0170    4.5625    2.0287 H       1  LIG1        0.0660
     54 H          -4.2115    3.5596    2.9074 H       1  LIG1        0.0660
     55 C          -7.4962    3.1781    1.4554 C.3     1  LIG1       -0.0332
     56 H          -7.0983    2.7266    2.3689 H       1  LIG1        0.0280
     57 H          -7.2951    2.4800    0.6385 H       1  LIG1        0.0280
     58 H          -8.5783    3.2700    1.5686 H       1  LIG1        0.0280
@<TRIPOS>BOND
     1    39    36    1
     2    10     8    1
     3    38    36    1
     4    37    36    1
     5    15    12    1
     6    36    35    1
     7     9     8    1
     8     8     7    1
     9     8    11    1
    10     7     2    1
    11     6     1    1
    12     2     1   ar
    13     2     3   ar
    14     1     5   ar
    15    12     3    1
    16    12    13    1
    17    12    14    1
    18     3     4   ar
    19     5     4   ar
    20    41    40    1
    21     4    16    1
    22    35    31    1
    23    16    20   ar
    24    16    17   ar
    25    28    26    1
    26    20    19   ar
    27    42    40    1
    28    21    17    1
    29    21    22    1
    30    17    18   ar
    31    31    30   ar
    32    31    32   ar
    33    19    30    1
    34    19    18   ar
    35    30    34   ar
    36    40    32    1
    37    40    43    1
    38    18    26    1
    39    32    33   ar
    40    34    33   ar
    41    26    27    1
    42    26    29    1
    43    33    44    1
    44    57    55    1
    45    44    48   ar
    46    44    45   ar
    47    23    22    1
    48    48    47   ar
    49    50    45    1
    50    50    51    1
    51    22    25    1
    52    22    24    1
    53    45    46   ar
    54    47    46   ar
    55    47    49    1
    56    46    55    1
    57    55    58    1
    58    55    56    1
    59    52    51    1
    60    51    53    1
    61    51    54    1
