@<TRIPOS>MOLECULE
mol_data/opt/cam/geoms/mol2/12li12li-12li12li.out
 58 61 0 0 0
SMALL
GASTEIGER

@<TRIPOS>ATOM
      1 C          -0.1678    2.0188   -0.4065 C.ar    1  LIG1        0.1345
      2 C           1.1820    1.8778   -0.3407 C.ar    1  LIG1        0.1612
      3 C           1.7602    3.1856   -0.2479 C.ar    1  LIG1        0.0402
      4 C           0.6909    4.0371   -0.2575 C.ar    1  LIG1        0.1799
      5 O          -0.4794    3.3483   -0.3543 O.2     1  LIG1       -0.4557
      6 H          -0.9958    1.3360   -0.4840 H       1  LIG1        0.1068
      7 O           1.9459    0.7635   -0.3581 O.3     1  LIG1       -0.4917
      8 C           1.2281   -0.4480   -0.4642 C.3     1  LIG1        0.0789
      9 H           1.9625   -1.2529   -0.4675 H       1  LIG1        0.0660
     10 H           0.5475   -0.5778    0.3863 H       1  LIG1        0.0660
     11 H           0.6461   -0.4806   -1.3936 H       1  LIG1        0.0660
     12 C           3.2260    3.4635   -0.1689 C.3     1  LIG1       -0.0325
     13 H           3.4420    4.5280   -0.2481 H       1  LIG1        0.0280
     14 H           3.7552    2.9364   -0.9680 H       1  LIG1        0.0280
     15 H           3.6403    3.0976    0.7768 H       1  LIG1        0.0280
     16 C           0.5741    5.4704   -0.1855 C.ar    1  LIG1        0.2126
     17 C          -0.4654    6.3568   -0.2896 C.ar    1  LIG1        0.1723
     18 C           0.0603    7.6732   -0.0979 C.ar    1  LIG1        0.0410
     19 C           1.4000    7.4949    0.1063 C.ar    1  LIG1        0.1809
     20 O           1.7192    6.1695    0.0543 O.2     1  LIG1       -0.4444
     21 O          -1.7866    6.1047   -0.4806 O.3     1  LIG1       -0.4909
     22 C          -2.1375    5.6399   -1.7783 C.3     1  LIG1        0.0790
     23 H          -3.2262    5.5757   -1.7977 H       1  LIG1        0.0660
     24 H          -1.8026    6.3414   -2.5508 H       1  LIG1        0.0660
     25 H          -1.7129    4.6514   -1.9709 H       1  LIG1        0.0660
     26 C          -0.7488    8.9288   -0.1174 C.3     1  LIG1       -0.0325
     27 H          -1.6810    8.7816    0.4333 H       1  LIG1        0.0280
     28 H          -1.0240    9.2036   -1.1417 H       1  LIG1        0.0280
     29 H          -0.2051    9.7666    0.3185 H       1  LIG1        0.0280
     30 C           2.4970    8.3856    0.3604 C.ar    1  LIG1        0.2127
     31 C           3.8132    8.1985    0.6917 C.ar    1  LIG1        0.1723
     32 C           4.4230    9.4863    0.8061 C.ar    1  LIG1        0.0410
     33 C           3.4228   10.3769    0.5340 C.ar    1  LIG1        0.1809
     34 O           2.2571    9.7226    0.2620 O.2     1  LIG1       -0.4444
     35 O           4.4737    7.0207    0.8593 O.3     1  LIG1       -0.4909
     36 C           4.2256    6.3785    2.1058 C.3     1  LIG1        0.0790
     37 H           4.8691    5.4985    2.1340 H       1  LIG1        0.0660
     38 H           4.4740    7.0394    2.9437 H       1  LIG1        0.0660
     39 H           3.1807    6.0647    2.1837 H       1  LIG1        0.0660
     40 C           5.8546    9.7394    1.1495 C.3     1  LIG1       -0.0325
     41 H           6.3113   10.4554    0.4634 H       1  LIG1        0.0280
     42 H           6.4099    8.8009    1.0995 H       1  LIG1        0.0280
     43 H           5.9614   10.1477    2.1590 H       1  LIG1        0.0280
     44 C           3.3660   11.8116    0.4887 C.ar    1  LIG1        0.2116
     45 C           2.3791   12.7109    0.1874 C.ar    1  LIG1        0.1716
     46 C           2.9305   14.0234    0.3568 C.ar    1  LIG1        0.0297
     47 C           4.2112   13.8187    0.7491 C.ar    1  LIG1        0.0993
     48 O           4.4957   12.4909    0.8318 O.2     1  LIG1       -0.4557
     49 H           5.0187   14.4883    0.9998 H       1  LIG1        0.1033
     50 O           1.0900   12.4581   -0.1713 O.3     1  LIG1       -0.4909
     51 C           0.9224   12.0571   -1.5266 C.3     1  LIG1        0.0790
     52 H          -0.1518   11.9661   -1.6923 H       1  LIG1        0.0660
     53 H           1.3338   12.8060   -2.2130 H       1  LIG1        0.0660
     54 H           1.4000   11.0906   -1.7118 H       1  LIG1        0.0660
     55 C           2.2069   15.3128    0.1508 C.3     1  LIG1       -0.0332
     56 H           2.8407   16.1655    0.4026 H       1  LIG1        0.0280
     57 H           1.3086   15.3587    0.7722 H       1  LIG1        0.0280
     58 H           1.8849   15.4277   -0.8884 H       1  LIG1        0.0280
@<TRIPOS>BOND
     1    24    22    1
     2    53    51    1
     3    25    22    1
     4    23    22    1
     5    22    21    1
     6    54    51    1
     7    52    51    1
     8    51    50    1
     9    11     8    1
    10    28    26    1
    11    14    12    1
    12    58    55    1
    13     6     1    1
    14    21    17    1
    15     9     8    1
    16     8     7    1
    17     8    10    1
    18     1     5   ar
    19     1     2   ar
    20     7     2    1
    21     5     4   ar
    22     2     3   ar
    23    17    16   ar
    24    17    18   ar
    25     4     3   ar
    26     4    16    1
    27    13    12    1
    28     3    12    1
    29    16    20   ar
    30    50    45    1
    31    12    15    1
    32    26    18    1
    33    26    29    1
    34    26    27    1
    35    18    19   ar
    36    20    19   ar
    37    19    30    1
    38    55    46    1
    39    55    56    1
    40    55    57    1
    41    45    46   ar
    42    45    44   ar
    43    34    30   ar
    44    34    33   ar
    45    46    47   ar
    46    30    31   ar
    47    41    40    1
    48    44    33    1
    49    44    48   ar
    50    33    32   ar
    51    31    32   ar
    52    31    35    1
    53    47    48   ar
    54    47    49    1
    55    32    40    1
    56    35    36    1
    57    42    40    1
    58    40    43    1
    59    36    37    1
    60    36    39    1
    61    36    38    1
