@<TRIPOS>MOLECULE
mol_data/opt/cam/geoms/mol2/12li12li12li-12li.out
 58 61 0 0 0
SMALL
GASTEIGER

@<TRIPOS>ATOM
      1 C           2.2734    2.0269   -0.7995 C.ar    1  LIG1        0.1345
      2 C           1.2945    1.5956    0.0382 C.ar    1  LIG1        0.1612
      3 C           0.4126    2.6959    0.2931 C.ar    1  LIG1        0.0402
      4 C           0.9334    3.7307   -0.4326 C.ar    1  LIG1        0.1799
      5 O           2.0571    3.3432   -1.0962 O.2     1  LIG1       -0.4557
      6 H           3.1344    1.5691   -1.2544 H       1  LIG1        0.1068
      7 O           1.0937    0.3812    0.5954 O.3     1  LIG1       -0.4917
      8 C           2.0555   -0.5954    0.2556 C.3     1  LIG1        0.0789
      9 H           1.7720   -1.5128    0.7704 H       1  LIG1        0.0660
     10 H           2.0701   -0.7732   -0.8268 H       1  LIG1        0.0660
     11 H           3.0582   -0.2896    0.5794 H       1  LIG1        0.0660
     12 C          -0.7883    2.6354    1.1798 C.3     1  LIG1       -0.0325
     13 H          -1.2257    3.6201    1.3381 H       1  LIG1        0.0280
     14 H          -0.5212    2.2084    2.1507 H       1  LIG1        0.0280
     15 H          -1.5559    1.9828    0.7500 H       1  LIG1        0.0280
     16 C           0.5313    5.1004   -0.6212 C.ar    1  LIG1        0.2126
     17 C           1.0773    6.1838   -1.2577 C.ar    1  LIG1        0.1723
     18 C           0.1707    7.2805   -1.1120 C.ar    1  LIG1        0.0410
     19 C          -0.8740    6.7840   -0.3836 C.ar    1  LIG1        0.1809
     20 O          -0.6647    5.4699   -0.0822 O.2     1  LIG1       -0.4444
     21 O           2.2334    6.2643   -1.9667 O.3     1  LIG1       -0.4909
     22 C           3.4272    6.1966   -1.1964 C.3     1  LIG1        0.0790
     23 H           4.2510    6.3672   -1.8907 H       1  LIG1        0.0660
     24 H           3.4399    6.9722   -0.4222 H       1  LIG1        0.0660
     25 H           3.5419    5.2134   -0.7330 H       1  LIG1        0.0660
     26 C           0.3831    8.6470   -1.6767 C.3     1  LIG1       -0.0325
     27 H          -0.5384    9.2286   -1.6850 H       1  LIG1        0.0280
     28 H           0.7699    8.5745   -2.6960 H       1  LIG1        0.0280
     29 H           1.1255    9.2028   -1.0931 H       1  LIG1        0.0280
     30 C          -2.1029    7.3424    0.1054 C.ar    1  LIG1        0.2127
     31 C          -3.2056    6.8132    0.7226 C.ar    1  LIG1        0.1723
     32 C          -4.1173    7.8830    0.9827 C.ar    1  LIG1        0.0410
     33 C          -3.4982    9.0011    0.4988 C.ar    1  LIG1        0.1809
     34 O          -2.2813    8.6857   -0.0310 O.2     1  LIG1       -0.4444
     35 O          -3.4248    5.5173    1.0752 O.3     1  LIG1       -0.4909
     36 C          -3.8096    4.6706   -0.0032 C.3     1  LIG1        0.0790
     37 H          -4.0230    3.6934    0.4315 H       1  LIG1        0.0660
     38 H          -4.7078    5.0529   -0.5007 H       1  LIG1        0.0660
     39 H          -3.0002    4.5727   -0.7324 H       1  LIG1        0.0660
     40 C          -5.4474    7.7450    1.6485 C.3     1  LIG1       -0.0325
     41 H          -5.5306    6.7490    2.0874 H       1  LIG1        0.0280
     42 H          -6.2696    7.8766    0.9387 H       1  LIG1        0.0280
     43 H          -5.5808    8.4890    2.4364 H       1  LIG1        0.0280
     44 C          -3.8725   10.3866    0.4380 C.ar    1  LIG1        0.2116
     45 C          -3.2479   11.5169   -0.0155 C.ar    1  LIG1        0.1716
     46 C          -4.1584   12.6097    0.1638 C.ar    1  LIG1        0.0297
     47 C          -5.2671   12.0570    0.7126 C.ar    1  LIG1        0.0993
     48 O          -5.1144   10.7168    0.8897 O.2     1  LIG1       -0.4557
     49 H          -6.2151   12.4666    1.0239 H       1  LIG1        0.1033
     50 O          -2.0122   11.6289   -0.5767 O.3     1  LIG1       -0.4909
     51 C          -0.9361   11.5965    0.3542 C.3     1  LIG1        0.0790
     52 H          -0.0250   11.7726   -0.2190 H       1  LIG1        0.0660
     53 H          -1.0463   12.3810    1.1116 H       1  LIG1        0.0660
     54 H          -0.8715   10.6213    0.8454 H       1  LIG1        0.0660
     55 C          -3.9043   14.0337   -0.2055 C.3     1  LIG1       -0.0332
     56 H          -4.7832   14.6532   -0.0161 H       1  LIG1        0.0280
     57 H          -3.6454   14.1211   -1.2639 H       1  LIG1        0.0280
     58 H          -3.0691   14.4506    0.3652 H       1  LIG1        0.0280
@<TRIPOS>BOND
     1    28    26    1
     2    21    17    1
     3    21    22    1
     4    23    22    1
     5    27    26    1
     6    26    18    1
     7    26    29    1
     8    57    55    1
     9    17    18   ar
    10    17    16   ar
    11     6     1    1
    12    22    25    1
    13    22    24    1
    14    18    19   ar
    15     5     1   ar
    16     5     4   ar
    17    10     8    1
    18     1     2   ar
    19    39    36    1
    20    16     4    1
    21    16    20   ar
    22    50    45    1
    23    50    51    1
    24    38    36    1
    25     4     3   ar
    26    19    20   ar
    27    19    30    1
    28    52    51    1
    29    55    56    1
    30    55    46    1
    31    55    58    1
    32    34    30   ar
    33    34    33   ar
    34    45    46   ar
    35    45    44   ar
    36    36    37    1
    37    36    35    1
    38     2     3   ar
    39     2     7    1
    40    30    31   ar
    41    46    47   ar
    42     8    11    1
    43     8     7    1
    44     8     9    1
    45     3    12    1
    46    51    54    1
    47    51    53    1
    48    44    33    1
    49    44    48   ar
    50    33    32   ar
    51    47    48   ar
    52    47    49    1
    53    31    32   ar
    54    31    35    1
    55    15    12    1
    56    42    40    1
    57    32    40    1
    58    12    13    1
    59    12    14    1
    60    40    41    1
    61    40    43    1
