@<TRIPOS>MOLECULE
mol_data/opt/cam/geoms/mol2/12li12li-12li.out
 44 46 0 0 0
SMALL
GASTEIGER

@<TRIPOS>ATOM
      1 C          -0.2167    1.9683    0.2974 C.ar    1  LIG1        0.1345
      2 C           1.0696    1.9114   -0.1367 C.ar    1  LIG1        0.1612
      3 C           1.5479    3.2544   -0.2821 C.ar    1  LIG1        0.0402
      4 C           0.4932    4.0390    0.0923 C.ar    1  LIG1        0.1799
      5 O          -0.5795    3.2779    0.4436 O.2     1  LIG1       -0.4557
      6 H          -0.9658    1.2346    0.5390 H       1  LIG1        0.1068
      7 O           1.8492    0.8451   -0.4206 O.3     1  LIG1       -0.4917
      8 C           1.2269   -0.4102   -0.2431 C.3     1  LIG1        0.0789
      9 H           1.9621   -1.1694   -0.5081 H       1  LIG1        0.0660
     10 H           0.9157   -0.5509    0.7994 H       1  LIG1        0.0660
     11 H           0.3485   -0.5092   -0.8929 H       1  LIG1        0.0660
     12 C           2.9144    3.6251   -0.7588 C.3     1  LIG1       -0.0325
     13 H           3.0011    4.6944   -0.9475 H       1  LIG1        0.0280
     14 H           3.1540    3.0838   -1.6785 H       1  LIG1        0.0280
     15 H           3.6742    3.3447   -0.0213 H       1  LIG1        0.0280
     16 C           0.3122    5.4648    0.1822 C.ar    1  LIG1        0.2126
     17 C          -0.7629    6.2880    0.3966 C.ar    1  LIG1        0.1723
     18 C          -0.2874    7.6370    0.3956 C.ar    1  LIG1        0.0410
     19 C           1.0570    7.5395    0.1757 C.ar    1  LIG1        0.1809
     20 O           1.4286    6.2354    0.0453 O.2     1  LIG1       -0.4444
     21 O          -2.0617    5.9586    0.6178 O.3     1  LIG1       -0.4909
     22 C          -2.7454    5.3857   -0.4908 C.3     1  LIG1        0.0790
     23 H          -3.7876    5.2803   -0.1868 H       1  LIG1        0.0660
     24 H          -2.6878    6.0405   -1.3674 H       1  LIG1        0.0660
     25 H          -2.3396    4.4019   -0.7389 H       1  LIG1        0.0660
     26 C          -1.1319    8.8522    0.5987 C.3     1  LIG1       -0.0325
     27 H          -2.1582    8.5468    0.8094 H       1  LIG1        0.0280
     28 H          -1.1337    9.4942   -0.2864 H       1  LIG1        0.0280
     29 H          -0.7712    9.4576    1.4338 H       1  LIG1        0.0280
     30 C           2.1071    8.5120    0.0522 C.ar    1  LIG1        0.2116
     31 C           3.4586    8.4257   -0.1451 C.ar    1  LIG1        0.1716
     32 C           3.9671    9.7645   -0.2126 C.ar    1  LIG1        0.0297
     33 C           2.8826   10.5607   -0.0516 C.ar    1  LIG1        0.0993
     34 O           1.7503    9.8250    0.1133 O.2     1  LIG1       -0.4557
     35 H           2.7539   11.6314   -0.0307 H       1  LIG1        0.1033
     36 O           4.2168    7.3042   -0.2950 O.3     1  LIG1       -0.4909
     37 C           4.5202    6.6314    0.9222 C.3     1  LIG1        0.0790
     38 H           5.1887    5.8093    0.6639 H       1  LIG1        0.0660
     39 H           5.0242    7.3018    1.6278 H       1  LIG1        0.0660
     40 H           3.6141    6.2290    1.3842 H       1  LIG1        0.0660
     41 C           5.3919   10.1532   -0.4311 C.3     1  LIG1       -0.0332
     42 H           5.4992   11.2379   -0.4963 H       1  LIG1        0.0280
     43 H           5.7780    9.7149   -1.3552 H       1  LIG1        0.0280
     44 H           6.0310    9.8001    0.3836 H       1  LIG1        0.0280
@<TRIPOS>BOND
     1    14    12    1
     2    24    22    1
     3    43    41    1
     4    13    12    1
     5    11     8    1
     6    12     3    1
     7    12    15    1
     8    25    22    1
     9     9     8    1
    10    42    41    1
    11    22    23    1
    12    22    21    1
    13    41    32    1
    14    41    44    1
    15     7     8    1
    16     7     2    1
    17    36    31    1
    18    36    37    1
    19    28    26    1
    20     3     2   ar
    21     3     4   ar
    22     8    10    1
    23    32    31   ar
    24    32    33   ar
    25    31    30   ar
    26     2     1   ar
    27    33    35    1
    28    33    34   ar
    29    20    19   ar
    30    20    16   ar
    31    30    34   ar
    32    30    19    1
    33     4    16    1
    34     4     5   ar
    35    19    18   ar
    36    16    17   ar
    37     1     5   ar
    38     1     6    1
    39    18    17   ar
    40    18    26    1
    41    17    21    1
    42    26    27    1
    43    26    29    1
    44    38    37    1
    45    37    40    1
    46    37    39    1
