@<TRIPOS>MOLECULE
mol_data/opt/cam/geoms/mol2/12li12li12li.out
 44 46 0 0 0
SMALL
GASTEIGER

@<TRIPOS>ATOM
      1 C           2.4533    2.6465   -1.4791 C.ar    1  LIG1        0.1345
      2 C           1.2328    2.1661   -1.1244 C.ar    1  LIG1        0.1612
      3 C           0.4742    3.2486   -0.5710 C.ar    1  LIG1        0.0402
      4 C           1.3097    4.3279   -0.6431 C.ar    1  LIG1        0.1799
      5 O           2.5081    3.9807   -1.1876 O.2     1  LIG1       -0.4557
      6 H           3.3354    2.2167   -1.9206 H       1  LIG1        0.1068
      7 O           0.7239    0.9181   -1.2201 O.3     1  LIG1       -0.4917
      8 C           1.6017   -0.0410   -1.7716 C.3     1  LIG1        0.0789
      9 H           1.0669   -0.9902   -1.7855 H       1  LIG1        0.0660
     10 H           1.8894    0.2315   -2.7945 H       1  LIG1        0.0660
     11 H           2.5083   -0.1410   -1.1619 H       1  LIG1        0.0660
     12 C          -0.9177    3.1302   -0.0414 C.3     1  LIG1       -0.0325
     13 H          -1.6282    2.9356   -0.8521 H       1  LIG1        0.0280
     14 H          -1.2319    4.0352    0.4770 H       1  LIG1        0.0280
     15 H          -0.9891    2.2849    0.6489 H       1  LIG1        0.0280
     16 C           1.1642    5.7102   -0.2664 C.ar    1  LIG1        0.2126
     17 C           2.0181    6.7787   -0.1741 C.ar    1  LIG1        0.1723
     18 C           1.2545    7.9134    0.2446 C.ar    1  LIG1        0.0410
     19 C          -0.0231    7.4506    0.3818 C.ar    1  LIG1        0.1809
     20 O          -0.0886    6.1246    0.0768 O.2     1  LIG1       -0.4444
     21 O           3.3464    6.8385   -0.4505 O.3     1  LIG1       -0.4909
     22 C           4.1896    6.1122    0.4361 C.3     1  LIG1        0.0790
     23 H           5.2144    6.3468    0.1454 H       1  LIG1        0.0660
     24 H           4.0269    6.4232    1.4741 H       1  LIG1        0.0660
     25 H           4.0248    5.0359    0.3441 H       1  LIG1        0.0660
     26 C           1.7970    9.2874    0.4664 C.3     1  LIG1       -0.0325
     27 H           1.6955    9.5971    1.5101 H       1  LIG1        0.0280
     28 H           1.2733   10.0294   -0.1412 H       1  LIG1        0.0280
     29 H           2.8550    9.3045    0.1995 H       1  LIG1        0.0280
     30 C          -1.2569    8.0701    0.7790 C.ar    1  LIG1        0.2116
     31 C          -2.5449    7.6232    0.8981 C.ar    1  LIG1        0.1716
     32 C          -3.3354    8.7200    1.3756 C.ar    1  LIG1        0.0297
     33 C          -2.4639    9.7487    1.5102 C.ar    1  LIG1        0.0993
     34 O          -1.2047    9.3790    1.1520 O.2     1  LIG1       -0.4557
     35 H          -2.5782   10.7703    1.8370 H       1  LIG1        0.1033
     36 O          -3.0267    6.3720    0.6587 O.3     1  LIG1       -0.4909
     37 C          -3.2268    6.0717   -0.7183 C.3     1  LIG1        0.0790
     38 H          -3.6830    5.0817   -0.7567 H       1  LIG1        0.0660
     39 H          -3.8986    6.7999   -1.1868 H       1  LIG1        0.0660
     40 H          -2.2754    6.0525   -1.2578 H       1  LIG1        0.0660
     41 C          -4.7997    8.6872    1.6648 C.3     1  LIG1       -0.0332
     42 H          -5.1430    9.6410    2.0706 H       1  LIG1        0.0280
     43 H          -5.0366    7.9024    2.3881 H       1  LIG1        0.0280
     44 H          -5.3800    8.4773    0.7614 H       1  LIG1        0.0280
@<TRIPOS>BOND
     1    10     8    1
     2     6     1    1
     3     9     8    1
     4     8     7    1
     5     8    11    1
     6     1     5   ar
     7     1     2   ar
     8    40    37    1
     9     7     2    1
    10     5     4   ar
    11    39    37    1
    12     2     3   ar
    13    13    12    1
    14    38    37    1
    15    37    36    1
    16     4     3   ar
    17     4    16    1
    18     3    12    1
    19    21    17    1
    20    21    22    1
    21    16    17   ar
    22    16    20   ar
    23    17    18   ar
    24    28    26    1
    25    12    14    1
    26    12    15    1
    27    20    19   ar
    28    23    22    1
    29    29    26    1
    30    18    19   ar
    31    18    26    1
    32    25    22    1
    33    19    30    1
    34    22    24    1
    35    26    27    1
    36    36    31    1
    37    44    41    1
    38    30    31   ar
    39    30    34   ar
    40    31    32   ar
    41    34    33   ar
    42    32    33   ar
    43    32    41    1
    44    33    35    1
    45    41    42    1
    46    41    43    1
