@<TRIPOS>MOLECULE
mol_data/opt/cam/geoms/mol2/12li12li-12li12li-.out
 58 61 0 0 0
SMALL
GASTEIGER

@<TRIPOS>ATOM
      1 C          -0.1054    2.1215    0.9094 C.ar    1  LIG1        0.1345
      2 C           1.0748    2.0386    0.2407 C.ar    1  LIG1        0.1612
      3 C           1.3826    3.3405   -0.2714 C.ar    1  LIG1        0.0402
      4 C           0.3489    4.1329    0.1387 C.ar    1  LIG1        0.1799
      5 O          -0.5552    3.4111    0.8619 O.2     1  LIG1       -0.4557
      6 H          -0.7226    1.4180    1.4407 H       1  LIG1        0.1068
      7 O           1.8853    0.9788    0.0271 O.3     1  LIG1       -0.4917
      8 C           1.4392   -0.2352    0.5942 C.3     1  LIG1        0.0789
      9 H           2.1828   -0.9927    0.3485 H       1  LIG1        0.0660
     10 H           1.3497   -0.1509    1.6844 H       1  LIG1        0.0660
     11 H           0.4671   -0.5296    0.1795 H       1  LIG1        0.0660
     12 C           2.5820    3.6806   -1.0941 C.3     1  LIG1       -0.0325
     13 H           2.6402    4.7502   -1.2948 H       1  LIG1        0.0280
     14 H           2.5647    3.1437   -2.0477 H       1  LIG1        0.0280
     15 H           3.4990    3.3786   -0.5789 H       1  LIG1        0.0280
     16 C           0.1080    5.5502   -0.0122 C.ar    1  LIG1        0.2126
     17 C          -0.9785    6.3773   -0.1447 C.ar    1  LIG1        0.1723
     18 C          -0.5025    7.7260   -0.2098 C.ar    1  LIG1        0.0410
     19 C           0.8565    7.6282   -0.1270 C.ar    1  LIG1        0.1809
     20 O           1.2387    6.3308   -0.0025 O.2     1  LIG1       -0.4444
     21 O          -2.3014    6.1301   -0.2441 O.3     1  LIG1       -0.4909
     22 C          -2.7095    4.8741   -0.7649 C.3     1  LIG1        0.0790
     23 H          -3.7704    4.9728   -0.9962 H       1  LIG1        0.0660
     24 H          -2.1568    4.6361   -1.6805 H       1  LIG1        0.0660
     25 H          -2.5599    4.0739   -0.0380 H       1  LIG1        0.0660
     26 C          -1.3735    8.9264   -0.3822 C.3     1  LIG1       -0.0325
     27 H          -1.9225    9.1478    0.5393 H       1  LIG1        0.0280
     28 H          -2.1215    8.7381   -1.1568 H       1  LIG1        0.0280
     29 H          -0.7943    9.8090   -0.6527 H       1  LIG1        0.0280
     30 C           1.9249    8.5874   -0.1796 C.ar    1  LIG1        0.2127
     31 C           3.2789    8.4816   -0.3540 C.ar    1  LIG1        0.1723
     32 C           3.8218    9.8043   -0.3750 C.ar    1  LIG1        0.0410
     33 C           2.7452   10.6308   -0.2145 C.ar    1  LIG1        0.1809
     34 O           1.5971    9.9055   -0.0864 O.2     1  LIG1       -0.4444
     35 O           4.0042    7.3468   -0.5451 O.3     1  LIG1       -0.4909
     36 C           4.3616    6.6654    0.6534 C.3     1  LIG1        0.0790
     37 H           4.9885    5.8243    0.3551 H       1  LIG1        0.0660
     38 H           4.9284    7.3210    1.3242 H       1  LIG1        0.0660
     39 H           3.4720    6.2914    1.1676 H       1  LIG1        0.0660
     40 C           5.2645   10.1443   -0.5607 C.3     1  LIG1       -0.0325
     41 H           5.7358   10.4367    0.3830 H       1  LIG1        0.0280
     42 H           5.3933   10.9749   -1.2566 H       1  LIG1        0.0280
     43 H           5.7952    9.2724   -0.9483 H       1  LIG1        0.0280
     44 C           2.5937   12.0587   -0.1633 C.ar    1  LIG1        0.2116
     45 C           1.5124   12.8894   -0.0457 C.ar    1  LIG1        0.1716
     46 C           2.0019   14.2366   -0.0865 C.ar    1  LIG1        0.0297
     47 C           3.3442   14.1185   -0.2283 C.ar    1  LIG1        0.0993
     48 O           3.7228   12.8124   -0.2718 O.2     1  LIG1       -0.4557
     49 H           4.1408   14.8410   -0.3106 H       1  LIG1        0.1033
     50 O           0.1975   12.5476    0.0466 O.3     1  LIG1       -0.4909
     51 C          -0.2192   12.1547    1.3497 C.3     1  LIG1        0.0790
     52 H          -1.2945   11.9817    1.2926 H       1  LIG1        0.0660
     53 H           0.2799   11.2316    1.6583 H       1  LIG1        0.0660
     54 H          -0.0165   12.9435    2.0832 H       1  LIG1        0.0660
     55 C           1.1723   15.4751   -0.0060 C.3     1  LIG1       -0.0332
     56 H           0.6646   15.5536    0.9600 H       1  LIG1        0.0280
     57 H           0.3976   15.4748   -0.7772 H       1  LIG1        0.0280
     58 H           1.7849   16.3696   -0.1367 H       1  LIG1        0.0280
@<TRIPOS>BOND
     1    14    12    1
     2    24    22    1
     3    13    12    1
     4    42    40    1
     5    28    26    1
     6    12    15    1
     7    12     3    1
     8    23    22    1
     9    43    40    1
    10    57    55    1
    11    22    21    1
    12    22    25    1
    13    29    26    1
    14    40    32    1
    15    40    41    1
    16    35    31    1
    17    35    36    1
    18    26    18    1
    19    26    27    1
    20    32    31   ar
    21    32    33   ar
    22    31    30   ar
    23    49    47    1
    24    48    47   ar
    25    48    44   ar
    26     3     4   ar
    27     3     2   ar
    28    21    17    1
    29    47    46   ar
    30    33    44    1
    31    33    34   ar
    32    18    17   ar
    33    18    19   ar
    34    30    19    1
    35    30    34   ar
    36    44    45   ar
    37    17    16   ar
    38    58    55    1
    39    19    20   ar
    40    46    45   ar
    41    46    55    1
    42    45    50    1
    43    16    20   ar
    44    16     4    1
    45    55    56    1
    46     7     2    1
    47     7     8    1
    48    50    51    1
    49     4     5   ar
    50    11     8    1
    51     2     1   ar
    52     9     8    1
    53    37    36    1
    54     8    10    1
    55    36    39    1
    56    36    38    1
    57     5     1   ar
    58     1     6    1
    59    52    51    1
    60    51    53    1
    61    51    54    1
