@<TRIPOS>MOLECULE
mol_data/opt/cam/geoms/mol2/12li12li12li12li.out
 58 61 0 0 0
SMALL
GASTEIGER

@<TRIPOS>ATOM
      1 C           3.4213    3.5371   -2.0222 C.ar    1  LIG1        0.1345
      2 C           2.6394    3.6105   -3.1310 C.ar    1  LIG1        0.1612
      3 C           1.3686    4.1468   -2.7425 C.ar    1  LIG1        0.0402
      4 C           1.4842    4.3690   -1.3987 C.ar    1  LIG1        0.1799
      5 O           2.7165    4.0048   -0.9490 O.2     1  LIG1       -0.4557
      6 H           4.4269    3.2075   -1.8275 H       1  LIG1        0.1068
      7 O           2.9027    3.2647   -4.4103 O.3     1  LIG1       -0.4917
      8 C           4.1956    2.7411   -4.6307 C.3     1  LIG1        0.0789
      9 H           4.2669    2.5078   -5.6926 H       1  LIG1        0.0660
     10 H           4.9674    3.4740   -4.3649 H       1  LIG1        0.0660
     11 H           4.3556    1.8277   -4.0443 H       1  LIG1        0.0660
     12 C           0.2212    4.3734   -3.6721 C.3     1  LIG1       -0.0325
     13 H           0.4549    5.1655   -4.3916 H       1  LIG1        0.0280
     14 H          -0.6852    4.6533   -3.1371 H       1  LIG1        0.0280
     15 H           0.0214    3.4694   -4.2546 H       1  LIG1        0.0280
     16 C           0.5828    4.8971   -0.4078 C.ar    1  LIG1        0.2126
     17 C           0.6288    5.0425    0.9538 C.ar    1  LIG1        0.1723
     18 C          -0.5863    5.6731    1.3684 C.ar    1  LIG1        0.0410
     19 C          -1.2982    5.8649    0.2175 C.ar    1  LIG1        0.1809
     20 O          -0.6013    5.3991   -0.8589 O.2     1  LIG1       -0.4444
     21 O           1.6318    4.7243    1.8131 O.3     1  LIG1       -0.4909
     22 C           1.8400    3.3323    2.0189 C.3     1  LIG1        0.0790
     23 H           2.6036    3.2470    2.7931 H       1  LIG1        0.0660
     24 H           0.9208    2.8439    2.3618 H       1  LIG1        0.0660
     25 H           2.1946    2.8478    1.1056 H       1  LIG1        0.0660
     26 C          -0.9280    6.0279    2.7787 C.3     1  LIG1       -0.0325
     27 H          -1.7562    6.7345    2.8283 H       1  LIG1        0.0280
     28 H          -0.0574    6.4613    3.2767 H       1  LIG1        0.0280
     29 H          -1.2117    5.1375    3.3507 H       1  LIG1        0.0280
     30 C          -2.5800    6.4404   -0.0778 C.ar    1  LIG1        0.2127
     31 C          -3.2359    6.7484   -1.2405 C.ar    1  LIG1        0.1723
     32 C          -4.5078    7.3003   -0.8924 C.ar    1  LIG1        0.0410
     33 C          -4.5362    7.2899    0.4739 C.ar    1  LIG1        0.1809
     34 O          -3.3782    6.7712    0.9749 O.2     1  LIG1       -0.4444
     35 O          -2.8098    6.5524   -2.5179 O.3     1  LIG1       -0.4909
     36 C          -1.8621    7.5114   -2.9762 C.3     1  LIG1        0.0790
     37 H          -1.6696    7.2797   -4.0244 H       1  LIG1        0.0660
     38 H          -2.2622    8.5281   -2.8946 H       1  LIG1        0.0660
     39 H          -0.9275    7.4389   -2.4126 H       1  LIG1        0.0660
     40 C          -5.5440    7.7675   -1.8618 C.3     1  LIG1       -0.0325
     41 H          -5.6277    8.8583   -1.8685 H       1  LIG1        0.0280
     42 H          -6.5311    7.3708   -1.6162 H       1  LIG1        0.0280
     43 H          -5.2730    7.4390   -2.8670 H       1  LIG1        0.0280
     44 C          -5.5100    7.7103    1.4426 C.ar    1  LIG1        0.2116
     45 C          -5.5611    7.6756    2.8099 C.ar    1  LIG1        0.1716
     46 C          -6.7965    8.2851    3.2071 C.ar    1  LIG1        0.0297
     47 C          -7.4001    8.6436    2.0483 C.ar    1  LIG1        0.0993
     48 O          -6.6422    8.3028    0.9711 O.2     1  LIG1       -0.4557
     49 H          -8.3362    9.1320    1.8279 H       1  LIG1        0.1033
     50 O          -4.6242    7.2000    3.6761 O.3     1  LIG1       -0.4909
     51 C          -4.5980    5.7821    3.7970 C.3     1  LIG1        0.0790
     52 H          -3.8647    5.5504    4.5705 H       1  LIG1        0.0660
     53 H          -5.5779    5.3939    4.0973 H       1  LIG1        0.0660
     54 H          -4.2922    5.3137    2.8570 H       1  LIG1        0.0660
     55 C          -7.2688    8.4782    4.6101 C.3     1  LIG1       -0.0332
     56 H          -8.2167    9.0196    4.6362 H       1  LIG1        0.0280
     57 H          -6.5362    9.0424    5.1933 H       1  LIG1        0.0280
     58 H          -7.4142    7.5199    5.1173 H       1  LIG1        0.0280
@<TRIPOS>BOND
     1     9     8    1
     2     8     7    1
     3     8    10    1
     4     8    11    1
     5     7     2    1
     6    13    12    1
     7    15    12    1
     8    37    36    1
     9    12    14    1
    10    12     3    1
    11     2     3   ar
    12     2     1   ar
    13    36    38    1
    14    36    35    1
    15    36    39    1
    16    43    40    1
    17     3     4   ar
    18    35    31    1
    19     1     6    1
    20     1     5   ar
    21    41    40    1
    22    40    42    1
    23    40    32    1
    24     4     5   ar
    25     4    16    1
    26    31    32   ar
    27    31    30   ar
    28    32    33   ar
    29    20    16   ar
    30    20    19   ar
    31    16    17   ar
    32    30    19    1
    33    30    34   ar
    34    19    18   ar
    35    33    34   ar
    36    33    44    1
    37    17    18   ar
    38    17    21    1
    39    48    44   ar
    40    48    47   ar
    41    25    22    1
    42    18    26    1
    43    44    45   ar
    44    21    22    1
    45    49    47    1
    46    22    24    1
    47    22    23    1
    48    47    46   ar
    49    26    27    1
    50    26    28    1
    51    26    29    1
    52    45    46   ar
    53    45    50    1
    54    54    51    1
    55    46    55    1
    56    50    51    1
    57    51    53    1
    58    51    52    1
    59    55    56    1
    60    55    58    1
    61    55    57    1
