@<TRIPOS>MOLECULE
mol_data/opt/cam/geoms/mol2/12li12li-12li-12li-.out
 58 61 0 0 0
SMALL
GASTEIGER

@<TRIPOS>ATOM
      1 C          -0.1594    2.2145   -0.7372 C.ar    1  LIG1        0.1345
      2 C           1.1936    2.1161   -0.8144 C.ar    1  LIG1        0.1612
      3 C           1.7458    3.4191   -0.5902 C.ar    1  LIG1        0.0402
      4 C           0.6598    4.2250   -0.3937 C.ar    1  LIG1        0.1799
      5 O          -0.4972    3.5125   -0.4780 O.2     1  LIG1       -0.4557
      6 H          -0.9741    1.5186   -0.8367 H       1  LIG1        0.1068
      7 O           1.9794    1.0425   -1.0507 O.3     1  LIG1       -0.4917
      8 C           1.2844   -0.1706   -1.2486 C.3     1  LIG1        0.0789
      9 H           2.0342   -0.9411   -1.4255 H       1  LIG1        0.0660
     10 H           0.6918   -0.4338   -0.3636 H       1  LIG1        0.0660
     11 H           0.6167   -0.1045   -2.1166 H       1  LIG1        0.0660
     12 C           3.2051    3.7378   -0.5895 C.3     1  LIG1       -0.0325
     13 H           3.3871    4.7749   -0.3129 H       1  LIG1        0.0280
     14 H           3.6411    3.5598   -1.5777 H       1  LIG1        0.0280
     15 H           3.7369    3.0892    0.1128 H       1  LIG1        0.0280
     16 C           0.5104    5.6328   -0.1268 C.ar    1  LIG1        0.2126
     17 C          -0.5669    6.4538    0.0767 C.ar    1  LIG1        0.1723
     18 C          -0.0715    7.7794    0.2852 C.ar    1  LIG1        0.0410
     19 C           1.2866    7.6744    0.1771 C.ar    1  LIG1        0.1809
     20 O           1.6448    6.3781   -0.0664 O.2     1  LIG1       -0.4444
     21 O          -1.8894    6.1395    0.0560 O.3     1  LIG1       -0.4909
     22 C          -2.3640    5.4514    1.2068 C.3     1  LIG1        0.0790
     23 H          -3.4423    5.3455    1.0800 H       1  LIG1        0.0660
     24 H          -1.9094    4.4604    1.2865 H       1  LIG1        0.0660
     25 H          -2.1617    6.0233    2.1195 H       1  LIG1        0.0660
     26 C          -0.9247    8.9639    0.6004 C.3     1  LIG1       -0.0325
     27 H          -1.2180    8.9629    1.6557 H       1  LIG1        0.0280
     28 H          -1.8449    8.9266    0.0122 H       1  LIG1        0.0280
     29 H          -0.4039    9.8984    0.3937 H       1  LIG1        0.0280
     30 C           2.3810    8.6111    0.2595 C.ar    1  LIG1        0.2127
     31 C           2.5145    9.9468   -0.0014 C.ar    1  LIG1        0.1723
     32 C           3.8626   10.3210    0.2919 C.ar    1  LIG1        0.0410
     33 C           4.4682    9.1633    0.6922 C.ar    1  LIG1        0.1809
     34 O           3.5823    8.1267    0.6787 O.2     1  LIG1       -0.4444
     35 O           1.5383   10.8010   -0.4248 O.3     1  LIG1       -0.4909
     36 C           1.4930   10.9707   -1.8369 C.3     1  LIG1        0.0790
     37 H           0.6850   11.6735   -2.0424 H       1  LIG1        0.0660
     38 H           2.4355   11.3814   -2.2161 H       1  LIG1        0.0660
     39 H           1.2880   10.0197   -2.3397 H       1  LIG1        0.0660
     40 C           4.4252   11.7017    0.2137 C.3     1  LIG1       -0.0325
     41 H           3.6348   12.4325    0.4000 H       1  LIG1        0.0280
     42 H           4.8523   11.9180   -0.7711 H       1  LIG1        0.0280
     43 H           5.2220   11.8441    0.9452 H       1  LIG1        0.0280
     44 C           5.8160    8.8716    1.1139 C.ar    1  LIG1        0.2116
     45 C           7.0336    9.3919    0.7714 C.ar    1  LIG1        0.1716
     46 C           8.0259    8.7329    1.5674 C.ar    1  LIG1        0.0297
     47 C           7.3288    7.8507    2.3253 C.ar    1  LIG1        0.0993
     48 O           5.9991    7.9153    2.0676 O.2     1  LIG1       -0.4557
     49 H           7.6293    7.1269    3.0669 H       1  LIG1        0.1033
     50 O           7.3091   10.3624   -0.1463 O.3     1  LIG1       -0.4909
     51 C           7.0955    9.9737   -1.4978 C.3     1  LIG1        0.0790
     52 H           7.4119   10.8143   -2.1166 H       1  LIG1        0.0660
     53 H           7.6909    9.0900   -1.7523 H       1  LIG1        0.0660
     54 H           6.0391    9.7584   -1.6886 H       1  LIG1        0.0660
     55 C           9.4965    8.9881    1.5342 C.3     1  LIG1       -0.0332
     56 H           9.7212   10.0268    1.7914 H       1  LIG1        0.0280
     57 H           9.9085    8.8081    0.5370 H       1  LIG1        0.0280
     58 H          10.0239    8.3416    2.2386 H       1  LIG1        0.0280
@<TRIPOS>BOND
     1    39    36    1
     2    38    36    1
     3    11     8    1
     4    52    51    1
     5    37    36    1
     6    36    35    1
     7    53    51    1
     8    54    51    1
     9    14    12    1
    10    51    50    1
    11     9     8    1
    12     8     7    1
    13     8    10    1
    14     7     2    1
    15     6     1    1
    16     2     1   ar
    17     2     3   ar
    18    42    40    1
    19     1     5   ar
    20     3    12    1
    21     3     4   ar
    22    12    13    1
    23    12    15    1
    24     5     4   ar
    25    35    31    1
    26     4    16    1
    27    50    45    1
    28    16    20   ar
    29    16    17   ar
    30    20    19   ar
    31    31    30   ar
    32    31    32   ar
    33    28    26    1
    34    21    17    1
    35    21    22    1
    36    17    18   ar
    37    19    30    1
    38    19    18   ar
    39    40    32    1
    40    40    41    1
    41    40    43    1
    42    30    34   ar
    43    18    26    1
    44    32    33   ar
    45    29    26    1
    46    57    55    1
    47    26    27    1
    48    34    33   ar
    49    33    44    1
    50    45    44   ar
    51    45    46   ar
    52    23    22    1
    53    44    48   ar
    54    22    24    1
    55    22    25    1
    56    55    46    1
    57    55    56    1
    58    55    58    1
    59    46    47   ar
    60    48    47   ar
    61    47    49    1
