@<TRIPOS>MOLECULE
mol_data/opt/cam/geoms/mol2/12li.out
 16 16 0 0 0
SMALL
GASTEIGER

@<TRIPOS>ATOM
      1 C           0.0266    1.9179    0.0279 C.ar    1  LIG1        0.1334
      2 C           1.3853    1.8833   -0.0010 C.ar    1  LIG1        0.1605
      3 C           1.8531    3.2404    0.0255 C.ar    1  LIG1        0.0290
      4 C           0.7250    3.9893    0.0686 C.ar    1  LIG1        0.0982
      5 O          -0.3883    3.2180    0.0711 O.2     1  LIG1       -0.4670
      6 H          -0.7449    1.1673    0.0238 H       1  LIG1        0.1067
      7 H           0.5627    5.0557    0.1003 H       1  LIG1        0.1033
      8 O           2.2358    0.8327   -0.0465 O.3     1  LIG1       -0.4917
      9 C           1.6125   -0.4340   -0.0674 C.3     1  LIG1        0.0789
     10 H           2.4071   -1.1787   -0.1035 H       1  LIG1        0.0660
     11 H           1.0067   -0.5897    0.8340 H       1  LIG1        0.0660
     12 H           0.9700   -0.5423   -0.9501 H       1  LIG1        0.0660
     13 C           3.2792    3.6813    0.0079 C.3     1  LIG1       -0.0332
     14 H           3.3533    4.7705    0.0353 H       1  LIG1        0.0280
     15 H           3.7909    3.3280   -0.8920 H       1  LIG1        0.0280
     16 H           3.8270    3.2813    0.8661 H       1  LIG1        0.0280
@<TRIPOS>BOND
     1    12     9    1
     2    15    13    1
     3    10     9    1
     4     9     8    1
     5     9    11    1
     6     8     2    1
     7     2     3   ar
     8     2     1   ar
     9    13     3    1
    10    13    14    1
    11    13    16    1
    12     6     1    1
    13     3     4   ar
    14     1     5   ar
    15     4     5   ar
    16     4     7    1
