@<TRIPOS>MOLECULE
mol_data/opt/cam/geoms/mol2/12ll12ll12ll-12ll.out
 62 65 0 0 0
SMALL
GASTEIGER

@<TRIPOS>ATOM
      1 C           0.5642    1.4975    1.0175 C.ar    1  LIG1        0.1381
      2 C           1.5685    1.5006    0.1006 C.ar    1  LIG1        0.2004
      3 C           1.7837    2.8741   -0.2533 C.ar    1  LIG1        0.2111
      4 C           0.9081    3.6092    0.4899 C.ar    1  LIG1        0.2186
      5 O           0.1657    2.7732    1.2714 O.2     1  LIG1       -0.4521
      6 H           0.0527    0.7196    1.5582 H       1  LIG1        0.1069
      7 O           2.2730    0.4808   -0.4405 O.3     1  LIG1       -0.4888
      8 C           1.9069   -0.8039    0.0238 C.3     1  LIG1        0.0791
      9 H           2.5493   -1.5195   -0.4880 H       1  LIG1        0.0660
     10 H           2.0581   -0.8861    1.1068 H       1  LIG1        0.0660
     11 H           0.8574   -1.0217   -0.2084 H       1  LIG1        0.0660
     12 O           2.7134    3.3706   -1.1094 O.3     1  LIG1       -0.4883
     13 C           2.6244    2.8733   -2.4423 C.3     1  LIG1        0.0791
     14 H           3.4248    3.3556   -3.0036 H       1  LIG1        0.0660
     15 H           2.7577    1.7888   -2.4665 H       1  LIG1        0.0660
     16 H           1.6584    3.1346   -2.8874 H       1  LIG1        0.0660
     17 C           0.6296    5.0255    0.5613 C.ar    1  LIG1        0.2196
     18 C           1.3749    6.1661    0.7079 C.ar    1  LIG1        0.2119
     19 C           0.4593    7.2650    0.6233 C.ar    1  LIG1        0.2119
     20 C          -0.7790    6.7257    0.4340 C.ar    1  LIG1        0.2197
     21 O          -0.6926    5.3755    0.4019 O.2     1  LIG1       -0.4407
     22 O           2.6831    6.3920    0.9298 O.3     1  LIG1       -0.4883
     23 C           3.4840    5.3061    1.3769 C.3     1  LIG1        0.0791
     24 H           4.4276    5.7460    1.7006 H       1  LIG1        0.0660
     25 H           3.0099    4.7988    2.2234 H       1  LIG1        0.0660
     26 H           3.6663    4.5931    0.5703 H       1  LIG1        0.0660
     27 O           0.7561    8.5765    0.8027 O.3     1  LIG1       -0.4883
     28 C           1.5741    9.1357   -0.2209 C.3     1  LIG1        0.0791
     29 H           1.7664   10.1694    0.0680 H       1  LIG1        0.0660
     30 H           2.5214    8.5956   -0.3024 H       1  LIG1        0.0660
     31 H           1.0525    9.1179   -1.1838 H       1  LIG1        0.0660
     32 C          -2.0754    7.3323    0.2884 C.ar    1  LIG1        0.2197
     33 C          -3.3469    6.8903    0.5101 C.ar    1  LIG1        0.2119
     34 C          -4.2140    7.9995    0.2396 C.ar    1  LIG1        0.2119
     35 C          -3.4161    9.0495   -0.1327 C.ar    1  LIG1        0.2196
     36 O          -2.1034    8.6281   -0.1088 O.2     1  LIG1       -0.4407
     37 O          -3.7108    5.6812    0.9962 O.3     1  LIG1       -0.4883
     38 C          -4.4982    4.8996    0.1046 C.3     1  LIG1        0.0791
     39 H          -4.7398    3.9784    0.6353 H       1  LIG1        0.0660
     40 H          -5.4212    5.4206   -0.1656 H       1  LIG1        0.0660
     41 H          -3.9316    4.6584   -0.8015 H       1  LIG1        0.0660
     42 O          -5.5464    7.8772    0.3977 O.3     1  LIG1       -0.4883
     43 C          -6.3266    9.0629    0.3633 C.3     1  LIG1        0.0791
     44 H          -7.3467    8.7582    0.5960 H       1  LIG1        0.0660
     45 H          -5.9796    9.7806    1.1137 H       1  LIG1        0.0660
     46 H          -6.2921    9.5309   -0.6235 H       1  LIG1        0.0660
     47 C          -3.6396   10.4133   -0.5619 C.ar    1  LIG1        0.2186
     48 C          -3.1961   11.6386   -0.1388 C.ar    1  LIG1        0.2111
     49 C          -3.7234   12.6089   -1.0606 C.ar    1  LIG1        0.2004
     50 C          -4.4490   11.9151   -1.9697 C.ar    1  LIG1        0.1381
     51 O          -4.4131   10.5918   -1.6921 O.2     1  LIG1       -0.4521
     52 H          -5.0409   12.2267   -2.8147 H       1  LIG1        0.1069
     53 O          -2.4417   12.0288    0.9064 O.3     1  LIG1       -0.4883
     54 C          -2.0219   11.0448    1.8457 C.3     1  LIG1        0.0791
     55 H          -1.5372   11.5944    2.6521 H       1  LIG1        0.0660
     56 H          -2.8809   10.4971    2.2458 H       1  LIG1        0.0660
     57 H          -1.3169   10.3397    1.3986 H       1  LIG1        0.0660
     58 O          -3.5986   13.9578   -0.9938 O.3     1  LIG1       -0.4888
     59 C          -2.2574   14.4331   -1.0395 C.3     1  LIG1        0.0791
     60 H          -2.3144   15.5196   -0.9685 H       1  LIG1        0.0660
     61 H          -1.6701   14.0398   -0.2062 H       1  LIG1        0.0660
     62 H          -1.7789   14.1561   -1.9861 H       1  LIG1        0.0660
@<TRIPOS>BOND
     1    14    13    1
     2    16    13    1
     3    52    50    1
     4    15    13    1
     5    13    12    1
     6    62    59    1
     7    50    51   ar
     8    50    49   ar
     9    51    47   ar
    10    31    28    1
    11    12     3    1
    12    49    58    1
    13    49    48   ar
    14    59    58    1
    15    59    60    1
    16    59    61    1
    17    41    38    1
    18    46    43    1
    19    47    48   ar
    20    47    35    1
    21     9     8    1
    22     7     8    1
    23     7     2    1
    24    30    28    1
    25     3     2   ar
    26     3     4   ar
    27    28    29    1
    28    28    27    1
    29    11     8    1
    30    40    38    1
    31    48    53    1
    32    35    36   ar
    33    35    34   ar
    34    36    32   ar
    35     8    10    1
    36     2     1   ar
    37    38    39    1
    38    38    37    1
    39    34    42    1
    40    34    33   ar
    41    32    20    1
    42    32    33   ar
    43    43    42    1
    44    43    44    1
    45    43    45    1
    46    21    20   ar
    47    21    17   ar
    48    20    19   ar
    49     4    17    1
    50     4     5   ar
    51    33    37    1
    52    17    18   ar
    53    26    23    1
    54    19    18   ar
    55    19    27    1
    56    18    22    1
    57    53    54    1
    58    22    23    1
    59     1     5   ar
    60     1     6    1
    61    23    24    1
    62    23    25    1
    63    57    54    1
    64    54    56    1
    65    54    55    1
