@<TRIPOS>MOLECULE
mol_data/opt/cam/geoms/mol2/12ll.out
 17 17 0 0 0
SMALL
GASTEIGER

@<TRIPOS>ATOM
      1 C           0.0440    1.9126   -0.0000 C.ar    1  LIG1        0.1370
      2 C           1.4011    1.8088    0.0000 C.ar    1  LIG1        0.1996
      3 C           1.9092    3.1579    0.0000 C.ar    1  LIG1        0.1996
      4 C           0.8141    3.9606   -0.0001 C.ar    1  LIG1        0.1370
      5 O          -0.3237    3.2192   -0.0001 O.2     1  LIG1       -0.4635
      6 H          -0.7512    1.1871   -0.0001 H       1  LIG1        0.1069
      7 H           0.7062    5.0320   -0.0001 H       1  LIG1        0.1069
      8 O           2.1786    0.6970    0.0002 O.3     1  LIG1       -0.4888
      9 C           1.4644   -0.5218    0.0001 C.3     1  LIG1        0.0791
     10 H           2.2047   -1.3212    0.0002 H       1  LIG1        0.0660
     11 H           0.8329   -0.6078    0.8929 H       1  LIG1        0.0660
     12 H           0.8330   -0.6079   -0.8927 H       1  LIG1        0.0660
     13 O           3.1785    3.6291    0.0001 O.3     1  LIG1       -0.4888
     14 C           4.2397    2.6885   -0.0001 C.3     1  LIG1        0.0791
     15 H           5.1568    3.2781   -0.0001 H       1  LIG1        0.0660
     16 H           4.2139    2.0514    0.8884 H       1  LIG1        0.0660
     17 H           4.2138    2.0517   -0.8888 H       1  LIG1        0.0660
@<TRIPOS>BOND
     1    12     9    1
     2    17    14    1
     3     7     4    1
     4     5     4   ar
     5     5     1   ar
     6    14    15    1
     7    14    13    1
     8    14    16    1
     9     4     3   ar
    10     6     1    1
    11     1     2   ar
    12     3     2   ar
    13     3    13    1
    14     2     8    1
    15     9     8    1
    16     9    10    1
    17     9    11    1
