@<TRIPOS>MOLECULE
mol_data/opt/cam/geoms/mol2/12ll12ll-12ll.out
 47 49 0 0 0
SMALL
GASTEIGER

@<TRIPOS>ATOM
      1 C          -0.1612    1.7425   -0.2747 C.ar    1  LIG1        0.1381
      2 C           1.1853    1.6477   -0.1101 C.ar    1  LIG1        0.2004
      3 C           1.6712    2.9883    0.0449 C.ar    1  LIG1        0.2111
      4 C           0.5788    3.8009   -0.0518 C.ar    1  LIG1        0.2186
      5 O          -0.5390    3.0533   -0.2365 O.2     1  LIG1       -0.4521
      6 H          -0.9498    1.0234   -0.4138 H       1  LIG1        0.1069
      7 O           1.9981    0.5694   -0.0771 O.3     1  LIG1       -0.4888
      8 C           1.3389   -0.6735   -0.2182 C.3     1  LIG1        0.0791
      9 H           2.1059   -1.4454   -0.1680 H       1  LIG1        0.0660
     10 H           0.6133   -0.8253    0.5899 H       1  LIG1        0.0660
     11 H           0.8191   -0.7355   -1.1821 H       1  LIG1        0.0660
     12 O           2.9456    3.3677    0.3160 O.3     1  LIG1       -0.4883
     13 C           3.8655    3.1194   -0.7429 C.3     1  LIG1        0.0791
     14 H           4.8452    3.4322   -0.3809 H       1  LIG1        0.0660
     15 H           3.8918    2.0558   -0.9970 H       1  LIG1        0.0660
     16 H           3.6003    3.7054   -1.6293 H       1  LIG1        0.0660
     17 C           0.4391    5.2319    0.0166 C.ar    1  LIG1        0.2196
     18 C          -0.5989    6.0566    0.3375 C.ar    1  LIG1        0.2119
     19 C          -0.0823    7.3935    0.2928 C.ar    1  LIG1        0.2119
     20 C           1.2395    7.3002   -0.0557 C.ar    1  LIG1        0.2196
     21 O           1.5496    5.9681   -0.2328 O.2     1  LIG1       -0.4407
     22 O          -1.8386    5.6800    0.7288 O.3     1  LIG1       -0.4883
     23 C          -2.8885    6.1270   -0.1225 C.3     1  LIG1        0.0791
     24 H          -3.8181    5.7756    0.3260 H       1  LIG1        0.0660
     25 H          -2.9033    7.2183   -0.1903 H       1  LIG1        0.0660
     26 H          -2.7837    5.6973   -1.1249 H       1  LIG1        0.0660
     27 O          -0.8741    8.4410    0.5948 O.3     1  LIG1       -0.4883
     28 C          -0.2553    9.7071    0.7693 C.3     1  LIG1        0.0791
     29 H          -1.0460   10.3868    1.0857 H       1  LIG1        0.0660
     30 H           0.5179    9.6604    1.5429 H       1  LIG1        0.0660
     31 H           0.1913   10.0607   -0.1632 H       1  LIG1        0.0660
     32 C           2.3091    8.2428   -0.3048 C.ar    1  LIG1        0.2186
     33 C           3.5708    8.4190    0.1993 C.ar    1  LIG1        0.2111
     34 C           4.1649    9.4979   -0.5439 C.ar    1  LIG1        0.2004
     35 C           3.2313    9.9038   -1.4372 C.ar    1  LIG1        0.1381
     36 O           2.1061    9.1633   -1.3142 O.2     1  LIG1       -0.4521
     37 H           3.2252   10.6934   -2.1707 H       1  LIG1        0.1069
     38 O           4.2532    7.8138    1.1902 O.3     1  LIG1       -0.4883
     39 C           3.5906    6.8161    1.9593 C.3     1  LIG1        0.0791
     40 H           4.2808    6.5542    2.7608 H       1  LIG1        0.0660
     41 H           2.6651    7.2086    2.3920 H       1  LIG1        0.0660
     42 H           3.3646    5.9319    1.3581 H       1  LIG1        0.0660
     43 O           5.3815   10.0625   -0.3427 O.3     1  LIG1       -0.4888
     44 C           6.4815    9.1694   -0.4799 C.3     1  LIG1        0.0791
     45 H           7.3795    9.7569   -0.2867 H       1  LIG1        0.0660
     46 H           6.4166    8.3489    0.2389 H       1  LIG1        0.0660
     47 H           6.5268    8.7616   -1.4964 H       1  LIG1        0.0660
@<TRIPOS>BOND
     1    37    35    1
     2    16    13    1
     3    47    44    1
     4    35    36   ar
     5    35    34   ar
     6    36    32   ar
     7    11     8    1
     8    26    23    1
     9    15    13    1
    10    13    14    1
    11    13    12    1
    12    34    43    1
    13    34    33   ar
    14    44    43    1
    15    44    45    1
    16    44    46    1
    17     6     1    1
    18    32    20    1
    19    32    33   ar
    20     1     5   ar
    21     1     2   ar
    22     5     4   ar
    23    21    20   ar
    24    21    17   ar
    25     8     9    1
    26     8     7    1
    27     8    10    1
    28    25    23    1
    29    31    28    1
    30    23    24    1
    31    23    22    1
    32     2     7    1
    33     2     3   ar
    34    20    19   ar
    35     4    17    1
    36     4     3   ar
    37    17    18   ar
    38     3    12    1
    39    33    38    1
    40    19    18   ar
    41    19    27    1
    42    18    22    1
    43    27    28    1
    44    28    29    1
    45    28    30    1
    46    38    39    1
    47    42    39    1
    48    39    41    1
    49    39    40    1
