@<TRIPOS>MOLECULE
mol_data/opt/cam/geoms/mol2/12ll12ll12ll.out
 47 49 0 0 0
SMALL
GASTEIGER

@<TRIPOS>ATOM
      1 C           0.5996    1.8333    1.4798 C.ar    1  LIG1        0.1381
      2 C           1.6301    1.6413    0.6136 C.ar    1  LIG1        0.2004
      3 C           1.9002    2.9206    0.0229 C.ar    1  LIG1        0.2111
      4 C           1.0264    3.8020    0.5864 C.ar    1  LIG1        0.2186
      5 O           0.2345    3.1435    1.4816 O.2     1  LIG1       -0.4521
      6 H           0.0472    1.1813    2.1347 H       1  LIG1        0.1069
      7 O           2.3174    0.5217    0.2933 O.3     1  LIG1       -0.4888
      8 C           1.8923   -0.6473    0.9664 C.3     1  LIG1        0.0791
      9 H           2.5273   -1.4608    0.6179 H       1  LIG1        0.0660
     10 H           2.0033   -0.5359    2.0517 H       1  LIG1        0.0660
     11 H           0.8446   -0.8748    0.7353 H       1  LIG1        0.0660
     12 O           2.8722    3.2259   -0.8742 O.3     1  LIG1       -0.4883
     13 C           2.8029    2.5004   -2.0997 C.3     1  LIG1        0.0791
     14 H           3.6392    2.8453   -2.7078 H       1  LIG1        0.0660
     15 H           2.8923    1.4253   -1.9246 H       1  LIG1        0.0660
     16 H           1.8623    2.7115   -2.6194 H       1  LIG1        0.0660
     17 C           0.7826    5.2135    0.3838 C.ar    1  LIG1        0.2196
     18 C           1.5466    6.3505    0.3808 C.ar    1  LIG1        0.2119
     19 C           0.6673    7.4252    0.0237 C.ar    1  LIG1        0.2119
     20 C          -0.5749    6.8893   -0.1321 C.ar    1  LIG1        0.2196
     21 O          -0.5162    5.5488    0.0884 O.2     1  LIG1       -0.4407
     22 O           2.8454    6.5916    0.6469 O.3     1  LIG1       -0.4883
     23 C           3.6031    5.5625    1.2686 C.3     1  LIG1        0.0791
     24 H           4.5473    6.0230    1.5600 H       1  LIG1        0.0660
     25 H           3.0901    5.1889    2.1608 H       1  LIG1        0.0660
     26 H           3.7909    4.7390    0.5764 H       1  LIG1        0.0660
     27 O           0.9867    8.7422   -0.0639 O.3     1  LIG1       -0.4883
     28 C           1.9764    9.0515   -1.0421 C.3     1  LIG1        0.0791
     29 H           2.1297   10.1298   -0.9930 H       1  LIG1        0.0660
     30 H           2.9147    8.5344   -0.8266 H       1  LIG1        0.0660
     31 H           1.6269    8.7783   -2.0435 H       1  LIG1        0.0660
     32 C          -1.8547    7.4583   -0.4928 C.ar    1  LIG1        0.2186
     33 C          -2.6065    8.5247   -0.0761 C.ar    1  LIG1        0.2111
     34 C          -3.7653    8.5620   -0.9274 C.ar    1  LIG1        0.2004
     35 C          -3.6435    7.5184   -1.7819 C.ar    1  LIG1        0.1381
     36 O          -2.5050    6.8350   -1.5327 O.2     1  LIG1       -0.4521
     37 H          -4.2836    7.1418   -2.5629 H       1  LIG1        0.1069
     38 O          -2.4604    9.4206    0.9196 O.3     1  LIG1       -0.4883
     39 C          -1.5230    9.1313    1.9482 C.3     1  LIG1        0.0791
     40 H          -1.7224    9.8499    2.7435 H       1  LIG1        0.0660
     41 H          -1.6698    8.1158    2.3303 H       1  LIG1        0.0660
     42 H          -0.4978    9.2501    1.5916 H       1  LIG1        0.0660
     43 O          -4.8179    9.4137   -0.8410 O.3     1  LIG1       -0.4888
     44 C          -4.4810   10.7883   -0.9881 C.3     1  LIG1        0.0791
     45 H          -5.4126   11.3458   -0.8859 H       1  LIG1        0.0660
     46 H          -3.7750   11.1077   -0.2173 H       1  LIG1        0.0660
     47 H          -4.0507   10.9802   -1.9781 H       1  LIG1        0.0660
@<TRIPOS>BOND
     1    14    13    1
     2    16    13    1
     3    37    35    1
     4    13    15    1
     5    13    12    1
     6    31    28    1
     7    47    44    1
     8    35    36   ar
     9    35    34   ar
    10    36    32   ar
    11    28    29    1
    12    28    30    1
    13    28    27    1
    14    44    45    1
    15    44    43    1
    16    44    46    1
    17    34    43    1
    18    34    33   ar
    19    12     3    1
    20    32    20    1
    21    32    33   ar
    22    20    19   ar
    23    20    21   ar
    24    33    38    1
    25    27    19    1
    26     3     4   ar
    27     3     2   ar
    28    19    18   ar
    29    21    17   ar
    30     7     2    1
    31     7     8    1
    32    18    17   ar
    33    18    22    1
    34    17     4    1
    35    26    23    1
    36     4     5   ar
    37     2     1   ar
    38     9     8    1
    39    22    23    1
    40    11     8    1
    41    38    39    1
    42     8    10    1
    43    23    24    1
    44    23    25    1
    45     1     5   ar
    46     1     6    1
    47    42    39    1
    48    39    41    1
    49    39    40    1
