@<TRIPOS>MOLECULE
mol_data/opt/cam/geoms/mol2/12ll12ll-.out
 32 33 0 0 0
SMALL
GASTEIGER

@<TRIPOS>ATOM
      1 C           0.0307    1.8426   -0.0000 C.ar    1  LIG1        0.1381
      2 C           1.3891    1.7613    0.0000 C.ar    1  LIG1        0.2004
      3 C           1.8790    3.1133    0.0000 C.ar    1  LIG1        0.2111
      4 C           0.7656    3.9112   -0.0000 C.ar    1  LIG1        0.2186
      5 O          -0.3572    3.1432   -0.0001 O.2     1  LIG1       -0.4521
      6 H          -0.7549    1.1071   -0.0000 H       1  LIG1        0.1069
      7 O           2.1826    0.6607    0.0001 O.3     1  LIG1       -0.4888
      8 C           1.4856   -0.5677    0.0001 C.3     1  LIG1        0.0791
      9 H           2.2371   -1.3567    0.0001 H       1  LIG1        0.0660
     10 H           0.8554   -0.6626    0.8929 H       1  LIG1        0.0660
     11 H           0.8554   -0.6626   -0.8927 H       1  LIG1        0.0660
     12 O           3.1425    3.5953    0.0001 O.3     1  LIG1       -0.4883
     13 C           4.2131    2.6668   -0.0001 C.3     1  LIG1        0.0791
     14 H           5.1229    3.2676   -0.0001 H       1  LIG1        0.0660
     15 H           4.1949    2.0293    0.8884 H       1  LIG1        0.0660
     16 H           4.1948    2.0295   -0.8888 H       1  LIG1        0.0660
     17 C           0.5926    5.3388   -0.0001 C.ar    1  LIG1        0.2186
     18 C          -0.5208    6.1368   -0.0000 C.ar    1  LIG1        0.2111
     19 C          -0.0308    7.4887   -0.0001 C.ar    1  LIG1        0.2004
     20 C           1.3275    7.4075   -0.0002 C.ar    1  LIG1        0.1381
     21 O           1.7154    6.1069   -0.0001 O.2     1  LIG1       -0.4521
     22 H           2.1132    8.1429   -0.0002 H       1  LIG1        0.1069
     23 O          -1.7842    5.6548    0.0000 O.3     1  LIG1       -0.4883
     24 C          -2.8548    6.5833   -0.0001 C.3     1  LIG1        0.0791
     25 H          -3.7646    5.9825   -0.0001 H       1  LIG1        0.0660
     26 H          -2.8366    7.2207    0.8884 H       1  LIG1        0.0660
     27 H          -2.8365    7.2205   -0.8888 H       1  LIG1        0.0660
     28 O          -0.8244    8.5894   -0.0001 O.3     1  LIG1       -0.4888
     29 C          -0.1273    9.8178   -0.0002 C.3     1  LIG1        0.0791
     30 H          -0.8788   10.6067   -0.0002 H       1  LIG1        0.0660
     31 H           0.5029    9.9127    0.8926 H       1  LIG1        0.0660
     32 H           0.5028    9.9126   -0.8930 H       1  LIG1        0.0660
@<TRIPOS>BOND
     1    32    29    1
     2    11     8    1
     3    27    24    1
     4    16    13    1
     5    22    20    1
     6    29    30    1
     7    29    28    1
     8    29    31    1
     9    20    21   ar
    10    20    19   ar
    11    21    17   ar
    12    24    25    1
    13    24    23    1
    14    24    26    1
    15    19    28    1
    16    19    18   ar
    17    13    14    1
    18    13    12    1
    19    13    15    1
    20    17    18   ar
    21    17     4    1
    22     5     4   ar
    23     5     1   ar
    24    18    23    1
    25     4     3   ar
    26     6     1    1
    27     1     2   ar
    28     3     2   ar
    29     3    12    1
    30     2     7    1
    31     8     7    1
    32     8     9    1
    33     8    10    1
