@<TRIPOS>MOLECULE
mol_data/opt/cam/geoms/mol2/12ll12ll-12ll12ll.out
 62 65 0 0 0
SMALL
GASTEIGER

@<TRIPOS>ATOM
      1 C          -0.2982    1.8855   -0.5972 C.ar    1  LIG1        0.1381
      2 C           1.0548    1.7797   -0.6809 C.ar    1  LIG1        0.2004
      3 C           1.5870    3.0535   -0.2922 C.ar    1  LIG1        0.2111
      4 C           0.5104    3.8449   -0.0129 C.ar    1  LIG1        0.2186
      5 O          -0.6375    3.1418   -0.1863 O.2     1  LIG1       -0.4521
      6 H          -1.1137    1.2058   -0.7741 H       1  LIG1        0.1069
      7 O           1.8404    0.7407   -1.0383 O.3     1  LIG1       -0.4888
      8 C           1.1426   -0.4453   -1.3641 C.3     1  LIG1        0.0791
      9 H           1.8924   -1.1917   -1.6236 H       1  LIG1        0.0660
     10 H           0.5537   -0.7997   -0.5097 H       1  LIG1        0.0660
     11 H           0.4735   -0.2857   -2.2184 H       1  LIG1        0.0660
     12 O           2.8964    3.3814   -0.1513 O.3     1  LIG1       -0.4883
     13 C           3.6265    3.4042   -1.3746 C.3     1  LIG1        0.0791
     14 H           4.6583    3.6418   -1.1143 H       1  LIG1        0.0660
     15 H           3.5891    2.4299   -1.8703 H       1  LIG1        0.0660
     16 H           3.2326    4.1758   -2.0446 H       1  LIG1        0.0660
     17 C           0.4122    5.2151    0.4161 C.ar    1  LIG1        0.2196
     18 C          -0.5509    5.9248    1.0714 C.ar    1  LIG1        0.2119
     19 C          -0.0195    7.2417    1.2707 C.ar    1  LIG1        0.2119
     20 C           1.2361    7.2529    0.7211 C.ar    1  LIG1        0.2197
     21 O           1.4898    6.0059    0.1901 O.2     1  LIG1       -0.4407
     22 O          -1.7289    5.4496    1.5378 O.3     1  LIG1       -0.4883
     23 C          -2.8806    6.0672    0.9720 C.3     1  LIG1        0.0791
     24 H          -3.7434    5.6087    1.4557 H       1  LIG1        0.0660
     25 H          -2.8830    7.1442    1.1612 H       1  LIG1        0.0660
     26 H          -2.9280    5.8826   -0.1068 H       1  LIG1        0.0660
     27 O          -0.7393    8.1716    1.9274 O.3     1  LIG1       -0.4883
     28 C          -0.0794    9.3650    2.3229 C.3     1  LIG1        0.0791
     29 H          -0.8006    9.9229    2.9195 H       1  LIG1        0.0660
     30 H           0.8014    9.1380    2.9328 H       1  LIG1        0.0660
     31 H           0.2251    9.9548    1.4552 H       1  LIG1        0.0660
     32 C           2.2766    8.2415    0.5412 C.ar    1  LIG1        0.2197
     33 C           3.6200    8.2806    0.8114 C.ar    1  LIG1        0.2119
     34 C           4.1089    9.5153    0.2711 C.ar    1  LIG1        0.2119
     35 C           3.0404   10.1686   -0.2640 C.ar    1  LIG1        0.2196
     36 O           1.9247    9.4032   -0.1116 O.2     1  LIG1       -0.4407
     37 O           4.4574    7.4356    1.4429 O.3     1  LIG1       -0.4883
     38 C           3.9127    6.2823    2.0765 C.3     1  LIG1        0.0791
     39 H           4.7323    5.8439    2.6453 H       1  LIG1        0.0660
     40 H           3.1048    6.5601    2.7607 H       1  LIG1        0.0660
     41 H           3.5395    5.5625    1.3445 H       1  LIG1        0.0660
     42 O           5.3787    9.9903    0.3437 O.3     1  LIG1       -0.4883
     43 C           6.3612    9.1700   -0.2850 C.3     1  LIG1        0.0791
     44 H           7.3170    9.6748   -0.1440 H       1  LIG1        0.0660
     45 H           6.3946    8.1790    0.1737 H       1  LIG1        0.0660
     46 H           6.1540    9.0742   -1.3561 H       1  LIG1        0.0660
     47 C           2.8966   11.4385   -0.9400 C.ar    1  LIG1        0.2186
     48 C           3.3129   12.7244   -0.7146 C.ar    1  LIG1        0.2111
     49 C           2.8804   13.4959   -1.8488 C.ar    1  LIG1        0.2004
     50 C           2.2265   12.6368   -2.6666 C.ar    1  LIG1        0.1381
     51 O           2.2164   11.3949   -2.1349 O.2     1  LIG1       -0.4521
     52 H           1.7114   12.7760   -3.6030 H       1  LIG1        0.1069
     53 O           3.9608   13.3174    0.3074 O.3     1  LIG1       -0.4883
     54 C           4.0092   12.6393    1.5552 C.3     1  LIG1        0.0791
     55 H           4.3586   13.3745    2.2806 H       1  LIG1        0.0660
     56 H           3.0118   12.2908    1.8436 H       1  LIG1        0.0660
     57 H           4.7025   11.7969    1.5199 H       1  LIG1        0.0660
     58 O           3.0172   14.8335   -2.0279 O.3     1  LIG1       -0.4888
     59 C           4.3639   15.2936   -2.0476 C.3     1  LIG1        0.0791
     60 H           4.3174   16.3745   -2.1840 H       1  LIG1        0.0660
     61 H           4.8745   15.0631   -1.1091 H       1  LIG1        0.0660
     62 H           4.9161   14.8463   -2.8824 H       1  LIG1        0.0660
@<TRIPOS>BOND
     1    52    50    1
     2    62    59    1
     3    50    51   ar
     4    50    49   ar
     5    11     8    1
     6    60    59    1
     7    51    47   ar
     8    59    58    1
     9    59    61    1
    10    16    13    1
    11    58    49    1
    12    15    13    1
    13    49    48   ar
    14     9     8    1
    15    13    14    1
    16    13    12    1
    17     8     7    1
    18     8    10    1
    19    46    43    1
    20     7     2    1
    21    47    48   ar
    22    47    35    1
    23     6     1    1
    24    48    53    1
    25     2     1   ar
    26     2     3   ar
    27     1     5   ar
    28     3    12    1
    29     3     4   ar
    30    43    44    1
    31    43    45    1
    32    43    42    1
    33    35    36   ar
    34    35    34   ar
    35     5     4   ar
    36    36    32   ar
    37    26    23    1
    38     4    17    1
    39    21    17   ar
    40    21    20   ar
    41    34    42    1
    42    34    33   ar
    43    53    54    1
    44    17    18   ar
    45    32    20    1
    46    32    33   ar
    47    20    19   ar
    48    33    37    1
    49    23    25    1
    50    23    24    1
    51    23    22    1
    52    18    19   ar
    53    18    22    1
    54    19    27    1
    55    41    38    1
    56    37    38    1
    57    31    28    1
    58    57    54    1
    59    54    56    1
    60    54    55    1
    61    27    28    1
    62    38    39    1
    63    38    40    1
    64    28    29    1
    65    28    30    1
