@<TRIPOS>MOLECULE
mol_data/opt/cam/geoms/mol2/12ll12ll.out
 32 33 0 0 0
SMALL
GASTEIGER

@<TRIPOS>ATOM
      1 C           0.2080    1.7165    0.6222 C.ar    1  LIG1        0.1381
      2 C           1.5094    1.6137    0.2420 C.ar    1  LIG1        0.2004
      3 C           1.9329    2.9412   -0.1001 C.ar    1  LIG1        0.2111
      4 C           0.8638    3.7589    0.1154 C.ar    1  LIG1        0.2186
      5 O          -0.1898    3.0161    0.5630 O.2     1  LIG1       -0.4521
      6 H          -0.5299    1.0039    0.9492 H       1  LIG1        0.1069
      7 O           2.3212    0.5352    0.1561 O.3     1  LIG1       -0.4888
      8 C           1.7172   -0.6906    0.5200 C.3     1  LIG1        0.0791
      9 H           2.4767   -1.4632    0.4054 H       1  LIG1        0.0660
     10 H           1.3763   -0.6648    1.5619 H       1  LIG1        0.0660
     11 H           0.8633   -0.9163   -0.1302 H       1  LIG1        0.0660
     12 O           3.1694    3.3367   -0.4982 O.3     1  LIG1       -0.4883
     13 C           3.6467    2.7043   -1.6829 C.3     1  LIG1        0.0791
     14 H           4.6373    3.1177   -1.8734 H       1  LIG1        0.0660
     15 H           3.7178    1.6220   -1.5492 H       1  LIG1        0.0660
     16 H           2.9897    2.9271   -2.5305 H       1  LIG1        0.0660
     17 C           0.6578    5.1788   -0.0693 C.ar    1  LIG1        0.2186
     18 C           1.3123    6.3221    0.3050 C.ar    1  LIG1        0.2111
     19 C           0.5920    7.4162   -0.2894 C.ar    1  LIG1        0.2004
     20 C          -0.4461    6.8666   -0.9635 C.ar    1  LIG1        0.1381
     21 O          -0.4305    5.5213   -0.8385 O.2     1  LIG1       -0.4521
     22 H          -1.2576    7.3002   -1.5247 H       1  LIG1        0.1069
     23 O           2.3868    6.5543    1.0844 O.3     1  LIG1       -0.4883
     24 C           2.8510    5.4994    1.9152 C.3     1  LIG1        0.0791
     25 H           3.5711    5.9520    2.5973 H       1  LIG1        0.0660
     26 H           2.0255    5.0687    2.4914 H       1  LIG1        0.0660
     27 H           3.3395    4.7199    1.3267 H       1  LIG1        0.0660
     28 O           0.8431    8.7407   -0.1370 O.3     1  LIG1       -0.4888
     29 C           2.1294    9.1544   -0.5831 C.3     1  LIG1        0.0791
     30 H           2.1913   10.2261   -0.3912 H       1  LIG1        0.0660
     31 H           2.9230    8.6370   -0.0380 H       1  LIG1        0.0660
     32 H           2.2466    8.9713   -1.6577 H       1  LIG1        0.0660
@<TRIPOS>BOND
     1    16    13    1
     2    14    13    1
     3    13    15    1
     4    13    12    1
     5    32    29    1
     6    22    20    1
     7    20    21   ar
     8    20    19   ar
     9    21    17   ar
    10    29    30    1
    11    29    28    1
    12    29    31    1
    13    12     3    1
    14    19    28    1
    15    19    18   ar
    16    11     8    1
    17     3     4   ar
    18     3     2   ar
    19    17     4    1
    20    17    18   ar
    21     4     5   ar
    22     7     2    1
    23     7     8    1
    24     2     1   ar
    25    18    23    1
    26     9     8    1
    27     8    10    1
    28     5     1   ar
    29     1     6    1
    30    23    24    1
    31    27    24    1
    32    24    26    1
    33    24    25    1
