@<TRIPOS>MOLECULE
mol_data/opt/cam/geoms/mol2/12ll6ea13ii-13dh-.out
 53 56 0 0 0
SMALL
GASTEIGER

@<TRIPOS>ATOM
      1 C           0.2009    1.5932   -0.8535 C.ar    1  LIG1        0.1379
      2 C           1.4991    1.5883   -0.4489 C.ar    1  LIG1        0.2003
      3 C           1.8296    2.9498   -0.1462 C.ar    1  LIG1        0.2079
      4 C           0.7023    3.6884   -0.3872 C.ar    1  LIG1        0.1827
      5 O          -0.2833    2.8632   -0.8281 O.2     1  LIG1       -0.4553
      6 H          -0.4800    0.8282   -1.1849 H       1  LIG1        0.1069
      7 O           2.3795    0.5700   -0.3257 O.3     1  LIG1       -0.4888
      8 C           1.8713   -0.7002   -0.6858 C.3     1  LIG1        0.0791
      9 H           2.6796   -1.4159   -0.5411 H       1  LIG1        0.0660
     10 H           1.0194   -0.9759   -0.0526 H       1  LIG1        0.0660
     11 H           1.5561   -0.7113   -1.7359 H       1  LIG1        0.0660
     12 O           3.0344    3.4351    0.2481 O.3     1  LIG1       -0.4884
     13 C           3.5637    2.8428    1.4325 C.3     1  LIG1        0.0791
     14 H           4.5225    3.3282    1.6150 H       1  LIG1        0.0660
     15 H           2.8974    3.0192    2.2839 H       1  LIG1        0.0660
     16 H           3.7128    1.7687    1.3008 H       1  LIG1        0.0660
     17 C          -0.8264    5.6920   -0.1201 C.ar    1  LIG1        0.1246
     18 C           0.4503    5.1190   -0.2916 C.ar    1  LIG1        0.0549
     19 C           1.5298    6.0091   -0.3601 C.ar    1  LIG1       -0.0462
     20 C           1.3282    7.3701   -0.2727 C.ar    1  LIG1       -0.0335
     21 C           0.0219    7.8513   -0.1254 C.ar    1  LIG1        0.0888
     22 N          -1.0189    7.0125   -0.0493 N.ar    1  LIG1       -0.2362
     23 H           2.5295    5.6104   -0.4812 H       1  LIG1        0.0626
     24 C          -2.0235    4.9074    0.0241 C.1     1  LIG1       -0.0491
     25 C          -3.0536    4.3049    0.1723 C.1     1  LIG1       -0.1124
     26 H          -3.9590    3.7564    0.2937 H       1  LIG1        0.1232
     27 H           2.1667    8.0499   -0.3290 H       1  LIG1        0.0640
     28 C          -0.3239    9.2654   -0.0410 C.ar    1  LIG1        0.0687
     29 C           0.3975   10.4525   -0.0999 C.ar    1  LIG1       -0.0201
     30 C          -0.5363   11.5182    0.0166 C.ar    1  LIG1       -0.0202
     31 C          -1.7963   10.9470    0.1321 C.ar    1  LIG1        0.0679
     32 N          -1.6431    9.5888    0.1120 N.ar    1  LIG1       -0.3514
     33 H          -2.3585    8.8775    0.0644 H       1  LIG1        0.1660
     34 C           1.8797   10.6165   -0.2495 C.3     1  LIG1       -0.0374
     35 H           2.1510   11.6733   -0.2566 H       1  LIG1        0.0278
     36 H           2.2460   10.1863   -1.1874 H       1  LIG1        0.0278
     37 H           2.4339   10.1444    0.5685 H       1  LIG1        0.0278
     38 C          -0.2197   12.9810    0.0598 C.3     1  LIG1       -0.0374
     39 H          -1.0146   13.5378    0.5601 H       1  LIG1        0.0278
     40 H          -0.1120   13.4109   -0.9408 H       1  LIG1        0.0278
     41 H           0.7083   13.1687    0.6063 H       1  LIG1        0.0278
     42 C          -3.1062   11.5406    0.3111 C.ar    1  LIG1        0.0826
     43 C          -3.7046   12.6562   -0.2699 C.ar    1  LIG1        0.0990
     44 C          -5.0309   12.7759    0.2599 C.ar    1  LIG1        0.0604
     45 C          -5.2028   11.7326    1.1322 C.ar    1  LIG1        0.0243
     46 N          -4.0332   10.9927    1.1395 N.ar    1  LIG1       -0.3568
     47 H          -3.8326   10.2400    1.7775 H       1  LIG1        0.1655
     48 H          -6.0460   11.4607    1.7461 H       1  LIG1        0.0826
     49 N          -2.7910   14.1826   -2.1309 N.1     1  LIG1       -0.1907
     50 C          -3.1732   13.4824   -1.2894 C.1     1  LIG1        0.1032
     51 N          -5.9183   13.8017   -0.0504 N.pl3   1  LIG1       -0.3558
     52 H          -5.7040   14.2687   -0.9214 H       1  LIG1        0.1424
     53 H          -6.8920   13.5381   -0.0079 H       1  LIG1        0.1424
@<TRIPOS>BOND
     1    49    50    3
     2    11     8    1
     3    50    43    1
     4    36    34    1
     5     6     1    1
     6    40    38    1
     7    52    51    1
     8     1     5   ar
     9     1     2   ar
    10     5     4   ar
    11     8     9    1
    12     8     7    1
    13     8    10    1
    14    23    19    1
    15     2     7    1
    16     2     3   ar
    17     4    18    1
    18     4     3   ar
    19    19    18   ar
    20    19    20   ar
    21    27    20    1
    22    18    17   ar
    23    20    21   ar
    24    43    44   ar
    25    43    42   ar
    26    35    34    1
    27    34    29    1
    28    34    37    1
    29     3    12    1
    30    21    22   ar
    31    21    28    1
    32    17    22   ar
    33    17    24    1
    34    29    28   ar
    35    29    30   ar
    36    51    53    1
    37    51    44    1
    38    28    32   ar
    39    30    38    1
    40    30    31   ar
    41    24    25    3
    42    38    39    1
    43    38    41    1
    44    33    32    1
    45    32    31   ar
    46    31    42    1
    47    25    26    1
    48    12    13    1
    49    44    45   ar
    50    42    46   ar
    51    45    46   ar
    52    45    48    1
    53    46    47    1
    54    16    13    1
    55    13    14    1
    56    13    15    1
