@<TRIPOS>MOLECULE
mol_data/opt/cam/geoms/mol2/12ll12ll-12ll-12ll-.out
 62 65 0 0 0
SMALL
GASTEIGER

@<TRIPOS>ATOM
      1 C           0.1317    1.9548    0.9812 C.ar    1  LIG1        0.1381
      2 C           1.4157    2.0516    1.4186 C.ar    1  LIG1        0.2004
      3 C           1.8278    3.4046    1.1841 C.ar    1  LIG1        0.2111
      4 C           0.7570    4.0298    0.6049 C.ar    1  LIG1        0.2186
      5 O          -0.2745    3.1578    0.4800 O.2     1  LIG1       -0.4521
      6 H          -0.5918    1.1587    0.9491 H       1  LIG1        0.1069
      7 O           2.2290    1.1314    1.9760 O.3     1  LIG1       -0.4888
      8 C           1.6446   -0.1421    2.1514 C.3     1  LIG1        0.0791
      9 H           2.4020   -0.7773    2.6098 H       1  LIG1        0.0660
     10 H           0.7682   -0.0861    2.8088 H       1  LIG1        0.0660
     11 H           1.3402   -0.5729    1.1892 H       1  LIG1        0.0660
     12 O           3.0271    3.9228    1.5453 O.3     1  LIG1       -0.4883
     13 C           3.9761    4.0446    0.4904 C.3     1  LIG1        0.0791
     14 H           4.9159    4.3420    0.9575 H       1  LIG1        0.0660
     15 H           4.1157    3.0876   -0.0240 H       1  LIG1        0.0660
     16 H           3.6698    4.8132   -0.2245 H       1  LIG1        0.0660
     17 C           0.5582    5.3761    0.1392 C.ar    1  LIG1        0.2196
     18 C          -0.5162    6.0477   -0.3687 C.ar    1  LIG1        0.2119
     19 C          -0.0540    7.3648   -0.7019 C.ar    1  LIG1        0.2119
     20 C           1.2721    7.4138   -0.3607 C.ar    1  LIG1        0.2197
     21 O           1.6438    6.1880    0.1411 O.2     1  LIG1       -0.4407
     22 O          -1.7519    5.5443   -0.5961 O.3     1  LIG1       -0.4883
     23 C          -2.8021    6.2150    0.0919 C.3     1  LIG1        0.0791
     24 H          -3.7264    5.7142   -0.1974 H       1  LIG1        0.0660
     25 H          -2.6699    6.1336    1.1767 H       1  LIG1        0.0660
     26 H          -2.8506    7.2695   -0.1926 H       1  LIG1        0.0660
     27 O          -0.8882    8.2548   -1.2720 O.3     1  LIG1       -0.4883
     28 C          -0.3166    9.3294   -2.0084 C.3     1  LIG1        0.0791
     29 H          -1.1344    9.7640   -2.5838 H       1  LIG1        0.0660
     30 H           0.1063   10.0826   -1.3414 H       1  LIG1        0.0660
     31 H           0.4537    8.9599   -2.6932 H       1  LIG1        0.0660
     32 C           2.3193    8.4072   -0.3710 C.ar    1  LIG1        0.2197
     33 C           2.3779    9.7092    0.0254 C.ar    1  LIG1        0.2119
     34 C           3.7156   10.1626   -0.2216 C.ar    1  LIG1        0.2119
     35 C           4.4021    9.0871   -0.7203 C.ar    1  LIG1        0.2196
     36 O           3.5406    8.0214   -0.8285 O.2     1  LIG1       -0.4407
     37 O           1.3435   10.4500    0.4994 O.3     1  LIG1       -0.4883
     38 C           1.5457   10.9887    1.8043 C.3     1  LIG1        0.0791
     39 H           0.6443   11.5523    2.0459 H       1  LIG1        0.0660
     40 H           1.6807   10.1851    2.5359 H       1  LIG1        0.0660
     41 H           2.4133   11.6526    1.8225 H       1  LIG1        0.0660
     42 O           4.0584   11.4404    0.0320 O.3     1  LIG1       -0.4883
     43 C           5.2947   11.9169   -0.4826 C.3     1  LIG1        0.0791
     44 H           5.2853   12.9957   -0.3267 H       1  LIG1        0.0660
     45 H           6.1390   11.4731    0.0488 H       1  LIG1        0.0660
     46 H           5.3755   11.7050   -1.5538 H       1  LIG1        0.0660
     47 C           5.7701    8.8172   -1.1036 C.ar    1  LIG1        0.2186
     48 C           6.9620    8.9759   -0.4611 C.ar    1  LIG1        0.2111
     49 C           7.9752    8.4828   -1.3492 C.ar    1  LIG1        0.2004
     50 C           7.3251    8.0419   -2.4593 C.ar    1  LIG1        0.1381
     51 O           5.9878    8.2525   -2.3269 O.2     1  LIG1       -0.4521
     52 H           7.6494    7.5857   -3.3791 H       1  LIG1        0.1069
     53 O           7.1400    9.5499    0.7557 O.3     1  LIG1       -0.4883
     54 C           7.8007    8.7266    1.7147 C.3     1  LIG1        0.0791
     55 H           7.8733    9.3178    2.6276 H       1  LIG1        0.0660
     56 H           7.2170    7.8214    1.9121 H       1  LIG1        0.0660
     57 H           8.8013    8.4516    1.3720 H       1  LIG1        0.0660
     58 O           9.2919    8.4894   -1.0417 O.3     1  LIG1       -0.4888
     59 C          10.1356    7.9466   -2.0387 C.3     1  LIG1        0.0791
     60 H          11.1555    8.0192   -1.6630 H       1  LIG1        0.0660
     61 H           9.8898    6.8954   -2.2320 H       1  LIG1        0.0660
     62 H          10.0492    8.5122   -2.9742 H       1  LIG1        0.0660
@<TRIPOS>BOND
     1    52    50    1
     2    62    59    1
     3    31    28    1
     4    29    28    1
     5    50    51   ar
     6    50    49   ar
     7    51    47   ar
     8    61    59    1
     9    59    60    1
    10    59    58    1
    11    28    30    1
    12    28    27    1
    13    46    43    1
    14    49    58    1
    15    49    48   ar
    16    27    19    1
    17    47    35    1
    18    47    48   ar
    19    36    35   ar
    20    36    32   ar
    21    35    34   ar
    22    19    18   ar
    23    19    20   ar
    24    22    18    1
    25    22    23    1
    26    43    44    1
    27    43    42    1
    28    43    45    1
    29    48    53    1
    30    32    20    1
    31    32    33   ar
    32    18    17   ar
    33    20    21   ar
    34    16    13    1
    35    34    33   ar
    36    34    42    1
    37    24    23    1
    38    26    23    1
    39    15    13    1
    40    33    37    1
    41    23    25    1
    42    17    21   ar
    43    17     4    1
    44     5     4   ar
    45     5     1   ar
    46    13    14    1
    47    13    12    1
    48    37    38    1
    49     4     3   ar
    50    53    54    1
    51     6     1    1
    52     1     2   ar
    53     3     2   ar
    54     3    12    1
    55    11     8    1
    56    57    54    1
    57     2     7    1
    58    54    56    1
    59    54    55    1
    60    38    41    1
    61    38    39    1
    62    38    40    1
    63     7     8    1
    64     8     9    1
    65     8    10    1
