@<TRIPOS>MOLECULE
mol_data/opt/cam/geoms/mol2/12ll12ll-12ll-12ll.out
 62 65 0 0 0
SMALL
GASTEIGER

@<TRIPOS>ATOM
      1 C          -0.0973    1.9693    0.1020 C.ar    1  LIG1        0.1381
      2 C           1.2198    1.9219   -0.2328 C.ar    1  LIG1        0.2004
      3 C           1.6702    3.2811   -0.3147 C.ar    1  LIG1        0.2111
      4 C           0.5870    4.0561   -0.0079 C.ar    1  LIG1        0.2186
      5 O          -0.4916    3.2703    0.2375 O.2     1  LIG1       -0.4521
      6 H          -0.8559    1.2234    0.2642 H       1  LIG1        0.1069
      7 O           2.0357    0.8718   -0.4654 O.3     1  LIG1       -0.4888
      8 C           1.4155   -0.3946   -0.3645 C.3     1  LIG1        0.0791
      9 H           2.1809   -1.1393   -0.5798 H       1  LIG1        0.0660
     10 H           1.0183   -0.5590    0.6447 H       1  LIG1        0.0660
     11 H           0.5985   -0.4893   -1.0899 H       1  LIG1        0.0660
     12 O           2.9045    3.7094   -0.6772 O.3     1  LIG1       -0.4883
     13 C           3.9221    3.4418    0.2835 C.3     1  LIG1        0.0791
     14 H           4.8370    3.8971   -0.0977 H       1  LIG1        0.0660
     15 H           3.6714    3.8961    1.2480 H       1  LIG1        0.0660
     16 H           4.0673    2.3644    0.4103 H       1  LIG1        0.0660
     17 C           0.4340    5.4806    0.1016 C.ar    1  LIG1        0.2196
     18 C          -0.6273    6.3229    0.2863 C.ar    1  LIG1        0.2119
     19 C          -0.0878    7.6497    0.3380 C.ar    1  LIG1        0.2119
     20 C           1.2594    7.5264    0.1570 C.ar    1  LIG1        0.2197
     21 O           1.5793    6.2106    0.0209 O.2     1  LIG1       -0.4407
     22 O          -1.9399    5.9869    0.3609 O.3     1  LIG1       -0.4883
     23 C          -2.5175    6.2049    1.6454 C.3     1  LIG1        0.0791
     24 H          -3.5746    5.9532    1.5562 H       1  LIG1        0.0660
     25 H          -2.0504    5.5553    2.3934 H       1  LIG1        0.0660
     26 H          -2.4109    7.2499    1.9518 H       1  LIG1        0.0660
     27 O          -0.7840    8.7914    0.5773 O.3     1  LIG1       -0.4883
     28 C          -1.5773    9.2200   -0.5309 C.3     1  LIG1        0.0791
     29 H          -2.1627   10.0708   -0.1798 H       1  LIG1        0.0660
     30 H          -0.9306    9.5340   -1.3549 H       1  LIG1        0.0660
     31 H          -2.2507    8.4221   -0.8584 H       1  LIG1        0.0660
     32 C           2.3492    8.4553    0.0526 C.ar    1  LIG1        0.2197
     33 C           2.4355    9.7626   -0.3251 C.ar    1  LIG1        0.2119
     34 C           3.8306   10.0907   -0.3467 C.ar    1  LIG1        0.2119
     35 C           4.5103    8.9547    0.0136 C.ar    1  LIG1        0.2196
     36 O           3.5920    7.9613    0.2687 O.2     1  LIG1       -0.4407
     37 O           1.4160   10.5625   -0.7228 O.3     1  LIG1       -0.4883
     38 C           1.1104   11.6126    0.1914 C.3     1  LIG1        0.0791
     39 H           0.3380   12.2194   -0.2826 H       1  LIG1        0.0660
     40 H           0.7266   11.1994    1.1295 H       1  LIG1        0.0660
     41 H           1.9920   12.2312    0.3832 H       1  LIG1        0.0660
     42 O           4.2328   11.3235   -0.7110 O.3     1  LIG1       -0.4883
     43 C           5.5916   11.4871   -1.0900 C.3     1  LIG1        0.0791
     44 H           5.6776   12.5044   -1.4711 H       1  LIG1        0.0660
     45 H           6.2604   11.3494   -0.2376 H       1  LIG1        0.0660
     46 H           5.8628   10.7776   -1.8789 H       1  LIG1        0.0660
     47 C           5.8910    8.5715    0.2046 C.ar    1  LIG1        0.2186
     48 C           6.6259    7.4705   -0.1529 C.ar    1  LIG1        0.2111
     49 C           7.9166    7.6235    0.4638 C.ar    1  LIG1        0.2004
     50 C           7.8809    8.7961    1.1402 C.ar    1  LIG1        0.1381
     51 O           6.6695    9.3851    0.9978 O.2     1  LIG1       -0.4521
     52 H           8.6230    9.3275    1.7129 H       1  LIG1        0.1069
     53 O           6.3549    6.3962   -0.9226 O.3     1  LIG1       -0.4883
     54 C           5.2392    6.4500   -1.8083 C.3     1  LIG1        0.0791
     55 H           5.3886    5.6422   -2.5245 H       1  LIG1        0.0660
     56 H           4.2998    6.2972   -1.2741 H       1  LIG1        0.0660
     57 H           5.2141    7.4074   -2.3378 H       1  LIG1        0.0660
     58 O           8.9928    6.8097    0.3292 O.3     1  LIG1       -0.4888
     59 C           8.7836    5.4694    0.7603 C.3     1  LIG1        0.0791
     60 H           9.7232    4.9427    0.5911 H       1  LIG1        0.0660
     61 H           8.5372    5.4381    1.8279 H       1  LIG1        0.0660
     62 H           7.9853    4.9904    0.1880 H       1  LIG1        0.0660
@<TRIPOS>BOND
     1    55    54    1
     2    57    54    1
     3    46    43    1
     4    54    56    1
     5    54    53    1
     6    44    43    1
     7    30    28    1
     8    43    42    1
     9    43    45    1
    10    11     8    1
    11    53    48    1
    12    31    28    1
    13    37    33    1
    14    37    38    1
    15    42    34    1
    16    12     3    1
    17    12    13    1
    18     9     8    1
    19    28    29    1
    20    28    27    1
    21     7     8    1
    22     7     2    1
    23     8    10    1
    24    34    33   ar
    25    34    35   ar
    26    33    32   ar
    27     3     2   ar
    28     3     4   ar
    29    39    38    1
    30     2     1   ar
    31    48    47   ar
    32    48    49   ar
    33    14    13    1
    34     4    17    1
    35     4     5   ar
    36    35    47    1
    37    35    36   ar
    38    21    17   ar
    39    21    20   ar
    40    32    20    1
    41    32    36   ar
    42    17    18   ar
    43     1     5   ar
    44     1     6    1
    45    20    19   ar
    46    62    59    1
    47    38    41    1
    48    38    40    1
    49    47    51   ar
    50    13    16    1
    51    13    15    1
    52    18    19   ar
    53    18    22    1
    54    58    49    1
    55    58    59    1
    56    19    27    1
    57    22    23    1
    58    49    50   ar
    59    60    59    1
    60    59    61    1
    61    51    50   ar
    62    50    52    1
    63    24    23    1
    64    23    26    1
    65    23    25    1
