@<TRIPOS>MOLECULE
mol_data/opt/cam/geoms/mol2/12ll4df-13dl6el.out
 57 60 0 0 0
SMALL
GASTEIGER

@<TRIPOS>ATOM
      1 C           0.2101    1.4616    0.1799 C.ar    1  LIG1        0.1379
      2 C           1.4900    1.4379   -0.2777 C.ar    1  LIG1        0.2003
      3 C           1.9092    2.8094   -0.3861 C.ar    1  LIG1        0.2079
      4 C           0.8491    3.5655    0.0321 C.ar    1  LIG1        0.1814
      5 O          -0.1972    2.7470    0.3557 O.2     1  LIG1       -0.4553
      6 H          -0.5052    0.6945    0.4229 H       1  LIG1        0.1069
      7 O           2.2776    0.3937   -0.6119 O.3     1  LIG1       -0.4888
      8 C           1.6798   -0.8792   -0.4561 C.3     1  LIG1        0.0791
      9 H           2.4224   -1.6145   -0.7625 H       1  LIG1        0.0660
     10 H           1.3993   -1.0556    0.5892 H       1  LIG1        0.0660
     11 H           0.7891   -0.9727   -1.0888 H       1  LIG1        0.0660
     12 O           3.0445    3.2931   -0.9222 O.3     1  LIG1       -0.4884
     13 C           4.2691    2.7190   -0.4543 C.3     1  LIG1        0.0791
     14 H           5.0610    3.2271   -1.0026 H       1  LIG1        0.0660
     15 H           4.3960    2.9133    0.6131 H       1  LIG1        0.0660
     16 H           4.2978    1.6473   -0.6583 H       1  LIG1        0.0660
     17 C           1.5556    5.9630    0.3901 C.ar    1  LIG1        0.0634
     18 C           1.2282    7.3182    0.3727 C.ar    1  LIG1       -0.0310
     19 C           0.5848    4.9957    0.0673 C.ar    1  LIG1        0.0418
     20 C          -0.0510    7.7770    0.0597 C.ar    1  LIG1        0.0423
     21 H           2.0024    8.0282    0.6322 H       1  LIG1        0.0638
     22 C          -0.7041    5.4457   -0.2131 C.ar    1  LIG1       -0.0075
     23 C          -1.0229    6.7935   -0.2105 C.ar    1  LIG1        0.1267
     24 H          -1.4716    4.7148   -0.4476 H       1  LIG1        0.0662
     25 N           3.9119    5.3626    1.2786 N.1     1  LIG1       -0.1908
     26 C           2.8649    5.6034    0.8497 C.1     1  LIG1        0.0999
     27 O          -2.2920    7.2041   -0.4840 O.3     1  LIG1       -0.5061
     28 H          -2.8518    6.4435   -0.6798 H       1  LIG1        0.2922
     29 C          -0.3479    9.2110    0.0363 C.ar    1  LIG1        0.0717
     30 C           0.5117   10.3144   -0.0157 C.ar    1  LIG1        0.1192
     31 C          -0.3005   11.4808    0.0052 C.ar    1  LIG1        0.1632
     32 C          -1.6259   11.0832    0.0675 C.ar    1  LIG1        0.0933
     33 N          -1.6084    9.7078    0.0777 N.ar    1  LIG1       -0.3500
     34 H          -2.4343    9.1258    0.1174 H       1  LIG1        0.1661
     35 N           3.0779   10.3598   -0.2284 N.1     1  LIG1       -0.1907
     36 C           1.9231   10.3213   -0.1381 C.1     1  LIG1        0.1050
     37 O           0.1368   12.7640   -0.0790 O.3     1  LIG1       -0.4917
     38 C           0.9523   13.2075    1.0062 C.3     1  LIG1        0.0789
     39 H           1.1744   14.2566    0.8114 H       1  LIG1        0.0660
     40 H           0.4147   13.1147    1.9554 H       1  LIG1        0.0660
     41 H           1.8884   12.6461    1.0566 H       1  LIG1        0.0660
     42 C          -4.1074   11.4193    0.4947 C.ar    1  LIG1        0.1226
     43 C          -2.8480   11.8877    0.0719 C.ar    1  LIG1        0.0392
     44 C          -2.7762   13.2146   -0.3804 C.ar    1  LIG1       -0.0065
     45 C          -3.9161   13.9977   -0.3892 C.ar    1  LIG1        0.1388
     46 C          -5.1219   13.4306    0.0464 C.ar    1  LIG1        0.0706
     47 N          -5.2103   12.1884    0.4704 N.ar    1  LIG1       -0.2424
     48 H          -1.8224   13.5979   -0.7122 H       1  LIG1        0.0662
     49 H          -6.0261   14.0334    0.0369 H       1  LIG1        0.0867
     50 C          -4.3226   10.0924    1.0050 C.1     1  LIG1       -0.0491
     51 C          -4.5311    8.9867    1.4354 C.1     1  LIG1       -0.1124
     52 H          -4.7260    8.0238    1.8482 H       1  LIG1        0.1232
     53 O          -3.9765   15.2834   -0.7981 O.3     1  LIG1       -0.4936
     54 C          -2.7839   15.8917   -1.2566 C.3     1  LIG1        0.0789
     55 H          -3.0500   16.9127   -1.5271 H       1  LIG1        0.0660
     56 H          -2.0180   15.9115   -0.4733 H       1  LIG1        0.0660
     57 H          -2.3840   15.3755   -2.1362 H       1  LIG1        0.0660
@<TRIPOS>BOND
     1    57    54    1
     2    55    54    1
     3    54    53    1
     4    54    56    1
     5    11     8    1
     6    14    13    1
     7    12    13    1
     8    12     3    1
     9    53    45    1
    10     9     8    1
    11    48    44    1
    12    28    27    1
    13    16    13    1
    14     7     8    1
    15     7     2    1
    16    27    23    1
    17     8    10    1
    18    13    15    1
    19    24    22    1
    20    45    44   ar
    21    45    46   ar
    22     3     2   ar
    23     3     4   ar
    24    44    43   ar
    25     2     1   ar
    26    35    36    3
    27    22    23   ar
    28    22    19   ar
    29    23    20   ar
    30    36    30    1
    31    37    31    1
    32    37    38    1
    33    30    31   ar
    34    30    29   ar
    35    31    32   ar
    36     4    19    1
    37     4     5   ar
    38    29    20    1
    39    29    33   ar
    40    49    46    1
    41    46    47   ar
    42    20    18   ar
    43    19    17   ar
    44    32    43    1
    45    32    33   ar
    46    43    42   ar
    47    33    34    1
    48     1     5   ar
    49     1     6    1
    50    18    17   ar
    51    18    21    1
    52    17    26    1
    53    47    42   ar
    54    42    50    1
    55    39    38    1
    56    26    25    3
    57    50    51    3
    58    38    41    1
    59    38    40    1
    60    51    52    1
