@<TRIPOS>MOLECULE
mol_data/opt/cam/geoms/mol2/12ll12ll12ll-12ll-.out
 62 65 0 0 0
SMALL
GASTEIGER

@<TRIPOS>ATOM
      1 C           0.5249    1.6342    0.7998 C.ar    1  LIG1        0.1381
      2 C           1.4599    1.7405   -0.1818 C.ar    1  LIG1        0.2004
      3 C           1.6430    3.1448   -0.4104 C.ar    1  LIG1        0.2111
      4 C           0.8208    3.7923    0.4640 C.ar    1  LIG1        0.2186
      5 O           0.1410    2.8734    1.2086 O.2     1  LIG1       -0.4521
      6 H           0.0568    0.8004    1.2947 H       1  LIG1        0.1069
      7 O           2.1273    0.7876   -0.8722 O.3     1  LIG1       -0.4888
      8 C           1.8017   -0.5406   -0.5127 C.3     1  LIG1        0.0791
      9 H           2.4108   -1.1948   -1.1354 H       1  LIG1        0.0660
     10 H           2.0281   -0.7266    0.5440 H       1  LIG1        0.0660
     11 H           0.7397   -0.7476   -0.6926 H       1  LIG1        0.0660
     12 O           2.5053    3.7340   -1.2788 O.3     1  LIG1       -0.4883
     13 C           2.3163    3.3727   -2.6442 C.3     1  LIG1        0.0791
     14 H           3.0716    3.9155   -3.2127 H       1  LIG1        0.0660
     15 H           2.4481    2.2972   -2.7878 H       1  LIG1        0.0660
     16 H           1.3192    3.6691   -2.9873 H       1  LIG1        0.0660
     17 C           0.5427    5.1907    0.6993 C.ar    1  LIG1        0.2196
     18 C           1.2914    6.3199    0.9034 C.ar    1  LIG1        0.2119
     19 C           0.3675    7.4112    1.0039 C.ar    1  LIG1        0.2119
     20 C          -0.8802    6.8781    0.8590 C.ar    1  LIG1        0.2197
     21 O          -0.7888    5.5381    0.6810 O.2     1  LIG1       -0.4407
     22 O           2.6127    6.5374    1.0430 O.3     1  LIG1       -0.4883
     23 C           3.4478    5.4228    1.3245 C.3     1  LIG1        0.0791
     24 H           4.4118    5.8392    1.6179 H       1  LIG1        0.0660
     25 H           3.0397    4.8329    2.1517 H       1  LIG1        0.0660
     26 H           3.5718    4.7907    0.4427 H       1  LIG1        0.0660
     27 O           0.6748    8.6989    1.2863 O.3     1  LIG1       -0.4883
     28 C           1.4070    9.3657    0.2653 C.3     1  LIG1        0.0791
     29 H           1.6111   10.3697    0.6384 H       1  LIG1        0.0660
     30 H           2.3507    8.8526    0.0581 H       1  LIG1        0.0660
     31 H           0.8146    9.4344   -0.6539 H       1  LIG1        0.0660
     32 C          -2.1951    7.4621    0.8594 C.ar    1  LIG1        0.2197
     33 C          -3.4429    6.9288    1.0030 C.ar    1  LIG1        0.2119
     34 C          -4.3666    8.0205    0.9044 C.ar    1  LIG1        0.2119
     35 C          -3.6178    9.1499    0.7026 C.ar    1  LIG1        0.2196
     36 O          -2.2863    8.8025    0.6840 O.2     1  LIG1       -0.4407
     37 O          -3.7503    5.6406    1.2828 O.3     1  LIG1       -0.4883
     38 C          -4.4839    4.9763    0.2613 C.3     1  LIG1        0.0791
     39 H          -4.6883    3.9717    0.6326 H       1  LIG1        0.0660
     40 H          -5.4275    5.4903    0.0560 H       1  LIG1        0.0660
     41 H          -3.8925    4.9090   -0.6587 H       1  LIG1        0.0660
     42 O          -5.6880    7.8030    1.0433 O.3     1  LIG1       -0.4883
     43 C          -6.5227    8.9171    1.3282 C.3     1  LIG1        0.0791
     44 H          -7.4866    8.5002    1.6210 H       1  LIG1        0.0660
     45 H          -6.1140    9.5048    2.1567 H       1  LIG1        0.0660
     46 H          -6.6470    9.5515    0.4481 H       1  LIG1        0.0660
     47 C          -3.8958   10.5488    0.4700 C.ar    1  LIG1        0.2186
     48 C          -4.7182   11.1977   -0.4031 C.ar    1  LIG1        0.2111
     49 C          -4.5352   12.6016   -0.1721 C.ar    1  LIG1        0.2004
     50 C          -3.6001   12.7063    0.8096 C.ar    1  LIG1        0.1381
     51 O          -3.2160   11.4663    1.2162 O.2     1  LIG1       -0.4521
     52 H          -3.1320   13.5392    1.3059 H       1  LIG1        0.1069
     53 O          -5.5805   10.6099   -1.2724 O.3     1  LIG1       -0.4883
     54 C          -5.3922   10.9739   -2.6372 C.3     1  LIG1        0.0791
     55 H          -6.1473   10.4316   -3.2065 H       1  LIG1        0.0660
     56 H          -5.5248   12.0496   -2.7787 H       1  LIG1        0.0660
     57 H          -4.3949   10.6789   -2.9811 H       1  LIG1        0.0660
     58 O          -5.2028   13.5557   -0.8607 O.3     1  LIG1       -0.4888
     59 C          -4.8771   14.8833   -0.4990 C.3     1  LIG1        0.0791
     60 H          -5.4864   15.5386   -1.1204 H       1  LIG1        0.0660
     61 H          -5.1033   15.0674    0.5582 H       1  LIG1        0.0660
     62 H          -3.8152   15.0907   -0.6786 H       1  LIG1        0.0660
@<TRIPOS>BOND
     1    14    13    1
     2    55    54    1
     3    16    13    1
     4    57    54    1
     5    15    13    1
     6    56    54    1
     7    13    12    1
     8    54    53    1
     9    12     3    1
    10    53    48    1
    11     9     8    1
    12    60    59    1
    13     7     8    1
    14     7     2    1
    15    58    59    1
    16    58    49    1
    17    11     8    1
    18    62    59    1
    19    41    38    1
    20    31    28    1
    21     8    10    1
    22    59    61    1
    23     3     2   ar
    24     3     4   ar
    25    48    49   ar
    26    48    47   ar
    27     2     1   ar
    28    49    50   ar
    29    40    38    1
    30    30    28    1
    31    38    39    1
    32    38    37    1
    33    28    29    1
    34    28    27    1
    35    26    23    1
    36    46    43    1
    37     4    17    1
    38     4     5   ar
    39    47    35    1
    40    47    51   ar
    41    21    17   ar
    42    21    20   ar
    43    36    35   ar
    44    36    32   ar
    45    17    18   ar
    46    35    34   ar
    47     1     5   ar
    48     1     6    1
    49    50    51   ar
    50    50    52    1
    51    20    32    1
    52    20    19   ar
    53    32    33   ar
    54    18    19   ar
    55    18    22    1
    56    34    33   ar
    57    34    42    1
    58    33    37    1
    59    19    27    1
    60    22    23    1
    61    42    43    1
    62    23    24    1
    63    23    25    1
    64    43    44    1
    65    43    45    1
