@<TRIPOS>MOLECULE
mol_data/opt/cam/geoms/mol2/12ll12ll12ll12ll.out
 62 65 0 0 0
SMALL
GASTEIGER

@<TRIPOS>ATOM
      1 C           1.0601    2.2682    2.5216 C.ar    1  LIG1        0.1381
      2 C           1.7724    1.8257    1.4511 C.ar    1  LIG1        0.2004
      3 C           1.8350    2.9241    0.5302 C.ar    1  LIG1        0.2111
      4 C           1.1718    3.9611    1.1157 C.ar    1  LIG1        0.2186
      5 O           0.7023    3.5671    2.3349 O.2     1  LIG1       -0.4521
      6 H           0.7435    1.8122    3.4441 H       1  LIG1        0.1069
      7 O           2.3355    0.6221    1.2016 O.3     1  LIG1       -0.4888
      8 C           2.1472   -0.3423    2.2190 C.3     1  LIG1        0.0791
      9 H           2.6487   -1.2512    1.8889 H       1  LIG1        0.0660
     10 H           2.5879   -0.0042    3.1645 H       1  LIG1        0.0660
     11 H           1.0810   -0.5470    2.3738 H       1  LIG1        0.0660
     12 O           2.4769    2.9625   -0.6650 O.3     1  LIG1       -0.4883
     13 C           2.0342    1.9919   -1.6117 C.3     1  LIG1        0.0791
     14 H           2.6356    2.1422   -2.5083 H       1  LIG1        0.0660
     15 H           2.1836    0.9780   -1.2322 H       1  LIG1        0.0660
     16 H           0.9766    2.1432   -1.8518 H       1  LIG1        0.0660
     17 C           0.8636    5.3046    0.6767 C.ar    1  LIG1        0.2196
     18 C           1.5787    6.3620    0.1793 C.ar    1  LIG1        0.2119
     19 C           0.6218    7.3812   -0.1383 C.ar    1  LIG1        0.2119
     20 C          -0.6029    6.9016    0.2154 C.ar    1  LIG1        0.2197
     21 O          -0.4665    5.6446    0.7145 O.2     1  LIG1       -0.4407
     22 O           2.8938    6.5763   -0.0202 O.3     1  LIG1       -0.4883
     23 C           3.8163    5.6607    0.5550 C.3     1  LIG1        0.0791
     24 H           4.8002    6.1134    0.4317 H       1  LIG1        0.0660
     25 H           3.6108    5.5223    1.6215 H       1  LIG1        0.0660
     26 H           3.7850    4.6969    0.0427 H       1  LIG1        0.0660
     27 O           0.8850    8.6205   -0.6263 O.3     1  LIG1       -0.4883
     28 C           1.5260    8.6358   -1.9001 C.3     1  LIG1        0.0791
     29 H           1.6725    9.6851   -2.1567 H       1  LIG1        0.0660
     30 H           2.4919    8.1268   -1.8578 H       1  LIG1        0.0660
     31 H           0.8915    8.1605   -2.6557 H       1  LIG1        0.0660
     32 C          -1.9377    7.4505    0.1276 C.ar    1  LIG1        0.2197
     33 C          -2.5331    8.6361    0.4703 C.ar    1  LIG1        0.2119
     34 C          -3.8887    8.5518    0.0113 C.ar    1  LIG1        0.2119
     35 C          -4.0463    7.3178   -0.5431 C.ar    1  LIG1        0.2196
     36 O          -2.8696    6.6401   -0.4721 O.2     1  LIG1       -0.4407
     37 O          -2.0971    9.7358    1.1153 O.3     1  LIG1       -0.4883
     38 C          -0.8927    9.6390    1.8652 C.3     1  LIG1        0.0791
     39 H          -0.8492   10.5414    2.4755 H       1  LIG1        0.0660
     40 H          -0.9133    8.7596    2.5171 H       1  LIG1        0.0660
     41 H          -0.0223    9.5952    1.2078 H       1  LIG1        0.0660
     42 O          -4.8610    9.4865    0.1692 O.3     1  LIG1       -0.4883
     43 C          -4.5833   10.7447   -0.4405 C.3     1  LIG1        0.0791
     44 H          -5.4403   11.3842   -0.2278 H       1  LIG1        0.0660
     45 H          -3.6767   11.1903   -0.0238 H       1  LIG1        0.0660
     46 H          -4.4731   10.6317   -1.5244 H       1  LIG1        0.0660
     47 C          -5.1691    6.6586   -1.1726 C.ar    1  LIG1        0.2186
     48 C          -6.4871    6.4556   -0.8601 C.ar    1  LIG1        0.2111
     49 C          -7.0716    5.7780   -1.9861 C.ar    1  LIG1        0.2004
     50 C          -6.0746    5.6064   -2.8865 C.ar    1  LIG1        0.1381
     51 O          -4.9183    6.1210   -2.4137 O.2     1  LIG1       -0.4521
     52 H          -6.0422    5.1246   -3.8500 H       1  LIG1        0.1069
     53 O          -7.2266    6.7313    0.2323 O.3     1  LIG1       -0.4883
     54 C          -6.5453    7.0328    1.4429 C.3     1  LIG1        0.0791
     55 H          -7.3018    6.9963    2.2272 H       1  LIG1        0.0660
     56 H          -5.7726    6.2847    1.6478 H       1  LIG1        0.0660
     57 H          -6.0994    8.0287    1.4064 H       1  LIG1        0.0660
     58 O          -8.3441    5.3198   -2.0964 O.3     1  LIG1       -0.4888
     59 C          -9.3458    6.3244   -1.9881 C.3     1  LIG1        0.0791
     60 H         -10.3047    5.8142   -2.0854 H       1  LIG1        0.0660
     61 H          -9.2954    6.8312   -1.0211 H       1  LIG1        0.0660
     62 H          -9.2453    7.0631   -2.7920 H       1  LIG1        0.0660
@<TRIPOS>BOND
     1    52    50    1
     2    50    51   ar
     3    50    49   ar
     4    62    59    1
     5    31    28    1
     6    14    13    1
     7    51    47   ar
     8    29    28    1
     9    58    59    1
    10    58    49    1
    11    60    59    1
    12    59    61    1
    13    49    48   ar
    14    28    30    1
    15    28    27    1
    16    16    13    1
    17    13    15    1
    18    13    12    1
    19    46    43    1
    20    47    48   ar
    21    47    35    1
    22    48    53    1
    23    12     3    1
    24    27    19    1
    25    35    36   ar
    26    35    34   ar
    27    36    32   ar
    28    43    44    1
    29    43    45    1
    30    43    42    1
    31    19    18   ar
    32    19    20   ar
    33    22    18    1
    34    22    23    1
    35    34    42    1
    36    34    33   ar
    37    26    23    1
    38    32    20    1
    39    32    33   ar
    40    18    17   ar
    41    20    21   ar
    42    53    54    1
    43    24    23    1
    44    33    37    1
    45     3     4   ar
    46     3     2   ar
    47    23    25    1
    48    17    21   ar
    49    17     4    1
    50    37    38    1
    51     4     5   ar
    52     7     2    1
    53     7     8    1
    54    41    38    1
    55    57    54    1
    56    54    56    1
    57    54    55    1
    58     2     1   ar
    59    38    39    1
    60    38    40    1
    61     9     8    1
    62     8    11    1
    63     8    10    1
    64     5     1   ar
    65     1     6    1
