@<TRIPOS>MOLECULE
mol_data/opt/cam/geoms/mol2/12ll12ll12ll12ll-.out
 62 65 0 0 0
SMALL
GASTEIGER

@<TRIPOS>ATOM
      1 C           1.3243    2.2298    2.5886 C.ar    1  LIG1        0.1381
      2 C           1.9387    1.7817    1.4612 C.ar    1  LIG1        0.2004
      3 C           1.8657    2.8550    0.5121 C.ar    1  LIG1        0.2111
      4 C           1.2289    3.8854    1.1377 C.ar    1  LIG1        0.2186
      5 O           0.9025    3.5098    2.4081 O.2     1  LIG1       -0.4521
      6 H           1.1204    1.7894    3.5497 H       1  LIG1        0.1069
      7 O           2.5171    0.5905    1.1854 O.3     1  LIG1       -0.4888
      8 C           2.4731   -0.3472    2.2433 C.3     1  LIG1        0.0791
      9 H           2.9714   -1.2482    1.8875 H       1  LIG1        0.0660
     10 H           2.9970    0.0357    3.1273 H       1  LIG1        0.0660
     11 H           1.4375   -0.5839    2.5158 H       1  LIG1        0.0660
     12 O           2.3797    2.8825   -0.7443 O.3     1  LIG1       -0.4883
     13 C           1.8914    1.8627   -1.6124 C.3     1  LIG1        0.0791
     14 H           2.3893    2.0115   -2.5706 H       1  LIG1        0.0660
     15 H           2.1283    0.8694   -1.2232 H       1  LIG1        0.0660
     16 H           0.8084    1.9564   -1.7456 H       1  LIG1        0.0660
     17 C           0.8309    5.2067    0.7043 C.ar    1  LIG1        0.2196
     18 C           1.4512    6.2712    0.1049 C.ar    1  LIG1        0.2119
     19 C           0.4335    7.2548   -0.1216 C.ar    1  LIG1        0.2119
     20 C          -0.7273    6.7510    0.3838 C.ar    1  LIG1        0.2197
     21 O          -0.4956    5.5111    0.8899 O.2     1  LIG1       -0.4407
     22 O           2.7278    6.5161   -0.2511 O.3     1  LIG1       -0.4883
     23 C           3.7401    5.6561    0.2543 C.3     1  LIG1        0.0791
     24 H           4.6877    6.1367    0.0103 H       1  LIG1        0.0660
     25 H           3.6538    5.5532    1.3409 H       1  LIG1        0.0660
     26 H           3.6919    4.6722   -0.2169 H       1  LIG1        0.0660
     27 O           0.6005    8.4883   -0.6651 O.3     1  LIG1       -0.4883
     28 C           1.0911    8.4885   -2.0032 C.3     1  LIG1        0.0791
     29 H           1.1776    9.5345   -2.2980 H       1  LIG1        0.0660
     30 H           2.0697    8.0057   -2.0613 H       1  LIG1        0.0660
     31 H           0.3888    7.9786   -2.6715 H       1  LIG1        0.0660
     32 C          -2.0744    7.2680    0.4484 C.ar    1  LIG1        0.2197
     33 C          -2.6506    8.4585    0.8069 C.ar    1  LIG1        0.2119
     34 C          -4.0556    8.3247    0.5558 C.ar    1  LIG1        0.2119
     35 C          -4.2446    7.0648    0.0680 C.ar    1  LIG1        0.2196
     36 O          -3.0579    6.4140    0.0051 O.2     1  LIG1       -0.4407
     37 O          -2.1612    9.5960    1.3354 O.3     1  LIG1       -0.4883
     38 C          -0.8960    9.5437    1.9824 C.3     1  LIG1        0.0791
     39 H          -0.8124   10.4719    2.5485 H       1  LIG1        0.0660
     40 H          -0.8493    8.6929    2.6700 H       1  LIG1        0.0660
     41 H          -0.0844    9.4810    1.2553 H       1  LIG1        0.0660
     42 O          -5.0152    9.2362    0.8424 O.3     1  LIG1       -0.4883
     43 C          -4.9295   10.4381    0.0861 C.3     1  LIG1        0.0791
     44 H          -5.7339   11.0832    0.4410 H       1  LIG1        0.0660
     45 H          -3.9669   10.9336    0.2410 H       1  LIG1        0.0660
     46 H          -5.0717   10.2352   -0.9814 H       1  LIG1        0.0660
     47 C          -5.4190    6.3519   -0.3616 C.ar    1  LIG1        0.2186
     48 C          -5.6763    5.0247   -0.5525 C.ar    1  LIG1        0.2111
     49 C          -7.0302    4.9451   -1.0204 C.ar    1  LIG1        0.2004
     50 C          -7.4994    6.2200   -1.0671 C.ar    1  LIG1        0.1381
     51 O          -6.5235    7.0840   -0.6637 O.2     1  LIG1       -0.4521
     52 H          -8.4440    6.6603   -1.3357 H       1  LIG1        0.1069
     53 O          -4.8500    3.9865   -0.2818 O.3     1  LIG1       -0.4883
     54 C          -4.4258    3.2615   -1.4289 C.3     1  LIG1        0.0791
     55 H          -3.7980    2.4478   -1.0648 H       1  LIG1        0.0660
     56 H          -5.2808    2.8486   -1.9735 H       1  LIG1        0.0660
     57 H          -3.8383    3.9018   -2.0963 H       1  LIG1        0.0660
     58 O          -7.6274    3.7714   -1.3234 O.3     1  LIG1       -0.4888
     59 C          -8.9746    3.8828   -1.7353 C.3     1  LIG1        0.0791
     60 H          -9.3283    2.8723   -1.9374 H       1  LIG1        0.0660
     61 H          -9.5891    4.3346   -0.9473 H       1  LIG1        0.0660
     62 H          -9.0594    4.4891   -2.6457 H       1  LIG1        0.0660
@<TRIPOS>BOND
     1    31    28    1
     2    62    59    1
     3    14    13    1
     4    29    28    1
     5    57    54    1
     6    30    28    1
     7    28    27    1
     8    56    54    1
     9    60    59    1
    10    16    13    1
    11    59    58    1
    12    59    61    1
    13    13    15    1
    14    13    12    1
    15    54    55    1
    16    54    53    1
    17    52    50    1
    18    58    49    1
    19    50    49   ar
    20    50    51   ar
    21    49    48   ar
    22    46    43    1
    23    12     3    1
    24    27    19    1
    25    51    47   ar
    26    48    47   ar
    27    48    53    1
    28    47    35    1
    29    22    18    1
    30    22    23    1
    31    26    23    1
    32    19    18   ar
    33    19    20   ar
    34    36    35   ar
    35    36    32   ar
    36    24    23    1
    37    35    34   ar
    38    43    45    1
    39    43    44    1
    40    43    42    1
    41    18    17   ar
    42    23    25    1
    43    20    32    1
    44    20    21   ar
    45    32    33   ar
    46     3     4   ar
    47     3     2   ar
    48    34    33   ar
    49    34    42    1
    50    17    21   ar
    51    17     4    1
    52    33    37    1
    53     4     5   ar
    54     7     2    1
    55     7     8    1
    56    41    38    1
    57    37    38    1
    58     2     1   ar
    59     9     8    1
    60    38    39    1
    61    38    40    1
    62     8    11    1
    63     8    10    1
    64     5     1   ar
    65     1     6    1
