@<TRIPOS>MOLECULE
mol_data/opt/cam/geoms/mol2/12ll12ll-12ll12ll-.out
 62 65 0 0 0
SMALL
GASTEIGER

@<TRIPOS>ATOM
      1 C          -0.2013    2.0506   -0.8874 C.ar    1  LIG1        0.1381
      2 C           1.1528    1.9486   -0.8201 C.ar    1  LIG1        0.2004
      3 C           1.6313    3.2061   -0.3233 C.ar    1  LIG1        0.2111
      4 C           0.5262    3.9859   -0.1372 C.ar    1  LIG1        0.2186
      5 O          -0.5911    3.2897   -0.4687 O.2     1  LIG1       -0.4521
      6 H          -0.9882    1.3782   -1.1822 H       1  LIG1        0.1069
      7 O           1.9785    0.9241   -1.1260 O.3     1  LIG1       -0.4888
      8 C           1.3268   -0.2480   -1.5738 C.3     1  LIG1        0.0791
      9 H           2.1039   -0.9846   -1.7747 H       1  LIG1        0.0660
     10 H           0.6458   -0.6343   -0.8060 H       1  LIG1        0.0660
     11 H           0.7583   -0.0554   -2.4919 H       1  LIG1        0.0660
     12 O           2.9148    3.5278   -0.0210 O.3     1  LIG1       -0.4883
     13 C           3.7811    3.5952   -1.1500 C.3     1  LIG1        0.0791
     14 H           4.7739    3.8279   -0.7642 H       1  LIG1        0.0660
     15 H           3.8086    2.6383   -1.6792 H       1  LIG1        0.0660
     16 H           3.4616    4.3879   -1.8349 H       1  LIG1        0.0660
     17 C           0.3710    5.3376    0.3311 C.ar    1  LIG1        0.2196
     18 C          -0.6676    6.0217    0.8909 C.ar    1  LIG1        0.2119
     19 C          -0.1726    7.3305    1.2066 C.ar    1  LIG1        0.2119
     20 C           1.1413    7.3611    0.8139 C.ar    1  LIG1        0.2197
     21 O           1.4649    6.1377    0.2700 O.2     1  LIG1       -0.4407
     22 O          -1.8909    5.5262    1.1904 O.3     1  LIG1       -0.4883
     23 C          -2.9713    6.1798    0.5333 C.3     1  LIG1        0.0791
     24 H          -3.8829    5.6985    0.8886 H       1  LIG1        0.0660
     25 H          -2.9970    7.2442    0.7815 H       1  LIG1        0.0660
     26 H          -2.8955    6.0562   -0.5528 H       1  LIG1        0.0660
     27 O          -0.9746    8.2298    1.8073 O.3     1  LIG1       -0.4883
     28 C          -0.3849    9.3964    2.3719 C.3     1  LIG1        0.0791
     29 H          -1.1630    9.8557    2.9814 H       1  LIG1        0.0660
     30 H           0.4644    9.1306    3.0094 H       1  LIG1        0.0660
     31 H          -0.0575   10.0945    1.5984 H       1  LIG1        0.0660
     32 C           2.1814    8.3632    0.7900 C.ar    1  LIG1        0.2197
     33 C           3.5100    8.3960    1.1295 C.ar    1  LIG1        0.2119
     34 C           3.9918    9.7028    0.7861 C.ar    1  LIG1        0.2119
     35 C           2.9315   10.3836    0.2642 C.ar    1  LIG1        0.2196
     36 O           1.8361    9.5833    0.2519 O.2     1  LIG1       -0.4407
     37 O           4.3355    7.5004    1.7030 O.3     1  LIG1       -0.4883
     38 C           3.7691    6.3373    2.2980 C.3     1  LIG1        0.0791
     39 H           4.5710    5.8816    2.8786 H       1  LIG1        0.0660
     40 H           2.9459    6.6072    2.9674 H       1  LIG1        0.0660
     41 H           3.4110    5.6346    1.5425 H       1  LIG1        0.0660
     42 O           5.2260   10.2000    1.0332 O.3     1  LIG1       -0.4883
     43 C           6.2793    9.5423    0.3373 C.3     1  LIG1        0.0791
     44 H           7.2043   10.0256    0.6528 H       1  LIG1        0.0660
     45 H           6.3150    8.4793    0.5909 H       1  LIG1        0.0660
     46 H           6.1599    9.6592   -0.7456 H       1  LIG1        0.0660
     47 C           2.7574   11.7324   -0.2059 C.ar    1  LIG1        0.2186
     48 C           1.6457   12.5112   -0.3523 C.ar    1  LIG1        0.2111
     49 C           2.1037   13.7655   -0.8756 C.ar    1  LIG1        0.2004
     50 C           3.4540   13.6629   -0.9966 C.ar    1  LIG1        0.1381
     51 O           3.8604   12.4263   -0.5862 O.2     1  LIG1       -0.4521
     52 H           4.2284   14.3334   -1.3269 H       1  LIG1        0.1069
     53 O           0.3753   12.1915    0.0033 O.3     1  LIG1       -0.4883
     54 C          -0.5356   12.1173   -1.0895 C.3     1  LIG1        0.0791
     55 H          -1.5121   11.8870   -0.6627 H       1  LIG1        0.0660
     56 H          -0.5844   13.0709   -1.6231 H       1  LIG1        0.0660
     57 H          -0.2437   11.3203   -1.7818 H       1  LIG1        0.0660
     58 O           1.2663   14.7882   -1.1545 O.3     1  LIG1       -0.4888
     59 C           1.8993   15.9575   -1.6353 C.3     1  LIG1        0.0791
     60 H           1.1147   16.6928   -1.8094 H       1  LIG1        0.0660
     61 H           2.6105   16.3484   -0.8979 H       1  LIG1        0.0660
     62 H           2.4305   15.7591   -2.5743 H       1  LIG1        0.0660
@<TRIPOS>BOND
     1    62    59    1
     2    11     8    1
     3    16    13    1
     4    60    59    1
     5    57    54    1
     6     9     8    1
     7    15    13    1
     8    59    58    1
     9    59    61    1
    10    56    54    1
    11     8     7    1
    12     8    10    1
    13    52    50    1
    14     6     1    1
    15    58    49    1
    16    13    14    1
    17    13    12    1
    18     7     2    1
    19    54    55    1
    20    54    53    1
    21    50    49   ar
    22    50    51   ar
    23     1     2   ar
    24     1     5   ar
    25    49    48   ar
    26     2     3   ar
    27    46    43    1
    28    51    47   ar
    29    26    23    1
    30     5     4   ar
    31    48    47   ar
    32    48    53    1
    33     3     4   ar
    34     3    12    1
    35    47    35    1
    36     4    17    1
    37    36    35   ar
    38    36    32   ar
    39    35    34   ar
    40    21    17   ar
    41    21    20   ar
    42    17    18   ar
    43    43    45    1
    44    43    44    1
    45    43    42    1
    46    23    25    1
    47    23    24    1
    48    23    22    1
    49    34    42    1
    50    34    33   ar
    51    32    20    1
    52    32    33   ar
    53    20    19   ar
    54    18    22    1
    55    18    19   ar
    56    33    37    1
    57    19    27    1
    58    41    38    1
    59    31    28    1
    60    37    38    1
    61    27    28    1
    62    38    39    1
    63    38    40    1
    64    28    29    1
    65    28    30    1
