@<TRIPOS>MOLECULE
mol_data/opt/cam/geoms/mol2/13124-.out
 27 29 0 0 0
SMALL
GASTEIGER

@<TRIPOS>ATOM
      1 C           1.2139   -0.1716    0.0001 C.ar    1  LIG1        0.0023
      2 C           0.7899    1.1351   -0.0000 C.ar    1  LIG1       -0.0437
      3 C          -0.6261    1.1222    0.0007 C.ar    1  LIG1       -0.0334
      4 C          -1.0269   -0.1984    0.0002 C.ar    1  LIG1        0.0821
      5 N           0.1067   -0.9716   -0.0002 N.ar    1  LIG1       -0.3583
      6 H           0.0959   -1.9781   -0.0005 H       1  LIG1        0.1654
      7 H           2.2076   -0.5923    0.0001 H       1  LIG1        0.0807
      8 H           1.4274    2.0068   -0.0002 H       1  LIG1        0.0633
      9 H          -1.2836    1.9791    0.0011 H       1  LIG1        0.0640
     10 C          -2.3373   -0.8014    0.0002 C.ar    1  LIG1        0.1517
     11 C          -3.6080   -0.3099    0.0005 C.ar    1  LIG1       -0.0138
     12 C          -4.4751   -1.4388    0.0002 C.ar    1  LIG1       -0.0152
     13 C          -3.6869   -2.5505   -0.0002 C.ar    1  LIG1        0.1358
     14 O          -2.3739   -2.1640   -0.0003 O.2     1  LIG1       -0.4534
     15 H          -3.8888    0.7322    0.0009 H       1  LIG1        0.0656
     16 H          -5.5545   -1.4211    0.0003 H       1  LIG1        0.0656
     17 C          -2.9213   -4.9147   -0.0011 C.ar    1  LIG1       -0.0511
     18 C          -3.1942   -6.2755   -0.0015 C.ar    1  LIG1       -0.0611
     19 C          -3.9624   -3.9812   -0.0007 C.ar    1  LIG1        0.0173
     20 C          -4.5076   -6.7298   -0.0015 C.ar    1  LIG1       -0.0617
     21 H          -2.3735   -6.9857   -0.0018 H       1  LIG1        0.0618
     22 C          -5.2821   -4.4478   -0.0007 C.ar    1  LIG1       -0.0511
     23 C          -5.5498   -5.8078   -0.0011 C.ar    1  LIG1       -0.0611
     24 H          -6.1037   -3.7393   -0.0004 H       1  LIG1        0.0625
     25 H          -4.7190   -7.7939   -0.0018 H       1  LIG1        0.0618
     26 H          -1.8956   -4.5655   -0.0011 H       1  LIG1        0.0625
     27 H          -6.5794   -6.1507   -0.0011 H       1  LIG1        0.0618
@<TRIPOS>BOND
     1    25    20    1
     2    21    18    1
     3    20    18   ar
     4    20    23   ar
     5    18    17   ar
     6    17    26    1
     7    17    19   ar
     8    23    27    1
     9    23    22   ar
    10    22    19   ar
    11    22    24    1
    12    19    13    1
    13     6     5    1
    14    14    13   ar
    15    14    10   ar
    16    13    12   ar
    17     8     2    1
    18     5     1   ar
    19     5     4   ar
    20     2     1   ar
    21     2     3   ar
    22     7     1    1
    23    10     4    1
    24    10    11   ar
    25    12    16    1
    26    12    11   ar
    27     4     3   ar
    28    11    15    1
    29     3     9    1
