@<TRIPOS>MOLECULE
mol_data/opt/cam/geoms/mol2/1312-12-.out
 24 26 0 0 0
SMALL
GASTEIGER

@<TRIPOS>ATOM
      1 C           1.2456   -0.3829    0.0001 C.ar    1  LIG1        0.0023
      2 C           0.8846    0.9414   -0.0001 C.ar    1  LIG1       -0.0437
      3 C          -0.5307    0.9960    0.0005 C.ar    1  LIG1       -0.0334
      4 C          -0.9953   -0.3022    0.0002 C.ar    1  LIG1        0.0821
      5 N           0.1005   -1.1315   -0.0001 N.ar    1  LIG1       -0.3583
      6 H           0.0647   -2.1368   -0.0004 H       1  LIG1        0.1654
      7 H           2.2175   -0.8518    0.0000 H       1  LIG1        0.0807
      8 H           1.5634    1.7813   -0.0003 H       1  LIG1        0.0633
      9 H          -1.1550    1.8765    0.0007 H       1  LIG1        0.0640
     10 C          -2.3438   -0.8125    0.0002 C.ar    1  LIG1        0.1519
     11 C          -2.8842   -2.0665    0.0002 C.ar    1  LIG1       -0.0137
     12 C          -4.2978   -1.8978    0.0003 C.ar    1  LIG1       -0.0121
     13 C          -4.5237   -0.5539    0.0003 C.ar    1  LIG1        0.1706
     14 O          -3.3380    0.1138    0.0003 O.2     1  LIG1       -0.4503
     15 H          -2.3473   -3.0036    0.0002 H       1  LIG1        0.0656
     16 H          -5.0489   -2.6731    0.0003 H       1  LIG1        0.0657
     17 C          -5.7311    0.2353    0.0004 C.ar    1  LIG1        0.1697
     18 C          -7.0528   -0.1009    0.0003 C.ar    1  LIG1       -0.0128
     19 C          -7.7762    1.1294    0.0005 C.ar    1  LIG1       -0.0232
     20 C          -6.8454    2.1140    0.0005 C.ar    1  LIG1        0.0927
     21 O          -5.5954    1.5869    0.0005 O.2     1  LIG1       -0.4598
     22 H          -6.9009    3.1906    0.0006 H       1  LIG1        0.1029
     23 H          -7.4591   -1.1010    0.0002 H       1  LIG1        0.0656
     24 H          -8.8480    1.2579    0.0005 H       1  LIG1        0.0649
@<TRIPOS>BOND
     1     6     5    1
     2     8     2    1
     3     2     1   ar
     4     2     3   ar
     5     5     1   ar
     6     5     4   ar
     7     7     1    1
     8     4    10    1
     9     4     3   ar
    10    15    11    1
    11    11    10   ar
    12    11    12   ar
    13    10    14   ar
    14    23    18    1
    15    14    13   ar
    16    12    13   ar
    17    12    16    1
    18    13    17    1
    19    18    17   ar
    20    18    19   ar
    21    17    21   ar
    22     3     9    1
    23    19    24    1
    24    19    20   ar
    25    21    20   ar
    26    20    22    1
