@<TRIPOS>MOLECULE
mol_data/opt/cam/geoms/mol2/1312-4-.out
 27 29 0 0 0
SMALL
GASTEIGER

@<TRIPOS>ATOM
      1 C           1.2731   -0.3902    0.0001 C.ar    1  LIG1        0.0023
      2 C           0.9074    0.9327    0.0008 C.ar    1  LIG1       -0.0437
      3 C          -0.5083    0.9816    0.0002 C.ar    1  LIG1       -0.0334
      4 C          -0.9686   -0.3183    0.0002 C.ar    1  LIG1        0.0821
      5 N           0.1308   -1.1428    0.0002 N.ar    1  LIG1       -0.3583
      6 H           0.0984   -2.1482   -0.0001 H       1  LIG1        0.1654
      7 H           2.2468   -0.8553   -0.0001 H       1  LIG1        0.0807
      8 H           1.5828    1.7752    0.0012 H       1  LIG1        0.0633
      9 H          -1.1338    1.8611    0.0002 H       1  LIG1        0.0640
     10 C          -2.3144   -0.8368    0.0001 C.ar    1  LIG1        0.1517
     11 C          -2.8453   -2.0940    0.0003 C.ar    1  LIG1       -0.0138
     12 C          -4.2599   -1.9333    0.0000 C.ar    1  LIG1       -0.0152
     13 C          -4.5053   -0.5927   -0.0003 C.ar    1  LIG1        0.1358
     14 O          -3.3165    0.0794   -0.0003 O.2     1  LIG1       -0.4534
     15 H          -2.3017   -3.0274    0.0006 H       1  LIG1        0.0656
     16 H          -4.9986   -2.7204    0.0001 H       1  LIG1        0.0656
     17 C          -6.9783   -0.4062   -0.0008 C.ar    1  LIG1       -0.0511
     18 C          -8.1367    0.3553   -0.0011 C.ar    1  LIG1       -0.0611
     19 C          -5.7219    0.2099   -0.0006 C.ar    1  LIG1        0.0173
     20 C          -8.0640    1.7448   -0.0013 C.ar    1  LIG1       -0.0617
     21 H          -9.1028   -0.1390   -0.0013 H       1  LIG1        0.0618
     22 C          -5.6570    1.6068   -0.0008 C.ar    1  LIG1       -0.0511
     23 C          -6.8198    2.3644   -0.0011 C.ar    1  LIG1       -0.0611
     24 H          -4.6880    2.0917   -0.0006 H       1  LIG1        0.0625
     25 H          -8.9716    2.3393   -0.0015 H       1  LIG1        0.0618
     26 H          -7.0477   -1.4890   -0.0007 H       1  LIG1        0.0625
     27 H          -6.7521    3.4475   -0.0012 H       1  LIG1        0.0618
@<TRIPOS>BOND
     1    25    20    1
     2    20    18   ar
     3    20    23   ar
     4    21    18    1
     5    27    23    1
     6    18    17   ar
     7    23    22   ar
     8    17    26    1
     9    17    19   ar
    10    22    24    1
    11    22    19   ar
    12    19    13    1
    13    13    14   ar
    14    13    12   ar
    15    14    10   ar
    16     7     1    1
    17     6     5    1
    18    12    16    1
    19    12    11   ar
    20     1     5   ar
    21     1     2   ar
    22    10     4    1
    23    10    11   ar
    24     9     3    1
    25     3     4   ar
    26     3     2   ar
    27     4     5   ar
    28    11    15    1
    29     2     8    1
