@<TRIPOS>MOLECULE
mol_data/opt/cam/geoms/mol2/13125-.out
 24 26 0 0 0
SMALL
GASTEIGER

@<TRIPOS>ATOM
      1 C           1.2100   -0.1688   -0.0003 C.ar    1  LIG1        0.0023
      2 C           0.7777    1.1353    0.0004 C.ar    1  LIG1       -0.0437
      3 C          -0.6380    1.1137   -0.0001 C.ar    1  LIG1       -0.0334
      4 C          -1.0304   -0.2095    0.0001 C.ar    1  LIG1        0.0821
      5 N           0.1080   -0.9758    0.0001 N.ar    1  LIG1       -0.3583
      6 H           0.1032   -1.9824    0.0001 H       1  LIG1        0.1654
      7 H           2.2063   -0.5830   -0.0005 H       1  LIG1        0.0807
      8 H           1.4097    2.0110    0.0007 H       1  LIG1        0.0633
      9 H          -1.3009    1.9664   -0.0002 H       1  LIG1        0.0640
     10 C          -2.3364   -0.8207    0.0001 C.ar    1  LIG1        0.1518
     11 C          -3.6108   -0.3382    0.0000 C.ar    1  LIG1       -0.0138
     12 C          -4.4717   -1.4720    0.0002 C.ar    1  LIG1       -0.0147
     13 C          -3.6723   -2.5752    0.0003 C.ar    1  LIG1        0.1423
     14 O          -2.3619   -2.1853    0.0003 O.2     1  LIG1       -0.4528
     15 H          -3.8985    0.7018   -0.0002 H       1  LIG1        0.0656
     16 H          -5.5517   -1.4689    0.0003 H       1  LIG1        0.0656
     17 C          -3.9224   -3.9969    0.0005 C.ar    1  LIG1        0.0544
     18 C          -3.0059   -5.0130    0.0008 C.ar    1  LIG1       -0.0440
     19 C          -3.6065   -6.3033    0.0010 C.ar    1  LIG1       -0.0540
     20 C          -4.9652   -6.2522    0.0008 C.ar    1  LIG1       -0.0236
     21 S          -5.5429   -4.6250    0.0004 S.2     1  LIG1       -0.0936
     22 H          -5.6674   -7.0729    0.0008 H       1  LIG1        0.0693
     23 H          -1.9385   -4.8361    0.0010 H       1  LIG1        0.0630
     24 H          -3.0446   -7.2290    0.0012 H       1  LIG1        0.0623
@<TRIPOS>BOND
     1     7     1    1
     2     1     5   ar
     3     1     2   ar
     4     9     3    1
     5    15    11    1
     6     3     4   ar
     7     3     2   ar
     8    11    10   ar
     9    11    12   ar
    10     4     5   ar
    11     4    10    1
    12     5     6    1
    13    10    14   ar
    14    12    16    1
    15    12    13   ar
    16    14    13   ar
    17    13    17    1
    18     2     8    1
    19    21    17   ar
    20    21    20   ar
    21    17    18   ar
    22    20    22    1
    23    20    19   ar
    24    18    19   ar
    25    18    23    1
    26    19    24    1
