@<TRIPOS>MOLECULE
mol_data/opt/cam/geoms/mol2/13121313-.out
 33 36 0 0 0
SMALL
GASTEIGER

@<TRIPOS>ATOM
      1 C           1.1976   -0.1132   -0.0008 C.ar    1  LIG1        0.0023
      2 C           0.7655    1.1902   -0.0007 C.ar    1  LIG1       -0.0437
      3 C          -0.6507    1.1690   -0.0003 C.ar    1  LIG1       -0.0334
      4 C          -1.0449   -0.1536   -0.0002 C.ar    1  LIG1        0.0821
      5 N           0.0937   -0.9199   -0.0005 N.ar    1  LIG1       -0.3583
      6 H           0.0917   -1.9257   -0.0006 H       1  LIG1        0.1654
      7 H           2.1934   -0.5285   -0.0010 H       1  LIG1        0.0807
      8 H           1.3976    2.0658   -0.0009 H       1  LIG1        0.0633
      9 H          -1.3130    2.0221   -0.0001 H       1  LIG1        0.0640
     10 C          -2.3544   -0.7580    0.0002 C.ar    1  LIG1        0.1518
     11 C          -3.6237   -0.2666    0.0003 C.ar    1  LIG1       -0.0137
     12 C          -4.5002   -1.3901    0.0007 C.ar    1  LIG1       -0.0137
     13 C          -3.7139   -2.5016    0.0007 C.ar    1  LIG1        0.1518
     14 O          -2.3958   -2.1274    0.0004 O.2     1  LIG1       -0.4519
     15 H          -3.9001    0.7767    0.0002 H       1  LIG1        0.0656
     16 H          -5.5794   -1.3758    0.0009 H       1  LIG1        0.0656
     17 C          -3.9799   -3.9172    0.0009 C.ar    1  LIG1        0.0826
     18 C          -5.1658   -4.6233    0.0009 C.ar    1  LIG1       -0.0328
     19 C          -4.8405   -5.9981    0.0013 C.ar    1  LIG1       -0.0343
     20 C          -3.4621   -6.1094    0.0013 C.ar    1  LIG1        0.0634
     21 N          -2.9592   -4.8350    0.0012 N.ar    1  LIG1       -0.3506
     22 H          -1.9832   -4.5915    0.0008 H       1  LIG1        0.1660
     23 H          -6.1558   -4.1921    0.0008 H       1  LIG1        0.0640
     24 H          -5.5458   -6.8171    0.0016 H       1  LIG1        0.0639
     25 C          -2.5932   -7.2671    0.0016 C.ar    1  LIG1        0.0629
     26 C          -1.2169   -7.3757    0.0037 C.ar    1  LIG1       -0.0350
     27 C          -0.8914   -8.7559    0.0028 C.ar    1  LIG1       -0.0438
     28 C          -2.0716   -9.4535    0.0002 C.ar    1  LIG1        0.0022
     29 N          -3.0954   -8.5446   -0.0006 N.ar    1  LIG1       -0.3595
     30 H          -4.0751   -8.7723   -0.0026 H       1  LIG1        0.1654
     31 H          -2.2672  -10.5146   -0.0012 H       1  LIG1        0.0807
     32 H          -0.5142   -6.5543    0.0060 H       1  LIG1        0.0639
     33 H           0.0991   -9.1860    0.0040 H       1  LIG1        0.0633
@<TRIPOS>BOND
     1    30    29    1
     2    31    28    1
     3     7     1    1
     4     8     2    1
     5     1     2   ar
     6     1     5   ar
     7     2     3   ar
     8    29    28   ar
     9    29    25   ar
    10     6     5    1
    11     5     4   ar
    12     3     4   ar
    13     3     9    1
    14     4    10    1
    15    10    11   ar
    16    10    14   ar
    17    28    27   ar
    18    15    11    1
    19    11    12   ar
    20    14    13   ar
    21    12    13   ar
    22    12    16    1
    23    13    17    1
    24    22    21    1
    25    23    18    1
    26    17    18   ar
    27    17    21   ar
    28    18    19   ar
    29    21    20   ar
    30    19    20   ar
    31    19    24    1
    32    20    25    1
    33    25    26   ar
    34    27    26   ar
    35    27    33    1
    36    26    32    1
