@<TRIPOS>MOLECULE
mol_data/opt/cam/geoms/mol2/1312-55.out
 31 34 0 0 0
SMALL
GASTEIGER

@<TRIPOS>ATOM
      1 C           1.3373   -0.4133   -0.0002 C.ar    1  LIG1        0.0023
      2 C           0.9800    0.9121   -0.0001 C.ar    1  LIG1       -0.0437
      3 C          -0.4350    0.9699   -0.0001 C.ar    1  LIG1       -0.0334
      4 C          -0.9034   -0.3272    0.0001 C.ar    1  LIG1        0.0821
      5 N           0.1907   -1.1588    0.0000 N.ar    1  LIG1       -0.3583
      6 H           0.1525   -2.1641   -0.0001 H       1  LIG1        0.1654
      7 H           2.3081   -0.8844   -0.0004 H       1  LIG1        0.0807
      8 H           1.6609    1.7502   -0.0001 H       1  LIG1        0.0633
      9 H          -1.0554    1.8531   -0.0000 H       1  LIG1        0.0640
     10 C          -2.2522   -0.8354    0.0003 C.ar    1  LIG1        0.1518
     11 C          -2.7931   -2.0890    0.0007 C.ar    1  LIG1       -0.0138
     12 C          -4.2062   -1.9201    0.0007 C.ar    1  LIG1       -0.0147
     13 C          -4.4370   -0.5764    0.0004 C.ar    1  LIG1        0.1423
     14 O          -3.2468    0.0912    0.0001 O.2     1  LIG1       -0.4528
     15 H          -2.2562   -3.0261    0.0009 H       1  LIG1        0.0656
     16 H          -4.9561   -2.6972    0.0010 H       1  LIG1        0.0656
     17 C          -5.6261    0.2379    0.0002 C.ar    1  LIG1        0.0550
     18 C          -5.7081    1.6043   -0.0003 C.ar    1  LIG1       -0.0434
     19 C          -7.0420    2.0806   -0.0003 C.ar    1  LIG1       -0.0457
     20 C          -7.9819    1.0838    0.0001 C.ar    1  LIG1        0.0266
     21 S          -7.2084   -0.4782    0.0007 S.2     1  LIG1       -0.0847
     22 H          -4.8320    2.2392   -0.0006 H       1  LIG1        0.0630
     23 H          -7.2990    3.1323   -0.0008 H       1  LIG1        0.0629
     24 C          -9.4286    1.2276    0.0002 C.ar    1  LIG1        0.0259
     25 C         -10.1504    2.3927    0.0007 C.ar    1  LIG1       -0.0464
     26 C         -11.5565    2.1846    0.0006 C.ar    1  LIG1       -0.0541
     27 C         -11.8940    0.8669    0.0001 C.ar    1  LIG1       -0.0237
     28 S         -10.4989   -0.1451   -0.0002 S.2     1  LIG1       -0.0961
     29 H         -12.8803    0.4264   -0.0000 H       1  LIG1        0.0693
     30 H          -9.6899    3.3726    0.0011 H       1  LIG1        0.0629
     31 H         -12.2834    2.9872    0.0009 H       1  LIG1        0.0623
@<TRIPOS>BOND
     1    23    19    1
     2    22    18    1
     3     7     1    1
     4    19    18   ar
     5    19    20   ar
     6    18    17   ar
     7     1     2   ar
     8     1     5   ar
     9    28    27   ar
    10    28    24   ar
    11     8     2    1
    12     6     5    1
    13     2     3   ar
    14     3     9    1
    15     3     4   ar
    16    29    27    1
    17     5     4   ar
    18     4    10    1
    19    14    10   ar
    20    14    13   ar
    21    27    26   ar
    22    20    24    1
    23    20    21   ar
    24    17    13    1
    25    17    21   ar
    26    24    25   ar
    27    10    11   ar
    28    13    12   ar
    29    26    25   ar
    30    26    31    1
    31    25    30    1
    32    11    12   ar
    33    11    15    1
    34    12    16    1
