@<TRIPOS>MOLECULE
mol_data/opt/cam/geoms/mol2/1312-8-4.out
 33 36 0 0 0
SMALL
GASTEIGER

@<TRIPOS>ATOM
      1 C           1.3183   -0.4935   -0.0004 C.ar    1  LIG1        0.0023
      2 C           0.9945    0.8418    0.0001 C.ar    1  LIG1       -0.0437
      3 C          -0.4168    0.9355    0.0004 C.ar    1  LIG1       -0.0334
      4 C          -0.9169   -0.3505    0.0000 C.ar    1  LIG1        0.0821
      5 N           0.1559   -1.2107   -0.0005 N.ar    1  LIG1       -0.3583
      6 H           0.0945   -2.2149   -0.0010 H       1  LIG1        0.1654
      7 H           2.2776   -0.9878   -0.0008 H       1  LIG1        0.0807
      8 H           1.6965    1.6622    0.0003 H       1  LIG1        0.0633
      9 H          -1.0172    1.8326    0.0009 H       1  LIG1        0.0640
     10 C          -2.2779   -0.8185    0.0001 C.ar    1  LIG1        0.1519
     11 C          -2.8520   -2.0640   -0.0002 C.ar    1  LIG1       -0.0137
     12 C          -4.2538   -1.8575    0.0000 C.ar    1  LIG1       -0.0120
     13 C          -4.4423   -0.5061    0.0004 C.ar    1  LIG1        0.1760
     14 O          -3.2395    0.1317    0.0004 O.2     1  LIG1       -0.4501
     15 H          -2.3386   -3.0140   -0.0004 H       1  LIG1        0.0656
     16 H          -5.0376   -2.5989   -0.0000 H       1  LIG1        0.0657
     17 C          -5.6440    0.2953    0.0007 C.ar    1  LIG1        0.2381
     18 N          -6.8109   -0.3740    0.0007 N.ar    1  LIG1       -0.1220
     19 C          -7.8151    1.6652    0.0013 C.ar    1  LIG1        0.2034
     20 N          -5.5380    1.6327    0.0011 N.ar    1  LIG1       -0.1220
     21 N          -7.9097    0.3244    0.0010 N.ar    1  LIG1       -0.1251
     22 N          -6.6477    2.3231    0.0013 N.ar    1  LIG1       -0.1251
     23 C          -9.0112    3.8486    0.0020 C.ar    1  LIG1       -0.0509
     24 C         -10.1857    4.5867    0.0023 C.ar    1  LIG1       -0.0611
     25 C          -9.0626    2.4524    0.0017 C.ar    1  LIG1        0.0226
     26 C         -11.4179    3.9414    0.0023 C.ar    1  LIG1       -0.0617
     27 H         -10.1390    5.6706    0.0026 H       1  LIG1        0.0618
     28 C         -10.3019    1.8072    0.0016 C.ar    1  LIG1       -0.0509
     29 C         -11.4724    2.5516    0.0019 C.ar    1  LIG1       -0.0611
     30 H         -10.3328    0.7245    0.0013 H       1  LIG1        0.0625
     31 H         -12.3352    4.5214    0.0025 H       1  LIG1        0.0618
     32 H          -8.0461    4.3403    0.0020 H       1  LIG1        0.0625
     33 H         -12.4316    2.0445    0.0019 H       1  LIG1        0.0618
@<TRIPOS>BOND
     1     6     5    1
     2     7     1    1
     3     5     1   ar
     4     5     4   ar
     5    15    11    1
     6     1     2   ar
     7    11    12   ar
     8    11    10   ar
     9    16    12    1
    10     4    10    1
    11     4     3   ar
    12    12    13   ar
    13    10    14   ar
    14     2     8    1
    15     2     3   ar
    16    13    14   ar
    17    13    17    1
    18     3     9    1
    19    18    17   ar
    20    18    21   ar
    21    17    20   ar
    22    21    19   ar
    23    20    22   ar
    24    19    22   ar
    25    19    25    1
    26    30    28    1
    27    28    25   ar
    28    28    29   ar
    29    25    23   ar
    30    33    29    1
    31    29    26   ar
    32    23    32    1
    33    23    24   ar
    34    26    24   ar
    35    26    31    1
    36    24    27    1
