@<TRIPOS>MOLECULE
mol_data/opt/cam/geoms/mol2/13125.out
 24 26 0 0 0
SMALL
GASTEIGER

@<TRIPOS>ATOM
      1 C           1.1890   -0.2321   -0.0002 C.ar    1  LIG1        0.0023
      2 C           0.7844    1.0811    0.0006 C.ar    1  LIG1       -0.0437
      3 C          -0.6314    1.0891    0.0001 C.ar    1  LIG1       -0.0334
      4 C          -1.0512   -0.2257    0.0001 C.ar    1  LIG1        0.0821
      5 N           0.0707   -1.0159   -0.0000 N.ar    1  LIG1       -0.3583
      6 H           0.0454   -2.0226   -0.0002 H       1  LIG1        0.1654
      7 H           2.1763   -0.6672   -0.0005 H       1  LIG1        0.0807
      8 H           1.4347    1.9432    0.0010 H       1  LIG1        0.0633
      9 H          -1.2762    1.9556    0.0002 H       1  LIG1        0.0640
     10 C          -2.3687   -0.8110    0.0001 C.ar    1  LIG1        0.1518
     11 C          -3.6358   -0.3089    0.0001 C.ar    1  LIG1       -0.0138
     12 C          -4.5161   -1.4280    0.0001 C.ar    1  LIG1       -0.0147
     13 C          -3.7345   -2.5446    0.0000 C.ar    1  LIG1        0.1423
     14 O          -2.4189   -2.1746    0.0000 O.2     1  LIG1       -0.4528
     15 H          -3.9067    0.7358    0.0000 H       1  LIG1        0.0656
     16 H          -5.5955   -1.4070    0.0002 H       1  LIG1        0.0656
     17 C          -4.0138   -3.9607   -0.0000 C.ar    1  LIG1        0.0544
     18 C          -5.2330   -4.5844   -0.0003 C.ar    1  LIG1       -0.0440
     19 C          -5.1310   -6.0029   -0.0003 C.ar    1  LIG1       -0.0540
     20 C          -3.8421   -6.4385    0.0001 C.ar    1  LIG1       -0.0236
     21 S          -2.7235   -5.1253    0.0004 S.2     1  LIG1       -0.0936
     22 H          -3.4799   -7.4561    0.0002 H       1  LIG1        0.0693
     23 H          -6.1724   -4.0458   -0.0006 H       1  LIG1        0.0630
     24 H          -5.9862   -6.6673   -0.0005 H       1  LIG1        0.0623
@<TRIPOS>BOND
     1    23    18    1
     2     7     1    1
     3    24    19    1
     4    18    19   ar
     5    18    17   ar
     6    19    20   ar
     7     1     5   ar
     8     1     2   ar
     9     6     5    1
    10     5     4   ar
    11    17    13    1
    12    17    21   ar
    13    13    14   ar
    14    13    12   ar
    15    15    11    1
    16    14    10   ar
    17    11    10   ar
    18    11    12   ar
    19    10     4    1
    20     4     3   ar
    21    20    22    1
    22    20    21   ar
    23     3     9    1
    24     3     2   ar
    25    12    16    1
    26     2     8    1
