@<TRIPOS>MOLECULE
mol_data/opt/cam/geoms/mol2/1312-134-.out
 35 38 0 0 0
SMALL
GASTEIGER

@<TRIPOS>ATOM
      1 C           1.3354   -0.3623   -0.0008 C.ar    1  LIG1        0.0023
      2 C           0.9589    0.9574    0.0011 C.ar    1  LIG1       -0.0437
      3 C          -0.4573    0.9951    0.0010 C.ar    1  LIG1       -0.0334
      4 C          -0.9070   -0.3083   -0.0000 C.ar    1  LIG1        0.0821
      5 N           0.1988   -1.1243   -0.0010 N.ar    1  LIG1       -0.3583
      6 H           0.1746   -2.1298   -0.0021 H       1  LIG1        0.1654
      7 H           2.3127   -0.8198   -0.0017 H       1  LIG1        0.0807
      8 H           1.6276    1.8054    0.0021 H       1  LIG1        0.0633
      9 H          -1.0905    1.8691    0.0019 H       1  LIG1        0.0640
     10 C          -2.2490   -0.8358   -0.0002 C.ar    1  LIG1        0.1518
     11 C          -2.7741   -2.0945   -0.0009 C.ar    1  LIG1       -0.0137
     12 C          -4.1914   -1.9425   -0.0007 C.ar    1  LIG1       -0.0137
     13 C          -4.4376   -0.6011    0.0003 C.ar    1  LIG1        0.1518
     14 O          -3.2573    0.0784    0.0006 O.2     1  LIG1       -0.4519
     15 H          -2.2260   -3.0252   -0.0016 H       1  LIG1        0.0656
     16 H          -4.9241   -2.7362   -0.0011 H       1  LIG1        0.0656
     17 C          -5.6352    0.1991    0.0010 C.ar    1  LIG1        0.0825
     18 C          -5.7957    1.5701    0.0022 C.ar    1  LIG1       -0.0328
     19 C          -7.1813    1.8318    0.0023 C.ar    1  LIG1       -0.0357
     20 C          -7.8508    0.6215    0.0013 C.ar    1  LIG1        0.0470
     21 N          -6.8874   -0.3596    0.0006 N.ar    1  LIG1       -0.3518
     22 H          -7.0687   -1.3484   -0.0008 H       1  LIG1        0.1660
     23 H          -4.9918    2.2900    0.0029 H       1  LIG1        0.0640
     24 H          -7.6425    2.8079    0.0033 H       1  LIG1        0.0639
     25 C          -9.7693   -0.9894    0.0026 C.ar    1  LIG1       -0.0526
     26 C         -11.1332   -1.2490    0.0022 C.ar    1  LIG1       -0.0611
     27 C          -9.2827    0.3230    0.0010 C.ar    1  LIG1       -0.0017
     28 C         -12.0475   -0.2036    0.0003 C.ar    1  LIG1       -0.0617
     29 H         -11.4811   -2.2770    0.0035 H       1  LIG1        0.0618
     30 C         -10.2179    1.3662   -0.0010 C.ar    1  LIG1       -0.0526
     31 C         -11.5790    1.1064   -0.0013 C.ar    1  LIG1       -0.0611
     32 H          -9.8717    2.3936   -0.0024 H       1  LIG1        0.0624
     33 H         -13.1131   -0.4062   -0.0000 H       1  LIG1        0.0618
     34 H          -9.0856   -1.8328    0.0045 H       1  LIG1        0.0624
     35 H         -12.2805    1.9346   -0.0028 H       1  LIG1        0.0618
@<TRIPOS>BOND
     1    35    31    1
     2    32    30    1
     3     6     5    1
     4     7     1    1
     5    15    11    1
     6    31    30   ar
     7    31    28   ar
     8    16    12    1
     9     5     1   ar
    10     5     4   ar
    11    30    27   ar
    12    11    12   ar
    13    11    10   ar
    14    22    21    1
    15     1     2   ar
    16    12    13   ar
    17    10     4    1
    18    10    14   ar
    19    33    28    1
    20     4     3   ar
    21    28    26   ar
    22    13    14   ar
    23    13    17    1
    24    21    17   ar
    25    21    20   ar
    26     3     2   ar
    27     3     9    1
    28    27    20    1
    29    27    25   ar
    30    17    18   ar
    31     2     8    1
    32    20    19   ar
    33    18    19   ar
    34    18    23    1
    35    26    25   ar
    36    26    29    1
    37    19    24    1
    38    25    34    1
