@<TRIPOS>MOLECULE
mol_data/opt/cam/geoms/mol2/1312.out
 17 18 0 0 0
SMALL
GASTEIGER

@<TRIPOS>ATOM
      1 C           1.1625   -0.2895    0.0001 C.ar    1  LIG1        0.0023
      2 C           0.7616    1.0242    0.0000 C.ar    1  LIG1       -0.0437
      3 C          -0.6546    1.0360    0.0002 C.ar    1  LIG1       -0.0334
      4 C          -1.0784   -0.2768    0.0001 C.ar    1  LIG1        0.0821
      5 N           0.0411   -1.0697    0.0000 N.ar    1  LIG1       -0.3583
      6 H           0.0104   -2.0759   -0.0001 H       1  LIG1        0.1654
      7 H           2.1483   -0.7282    0.0001 H       1  LIG1        0.0807
      8 H           1.4144    1.8846   -0.0000 H       1  LIG1        0.0633
      9 H          -1.2972    1.9042    0.0003 H       1  LIG1        0.0640
     10 C          -2.3989   -0.8615    0.0001 C.ar    1  LIG1        0.1508
     11 C          -3.6630   -0.3569    0.0002 C.ar    1  LIG1       -0.0144
     12 C          -4.5464   -1.4809    0.0002 C.ar    1  LIG1       -0.0233
     13 C          -3.7627   -2.5832    0.0001 C.ar    1  LIG1        0.0926
     14 O          -2.4482   -2.2258    0.0001 O.2     1  LIG1       -0.4615
     15 H          -3.9627   -3.6423    0.0000 H       1  LIG1        0.1029
     16 H          -3.9318    0.6883    0.0003 H       1  LIG1        0.0656
     17 H          -5.6260   -1.4627    0.0002 H       1  LIG1        0.0649
@<TRIPOS>BOND
     1     6     5    1
     2     8     2    1
     3     2     1   ar
     4     2     3   ar
     5    15    13    1
     6     5     1   ar
     7     5     4   ar
     8    14    13   ar
     9    14    10   ar
    10     7     1    1
    11    13    12   ar
    12     4    10    1
    13     4     3   ar
    14    10    11   ar
    15    12    17    1
    16    12    11   ar
    17    11    16    1
    18     3     9    1
