@<TRIPOS>MOLECULE
mol_data/opt/cam/geoms/mol2/131212-.out
 24 26 0 0 0
SMALL
GASTEIGER

@<TRIPOS>ATOM
      1 C           1.1944   -0.2264    0.0003 C.ar    1  LIG1        0.0023
      2 C           0.7787    1.0831   -0.0004 C.ar    1  LIG1       -0.0437
      3 C          -0.6373    1.0796    0.0002 C.ar    1  LIG1       -0.0334
      4 C          -1.0464   -0.2385    0.0001 C.ar    1  LIG1        0.0821
      5 N           0.0820   -1.0193    0.0001 N.ar    1  LIG1       -0.3583
      6 H           0.0640   -2.0258    0.0001 H       1  LIG1        0.1654
      7 H           2.1853   -0.6533    0.0004 H       1  LIG1        0.0807
      8 H           1.4219    1.9506   -0.0008 H       1  LIG1        0.0633
      9 H          -1.2893    1.9406    0.0003 H       1  LIG1        0.0640
     10 C          -2.3597   -0.8341    0.0002 C.ar    1  LIG1        0.1519
     11 C          -3.6295   -0.3392    0.0003 C.ar    1  LIG1       -0.0137
     12 C          -4.5046   -1.4634    0.0003 C.ar    1  LIG1       -0.0121
     13 C          -3.7121   -2.5695    0.0002 C.ar    1  LIG1        0.1706
     14 O          -2.3985   -2.1998    0.0002 O.2     1  LIG1       -0.4503
     15 H          -3.9055    0.7041    0.0003 H       1  LIG1        0.0656
     16 H          -5.5836   -1.4603    0.0003 H       1  LIG1        0.0657
     17 C          -3.9878   -3.9813    0.0003 C.ar    1  LIG1        0.1697
     18 C          -3.1947   -5.0887    0.0003 C.ar    1  LIG1       -0.0128
     19 C          -4.0801   -6.2100    0.0003 C.ar    1  LIG1       -0.0232
     20 C          -5.3353   -5.7016    0.0003 C.ar    1  LIG1        0.0927
     21 O          -5.2982   -4.3433    0.0003 O.2     1  LIG1       -0.4598
     22 H          -6.3180   -6.1446    0.0003 H       1  LIG1        0.1029
     23 H          -2.1160   -5.0985    0.0003 H       1  LIG1        0.0656
     24 H          -3.8113   -7.2555    0.0004 H       1  LIG1        0.0649
@<TRIPOS>BOND
     1     8     2    1
     2     2     3   ar
     3     2     1   ar
     4     5     6    1
     5     5     4   ar
     6     5     1   ar
     7     4    10    1
     8     4     3   ar
     9    14    10   ar
    10    14    13   ar
    11    10    11   ar
    12     3     9    1
    13    13    12   ar
    14    13    17    1
    15    22    20    1
    16    12    16    1
    17    12    11   ar
    18    21    20   ar
    19    21    17   ar
    20    20    19   ar
    21    17    18   ar
    22     1     7    1
    23    18    23    1
    24    18    19   ar
    25    11    15    1
    26    19    24    1
