@<TRIPOS>MOLECULE
mol_data/opt/cam/geoms/mol2/131285-.out
 30 33 0 0 0
SMALL
GASTEIGER

@<TRIPOS>ATOM
      1 C           1.1986   -0.0622    0.0001 C.ar    1  LIG1        0.0023
      2 C           0.7362    1.2335   -0.0002 C.ar    1  LIG1       -0.0437
      3 C          -0.6766    1.1786   -0.0001 C.ar    1  LIG1       -0.0334
      4 C          -1.0363   -0.1548    0.0000 C.ar    1  LIG1        0.0821
      5 N           0.1198   -0.8951    0.0002 N.ar    1  LIG1       -0.3583
      6 H           0.1377   -1.9028    0.0003 H       1  LIG1        0.1654
      7 H           2.2050   -0.4514    0.0002 H       1  LIG1        0.0807
      8 H           1.3480    2.1232   -0.0003 H       1  LIG1        0.0633
      9 H          -1.3598    2.0152   -0.0002 H       1  LIG1        0.0640
     10 C          -2.3216   -0.8018    0.0001 C.ar    1  LIG1        0.1519
     11 C          -3.6168   -0.3567    0.0000 C.ar    1  LIG1       -0.0137
     12 C          -4.4354   -1.5133    0.0001 C.ar    1  LIG1       -0.0120
     13 C          -3.5927   -2.5872    0.0003 C.ar    1  LIG1        0.1760
     14 O          -2.2985   -2.1577    0.0002 O.2     1  LIG1       -0.4501
     15 H          -3.9370    0.6736   -0.0001 H       1  LIG1        0.0656
     16 H          -5.5132   -1.5658    0.0001 H       1  LIG1        0.0657
     17 C          -3.8356   -4.0091    0.0004 C.ar    1  LIG1        0.2381
     18 N          -5.1226   -4.4023    0.0004 N.ar    1  LIG1       -0.1220
     19 C          -4.3167   -6.5244    0.0007 C.ar    1  LIG1        0.2099
     20 N          -2.7854   -4.8476    0.0005 N.ar    1  LIG1       -0.1220
     21 N          -5.3637   -5.6809    0.0006 N.ar    1  LIG1       -0.1246
     22 N          -3.0344   -6.1297    0.0006 N.ar    1  LIG1       -0.1246
     23 C          -4.5937   -7.9499    0.0008 C.ar    1  LIG1        0.0598
     24 C          -3.6824   -8.9717    0.0010 C.ar    1  LIG1       -0.0438
     25 C          -4.2969  -10.2504    0.0011 C.ar    1  LIG1       -0.0540
     26 C          -5.6587  -10.1716    0.0010 C.ar    1  LIG1       -0.0236
     27 S          -6.2219   -8.5472    0.0009 S.2     1  LIG1       -0.0934
     28 H          -6.3683  -10.9868    0.0011 H       1  LIG1        0.0693
     29 H          -2.6151   -8.7936    0.0010 H       1  LIG1        0.0630
     30 H          -3.7502  -11.1848    0.0012 H       1  LIG1        0.0623
@<TRIPOS>BOND
     1     8     2    1
     2     9     3    1
     3     2     3   ar
     4     2     1   ar
     5     3     4   ar
     6    15    11    1
     7    11    10   ar
     8    11    12   ar
     9     4    10    1
    10     4     5   ar
    11     1     7    1
    12     1     5   ar
    13    10    14   ar
    14    16    12    1
    15    12    13   ar
    16     5     6    1
    17    14    13   ar
    18    13    17    1
    19    17    18   ar
    20    17    20   ar
    21    18    21   ar
    22    20    22   ar
    23    21    19   ar
    24    22    19   ar
    25    19    23    1
    26    23    27   ar
    27    23    24   ar
    28    27    26   ar
    29    24    29    1
    30    24    25   ar
    31    26    28    1
    32    26    25   ar
    33    25    30    1
