@<TRIPOS>MOLECULE
mol_data/opt/cam/geoms/mol2/1312-8-.out
 23 25 0 0 0
SMALL
GASTEIGER

@<TRIPOS>ATOM
      1 C           1.2352   -0.3804   -0.0001 C.ar    1  LIG1        0.0023
      2 C           0.8779    0.9465    0.0002 C.ar    1  LIG1       -0.0437
      3 C          -0.5349    1.0047    0.0003 C.ar    1  LIG1       -0.0334
      4 C          -1.0024   -0.2937    0.0001 C.ar    1  LIG1        0.0821
      5 N           0.0917   -1.1267   -0.0001 N.ar    1  LIG1       -0.3583
      6 H           0.0560   -2.1322   -0.0003 H       1  LIG1        0.1654
      7 H           2.2067   -0.8502   -0.0003 H       1  LIG1        0.0807
      8 H           1.5591    1.7843    0.0002 H       1  LIG1        0.0633
      9 H          -1.1579    1.8862    0.0005 H       1  LIG1        0.0640
     10 C          -2.3511   -0.7950    0.0002 C.ar    1  LIG1        0.1519
     11 C          -2.8932   -2.0556    0.0002 C.ar    1  LIG1       -0.0137
     12 C          -4.2989   -1.8850    0.0003 C.ar    1  LIG1       -0.0120
     13 C          -4.5221   -0.5385    0.0003 C.ar    1  LIG1        0.1760
     14 O          -3.3357    0.1301    0.0002 O.2     1  LIG1       -0.4501
     15 H          -2.3555   -2.9920    0.0002 H       1  LIG1        0.0656
     16 H          -5.0638   -2.6460    0.0003 H       1  LIG1        0.0657
     17 C          -5.7442    0.2302    0.0004 C.ar    1  LIG1        0.2381
     18 N          -6.8910   -0.4763    0.0004 N.ar    1  LIG1       -0.1226
     19 C          -7.9285    1.5270    0.0005 C.ar    1  LIG1        0.1605
     20 N          -5.6684    1.5711    0.0004 N.ar    1  LIG1       -0.1226
     21 N          -8.0121    0.1945    0.0005 N.ar    1  LIG1       -0.1338
     22 N          -6.8008    2.2336    0.0004 N.ar    1  LIG1       -0.1338
     23 H          -8.8606    2.0801    0.0005 H       1  LIG1        0.1085
@<TRIPOS>BOND
     1     6     5    1
     2     7     1    1
     3     1     5   ar
     4     1     2   ar
     5     5     4   ar
     6     4    10    1
     7     4     3   ar
     8     2     8    1
     9     2     3   ar
    10    10    11   ar
    11    10    14   ar
    12    11    15    1
    13    11    12   ar
    14    14    13   ar
    15     3     9    1
    16    12    13   ar
    17    12    16    1
    18    13    17    1
    19    17    20   ar
    20    17    18   ar
    21    20    22   ar
    22    18    21   ar
    23    22    19   ar
    24    19    21   ar
    25    19    23    1
