@<TRIPOS>MOLECULE
mol_data/opt/cam/geoms/mol2/131288-.out
 29 32 0 0 0
SMALL
GASTEIGER

@<TRIPOS>ATOM
      1 C           1.1973   -0.0905    0.0000 C.ar    1  LIG1        0.0023
      2 C           0.7357    1.2063   -0.0002 C.ar    1  LIG1       -0.0437
      3 C          -0.6758    1.1523    0.0000 C.ar    1  LIG1       -0.0334
      4 C          -1.0363   -0.1817    0.0001 C.ar    1  LIG1        0.0821
      5 N           0.1198   -0.9230    0.0001 N.ar    1  LIG1       -0.3583
      6 H           0.1395   -1.9308    0.0002 H       1  LIG1        0.1654
      7 H           2.2038   -0.4796    0.0001 H       1  LIG1        0.0807
      8 H           1.3482    2.0954   -0.0003 H       1  LIG1        0.0633
      9 H          -1.3585    1.9892    0.0000 H       1  LIG1        0.0640
     10 C          -2.3214   -0.8242    0.0002 C.ar    1  LIG1        0.1519
     11 C          -3.6168   -0.3699    0.0002 C.ar    1  LIG1       -0.0137
     12 C          -4.4400   -1.5184    0.0003 C.ar    1  LIG1       -0.0120
     13 C          -3.6031   -2.6004    0.0003 C.ar    1  LIG1        0.1760
     14 O          -2.3054   -2.1775    0.0002 O.2     1  LIG1       -0.4501
     15 H          -3.9301    0.6625    0.0002 H       1  LIG1        0.0656
     16 H          -5.5183   -1.5649    0.0003 H       1  LIG1        0.0657
     17 C          -3.8564   -4.0135    0.0004 C.ar    1  LIG1        0.2381
     18 N          -5.1505   -4.3959    0.0004 N.ar    1  LIG1       -0.1219
     19 C          -4.3597   -6.5136    0.0005 C.ar    1  LIG1        0.2435
     20 N          -2.8114   -4.8617    0.0004 N.ar    1  LIG1       -0.1219
     21 N          -5.4025   -5.6722    0.0005 N.ar    1  LIG1       -0.1217
     22 N          -3.0777   -6.1409    0.0004 N.ar    1  LIG1       -0.1217
     23 C          -4.6539   -7.9709    0.0006 C.ar    1  LIG1        0.2434
     24 N          -3.6113   -8.8089    0.0008 N.ar    1  LIG1       -0.1224
     25 C          -5.1550  -10.4548    0.0006 C.ar    1  LIG1        0.1605
     26 N          -5.9398   -8.3391    0.0004 N.ar    1  LIG1       -0.1224
     27 N          -3.8726  -10.0942    0.0008 N.ar    1  LIG1       -0.1338
     28 N          -6.1973   -9.6254    0.0004 N.ar    1  LIG1       -0.1338
     29 H          -5.3694  -11.5176    0.0006 H       1  LIG1        0.1085
@<TRIPOS>BOND
     1     8     2    1
     2     2     3   ar
     3     2     1   ar
     4     9     3    1
     5     3     4   ar
     6     1     7    1
     7     1     5   ar
     8     4     5   ar
     9     4    10    1
    10     5     6    1
    11    10    11   ar
    12    10    14   ar
    13    15    11    1
    14    11    12   ar
    15    14    13   ar
    16    12    13   ar
    17    12    16    1
    18    13    17    1
    19    20    17   ar
    20    20    22   ar
    21    17    18   ar
    22    26    28   ar
    23    26    23   ar
    24    28    25   ar
    25    18    21   ar
    26    22    19   ar
    27    19    21   ar
    28    19    23    1
    29    23    24   ar
    30    29    25    1
    31    25    27   ar
    32    24    27   ar
