@<TRIPOS>MOLECULE
mol_data/opt/cam/geoms/mol2/1312-813-.out
 31 34 0 0 0
SMALL
GASTEIGER

@<TRIPOS>ATOM
      1 C           1.2948   -0.4645    0.0002 C.ar    1  LIG1        0.0023
      2 C           0.9647    0.8691   -0.0003 C.ar    1  LIG1       -0.0437
      3 C          -0.4474    0.9561    0.0004 C.ar    1  LIG1       -0.0334
      4 C          -0.9414   -0.3321    0.0002 C.ar    1  LIG1        0.0821
      5 N           0.1354   -1.1870    0.0001 N.ar    1  LIG1       -0.3583
      6 H           0.0782   -2.1915   -0.0001 H       1  LIG1        0.1654
      7 H           2.2564   -0.9544    0.0002 H       1  LIG1        0.0807
      8 H           1.6629    1.6928   -0.0006 H       1  LIG1        0.0633
      9 H          -1.0522    1.8502    0.0006 H       1  LIG1        0.0640
     10 C          -2.3004   -0.8076    0.0002 C.ar    1  LIG1        0.1519
     11 C          -2.8679   -2.0554    0.0003 C.ar    1  LIG1       -0.0137
     12 C          -4.2717   -1.8561    0.0003 C.ar    1  LIG1       -0.0120
     13 C          -4.4667   -0.5061    0.0003 C.ar    1  LIG1        0.1760
     14 O          -3.2676    0.1381    0.0002 O.2     1  LIG1       -0.4501
     15 H          -2.3496   -3.0028    0.0003 H       1  LIG1        0.0656
     16 H          -5.0517   -2.6015    0.0004 H       1  LIG1        0.0657
     17 C          -5.6732    0.2904    0.0003 C.ar    1  LIG1        0.2381
     18 N          -5.5757    1.6266    0.0002 N.ar    1  LIG1       -0.1220
     19 C          -7.8520    1.6354    0.0002 C.ar    1  LIG1        0.2194
     20 N          -6.8374   -0.3898    0.0003 N.ar    1  LIG1       -0.1220
     21 N          -6.6914    2.3090    0.0002 N.ar    1  LIG1       -0.1236
     22 N          -7.9446    0.2900    0.0003 N.ar    1  LIG1       -0.1236
     23 C          -9.0682    2.4107    0.0003 C.ar    1  LIG1        0.0875
     24 C         -10.3979    2.0346    0.0006 C.ar    1  LIG1       -0.0333
     25 C         -11.1647    3.2190   -0.0001 C.ar    1  LIG1       -0.0437
     26 C         -10.2833    4.2805    0.0006 C.ar    1  LIG1        0.0023
     27 N          -9.0199    3.7822    0.0004 N.ar    1  LIG1       -0.3582
     28 H          -8.1532    4.2979    0.0004 H       1  LIG1        0.1654
     29 H         -10.4659    5.3443    0.0008 H       1  LIG1        0.0807
     30 H         -10.7538    1.0158    0.0007 H       1  LIG1        0.0640
     31 H         -12.2419    3.2931   -0.0005 H       1  LIG1        0.0633
@<TRIPOS>BOND
     1     8     2    1
     2    31    25    1
     3     2     1   ar
     4     2     3   ar
     5     6     5    1
     6    25    24   ar
     7    25    26   ar
     8     5     4   ar
     9     5     1   ar
    10     4    10    1
    11     4     3   ar
    12    21    18   ar
    13    21    19   ar
    14    18    17   ar
    15     1     7    1
    16    10    14   ar
    17    10    11   ar
    18    14    13   ar
    19    19    23    1
    20    19    22   ar
    21    17    13    1
    22    17    20   ar
    23    13    12   ar
    24    11    15    1
    25    11    12   ar
    26    23    27   ar
    27    23    24   ar
    28    20    22   ar
    29    12    16    1
    30    27    28    1
    31    27    26   ar
    32     3     9    1
    33    24    30    1
    34    26    29    1
