@<TRIPOS>MOLECULE
mol_data/opt/cam/geoms/mol2/13124.out
 27 29 0 0 0
SMALL
GASTEIGER

@<TRIPOS>ATOM
      1 C           1.2103   -0.1423   -0.0005 C.ar    1  LIG1        0.0023
      2 C           0.7753    1.1608   -0.0001 C.ar    1  LIG1       -0.0437
      3 C          -0.6405    1.1360   -0.0005 C.ar    1  LIG1       -0.0334
      4 C          -1.0302   -0.1879   -0.0000 C.ar    1  LIG1        0.0821
      5 N           0.1098   -0.9516    0.0000 N.ar    1  LIG1       -0.3583
      6 H           0.1075   -1.9581    0.0002 H       1  LIG1        0.1654
      7 H           2.2075   -0.5546   -0.0007 H       1  LIG1        0.0807
      8 H           1.4055    2.0378   -0.0000 H       1  LIG1        0.0633
      9 H          -1.3051    1.9874   -0.0006 H       1  LIG1        0.0640
     10 C          -2.3355   -0.8019    0.0003 C.ar    1  LIG1        0.1517
     11 C          -3.6103   -0.3211    0.0002 C.ar    1  LIG1       -0.0138
     12 C          -4.4679   -1.4572    0.0006 C.ar    1  LIG1       -0.0152
     13 C          -3.6704   -2.5623    0.0009 C.ar    1  LIG1        0.1358
     14 O          -2.3607   -2.1648    0.0007 O.2     1  LIG1       -0.4534
     15 H          -3.8998    0.7186   -0.0001 H       1  LIG1        0.0656
     16 H          -5.5474   -1.4485    0.0007 H       1  LIG1        0.0656
     17 C          -5.2498   -4.4728    0.0015 C.ar    1  LIG1       -0.0511
     18 C          -5.5060   -5.8350    0.0019 C.ar    1  LIG1       -0.0611
     19 C          -3.9340   -3.9952    0.0013 C.ar    1  LIG1        0.0173
     20 C          -4.4563   -6.7483    0.0021 C.ar    1  LIG1       -0.0617
     21 H          -6.5328   -6.1865    0.0020 H       1  LIG1        0.0618
     22 C          -2.8851   -4.9200    0.0015 C.ar    1  LIG1       -0.0511
     23 C          -3.1467   -6.2831    0.0020 C.ar    1  LIG1       -0.0611
     24 H          -1.8624   -4.5623    0.0014 H       1  LIG1        0.0625
     25 H          -4.6588   -7.8141    0.0025 H       1  LIG1        0.0618
     26 H          -6.0772   -3.7712    0.0013 H       1  LIG1        0.0625
     27 H          -2.3201   -6.9864    0.0021 H       1  LIG1        0.0618
@<TRIPOS>BOND
     1     7     1    1
     2     9     3    1
     3     1     2   ar
     4     1     5   ar
     5     3     2   ar
     6     3     4   ar
     7    15    11    1
     8     2     8    1
     9     4     5   ar
    10     4    10    1
    11     5     6    1
    12    11    10   ar
    13    11    12   ar
    14    10    14   ar
    15    12    16    1
    16    12    13   ar
    17    14    13   ar
    18    13    19    1
    19    26    17    1
    20    19    17   ar
    21    19    22   ar
    22    24    22    1
    23    17    18   ar
    24    22    23   ar
    25    18    21    1
    26    18    20   ar
    27    23    20   ar
    28    23    27    1
    29    20    25    1
