@<TRIPOS>MOLECULE
mol_data/opt/cam/geoms/mol2/1312-13-.out
 25 27 0 0 0
SMALL
GASTEIGER

@<TRIPOS>ATOM
      1 C           1.2372   -0.3362    0.0001 C.ar    1  LIG1        0.0023
      2 C           0.8498    0.9800    0.0000 C.ar    1  LIG1       -0.0437
      3 C          -0.5670    1.0052    0.0004 C.ar    1  LIG1       -0.0334
      4 C          -1.0063   -0.3020    0.0002 C.ar    1  LIG1        0.0821
      5 N           0.1066   -1.1075   -0.0000 N.ar    1  LIG1       -0.3583
      6 H           0.0904   -2.1133   -0.0003 H       1  LIG1        0.1654
      7 H           2.2182   -0.7856    0.0001 H       1  LIG1        0.0807
      8 H           1.5111    1.8337   -0.0001 H       1  LIG1        0.0633
      9 H          -1.2052    1.8756    0.0007 H       1  LIG1        0.0640
     10 C          -2.3426   -0.8446    0.0002 C.ar    1  LIG1        0.1518
     11 C          -2.8550   -2.1076    0.0003 C.ar    1  LIG1       -0.0137
     12 C          -4.2751   -1.9759    0.0003 C.ar    1  LIG1       -0.0137
     13 C          -4.5394   -0.6408    0.0002 C.ar    1  LIG1        0.1518
     14 O          -3.3649    0.0584    0.0001 O.2     1  LIG1       -0.4519
     15 H          -2.2953   -3.0315    0.0004 H       1  LIG1        0.0656
     16 H          -5.0054   -2.7706    0.0004 H       1  LIG1        0.0656
     17 C          -5.7456    0.1504    0.0001 C.ar    1  LIG1        0.0821
     18 C          -7.0787   -0.2064    0.0003 C.ar    1  LIG1       -0.0334
     19 C          -7.8370    0.9900   -0.0002 C.ar    1  LIG1       -0.0437
     20 C          -6.9510    2.0398   -0.0001 C.ar    1  LIG1        0.0023
     21 N          -5.6869    1.5212   -0.0002 N.ar    1  LIG1       -0.3583
     22 H          -4.8253    2.0417   -0.0002 H       1  LIG1        0.1654
     23 H          -7.1179    3.1058   -0.0001 H       1  LIG1        0.0807
     24 H          -7.4596   -1.2171    0.0005 H       1  LIG1        0.0640
     25 H          -8.9138    1.0714   -0.0004 H       1  LIG1        0.0633
@<TRIPOS>BOND
     1    25    19    1
     2     6     5    1
     3    22    21    1
     4    19    20   ar
     5    19    18   ar
     6    21    20   ar
     7    21    17   ar
     8    23    20    1
     9     8     2    1
    10     5     1   ar
    11     5     4   ar
    12     2     1   ar
    13     2     3   ar
    14     7     1    1
    15    17    13    1
    16    17    18   ar
    17    14    13   ar
    18    14    10   ar
    19    13    12   ar
    20     4    10    1
    21     4     3   ar
    22    10    11   ar
    23    11    12   ar
    24    11    15    1
    25    18    24    1
    26    12    16    1
    27     3     9    1
