@<TRIPOS>MOLECULE
mol_data/opt/cam/geoms/mol2/1312-12.out
 24 26 0 0 0
SMALL
GASTEIGER

@<TRIPOS>ATOM
      1 C           1.2248   -0.3349    0.0002 C.ar    1  LIG1        0.0023
      2 C           0.8407    0.9828   -0.0001 C.ar    1  LIG1       -0.0437
      3 C          -0.5755    1.0121    0.0005 C.ar    1  LIG1       -0.0334
      4 C          -1.0175   -0.2941    0.0002 C.ar    1  LIG1        0.0821
      5 N           0.0930   -1.1034   -0.0001 N.ar    1  LIG1       -0.3583
      6 H           0.0746   -2.1092   -0.0004 H       1  LIG1        0.1654
      7 H           2.2048   -0.7866    0.0001 H       1  LIG1        0.0807
      8 H           1.5045    1.8346   -0.0004 H       1  LIG1        0.0633
      9 H          -1.2138    1.8824    0.0008 H       1  LIG1        0.0640
     10 C          -2.3561   -0.8299    0.0002 C.ar    1  LIG1        0.1519
     11 C          -2.8725   -2.0935    0.0001 C.ar    1  LIG1       -0.0137
     12 C          -4.2904   -1.9544    0.0002 C.ar    1  LIG1       -0.0121
     13 C          -4.5409   -0.6168    0.0003 C.ar    1  LIG1        0.1706
     14 O          -3.3696    0.0781    0.0003 O.2     1  LIG1       -0.4503
     15 H          -2.3161   -3.0193    0.0001 H       1  LIG1        0.0656
     16 H          -5.0322   -2.7379    0.0002 H       1  LIG1        0.0657
     17 C          -5.7516    0.1605    0.0003 C.ar    1  LIG1        0.1697
     18 C          -5.9988    1.4996    0.0004 C.ar    1  LIG1       -0.0128
     19 C          -7.4206    1.6386    0.0004 C.ar    1  LIG1       -0.0232
     20 C          -7.9248    0.3815    0.0004 C.ar    1  LIG1        0.0927
     21 O          -6.9207   -0.5338    0.0003 O.2     1  LIG1       -0.4598
     22 H          -8.9256   -0.0191    0.0004 H       1  LIG1        0.1029
     23 H          -5.2555    2.2814    0.0004 H       1  LIG1        0.0656
     24 H          -7.9878    2.5572    0.0005 H       1  LIG1        0.0649
@<TRIPOS>BOND
     1     6     5    1
     2     8     2    1
     3     2     1   ar
     4     2     3   ar
     5     5     1   ar
     6     5     4   ar
     7    15    11    1
     8     7     1    1
     9    11    10   ar
    10    11    12   ar
    11     4    10    1
    12     4     3   ar
    13    10    14   ar
    14    12    16    1
    15    12    13   ar
    16    14    13   ar
    17    13    17    1
    18    17    21   ar
    19    17    18   ar
    20    21    20   ar
    21    18    23    1
    22    18    19   ar
    23    20    19   ar
    24    20    22    1
    25    19    24    1
    26     3     9    1
