@<TRIPOS>MOLECULE
mol_data/opt/cam/geoms/mol2/131244-.out
 37 40 0 0 0
SMALL
GASTEIGER

@<TRIPOS>ATOM
      1 C           1.2073    0.0111   -0.3811 C.ar    1  LIG1        0.0023
      2 C           0.7684    1.3046   -0.2344 C.ar    1  LIG1       -0.0437
      3 C          -0.6321    1.2574   -0.0311 C.ar    1  LIG1       -0.0334
      4 C          -1.0090   -0.0700   -0.0599 C.ar    1  LIG1        0.0821
      5 N           0.1240   -0.8140   -0.2738 N.ar    1  LIG1       -0.3583
      6 H           0.1282   -1.8183   -0.3399 H       1  LIG1        0.1654
      7 H           2.1965   -0.3845   -0.5520 H       1  LIG1        0.0807
      8 H           1.3860    2.1898   -0.2689 H       1  LIG1        0.0633
      9 H          -1.2951    2.0964    0.1205 H       1  LIG1        0.0640
     10 C          -2.2964   -0.7027    0.0889 C.ar    1  LIG1        0.1517
     11 C          -3.5620   -0.2418    0.2952 C.ar    1  LIG1       -0.0138
     12 C          -4.4034   -1.3882    0.3496 C.ar    1  LIG1       -0.0152
     13 C          -3.6063   -2.4799    0.1737 C.ar    1  LIG1        0.1358
     14 O          -2.3121   -2.0638    0.0139 O.2     1  LIG1       -0.4534
     15 H          -3.8557    0.7919    0.3958 H       1  LIG1        0.0656
     16 H          -5.4719   -1.3958    0.5031 H       1  LIG1        0.0656
     17 C          -5.1592   -4.4123    0.2485 C.ar    1  LIG1       -0.0505
     18 C          -5.4027   -5.7738    0.2075 C.ar    1  LIG1       -0.0534
     19 C          -3.8575   -3.9126    0.1287 C.ar    1  LIG1        0.0173
     20 C          -4.3608   -6.6930    0.0441 C.ar    1  LIG1       -0.0178
     21 H          -6.4188   -6.1353    0.3265 H       1  LIG1        0.0624
     22 C          -2.8127   -4.8271   -0.0344 C.ar    1  LIG1       -0.0505
     23 C          -3.0630   -6.1892   -0.0757 C.ar    1  LIG1       -0.0534
     24 H          -1.7978   -4.4617   -0.1371 H       1  LIG1        0.0625
     25 H          -5.9896   -3.7272    0.3824 H       1  LIG1        0.0625
     26 H          -2.2368   -6.8762   -0.2276 H       1  LIG1        0.0624
     27 C          -3.7509   -9.0587    0.6020 C.ar    1  LIG1       -0.0540
     28 C          -3.9983  -10.4243    0.5573 C.ar    1  LIG1       -0.0612
     29 C          -4.6258   -8.1507   -0.0021 C.ar    1  LIG1       -0.0179
     30 C          -5.1278  -10.9102   -0.0913 C.ar    1  LIG1       -0.0617
     31 H          -3.3098  -11.1112    1.0391 H       1  LIG1        0.0618
     32 C          -5.7573   -8.6534   -0.6518 C.ar    1  LIG1       -0.0540
     33 C          -6.0067  -10.0186   -0.6954 C.ar    1  LIG1       -0.0612
     34 H          -6.4355   -7.9669   -1.1483 H       1  LIG1        0.0624
     35 H          -5.3219  -11.9772   -0.1256 H       1  LIG1        0.0618
     36 H          -2.8803   -8.6870    1.1325 H       1  LIG1        0.0624
     37 H          -6.8873  -10.3878   -1.2113 H       1  LIG1        0.0618
@<TRIPOS>BOND
     1    37    33    1
     2    34    32    1
     3    33    32   ar
     4    33    30   ar
     5    32    29   ar
     6     7     1    1
     7     1     5   ar
     8     1     2   ar
     9     6     5    1
    10     5     4   ar
    11     8     2    1
    12     2     3   ar
    13    26    23    1
    14    24    22    1
    15    35    30    1
    16    30    28   ar
    17    23    22   ar
    18    23    20   ar
    19     4     3   ar
    20     4    10    1
    21    22    19   ar
    22     3     9    1
    23    29    20    1
    24    29    27   ar
    25    14    10   ar
    26    14    13   ar
    27    20    18   ar
    28    10    11   ar
    29    19    13    1
    30    19    17   ar
    31    13    12   ar
    32    18    17   ar
    33    18    21    1
    34    17    25    1
    35    11    12   ar
    36    11    15    1
    37    12    16    1
    38    28    27   ar
    39    28    31    1
    40    27    36    1
