@<TRIPOS>MOLECULE
mol_data/opt/cam/geoms/mol2/1312-5.out
 24 26 0 0 0
SMALL
GASTEIGER

@<TRIPOS>ATOM
      1 C           1.2565   -0.3690    0.0002 C.ar    1  LIG1        0.0023
      2 C           0.8867    0.9529   -0.0002 C.ar    1  LIG1       -0.0437
      3 C          -0.5290    0.9974    0.0004 C.ar    1  LIG1       -0.0334
      4 C          -0.9851   -0.3039    0.0001 C.ar    1  LIG1        0.0821
      5 N           0.1166   -1.1252    0.0001 N.ar    1  LIG1       -0.3583
      6 H           0.0876   -2.1307   -0.0001 H       1  LIG1        0.1654
      7 H           2.2316   -0.8311    0.0003 H       1  LIG1        0.0807
      8 H           1.5596    1.7974   -0.0005 H       1  LIG1        0.0633
      9 H          -1.1576    1.8747    0.0005 H       1  LIG1        0.0640
     10 C          -2.3293   -0.8253    0.0002 C.ar    1  LIG1        0.1518
     11 C          -2.8582   -2.0835    0.0003 C.ar    1  LIG1       -0.0138
     12 C          -4.2735   -1.9274    0.0003 C.ar    1  LIG1       -0.0147
     13 C          -4.5168   -0.5868    0.0001 C.ar    1  LIG1        0.1423
     14 O          -3.3331    0.0917    0.0001 O.2     1  LIG1       -0.4528
     15 H          -2.3125   -3.0156    0.0004 H       1  LIG1        0.0656
     16 H          -5.0161   -2.7114    0.0003 H       1  LIG1        0.0656
     17 C          -5.7161    0.2174    0.0000 C.ar    1  LIG1        0.0544
     18 C          -5.8081    1.5823   -0.0002 C.ar    1  LIG1       -0.0440
     19 C          -7.1534    2.0470   -0.0002 C.ar    1  LIG1       -0.0540
     20 C          -8.0613    1.0348    0.0001 C.ar    1  LIG1       -0.0236
     21 S          -7.2935   -0.5119    0.0002 S.2     1  LIG1       -0.0936
     22 H          -9.1395    1.1006    0.0002 H       1  LIG1        0.0693
     23 H          -4.9367    2.2237   -0.0004 H       1  LIG1        0.0630
     24 H          -7.4283    3.0944   -0.0004 H       1  LIG1        0.0623
@<TRIPOS>BOND
     1     8     2    1
     2    23    18    1
     3    24    19    1
     4     2     1   ar
     5     2     3   ar
     6    18    19   ar
     7    18    17   ar
     8    19    20   ar
     9     6     5    1
    10    17    13    1
    11    17    21   ar
    12     5     4   ar
    13     5     1   ar
    14    14    13   ar
    15    14    10   ar
    16    20    22    1
    17    20    21   ar
    18    13    12   ar
    19     4    10    1
    20     4     3   ar
    21    10    11   ar
    22     1     7    1
    23    12    11   ar
    24    12    16    1
    25    11    15    1
    26     3     9    1
