@<TRIPOS>MOLECULE
mol_data/opt/cam/geoms/mol2/131244.out
 37 40 0 0 0
SMALL
GASTEIGER

@<TRIPOS>ATOM
      1 C           1.1986    0.0296   -0.3791 C.ar    1  LIG1        0.0023
      2 C           0.7531    1.3212   -0.2355 C.ar    1  LIG1       -0.0437
      3 C          -0.6475    1.2676   -0.0348 C.ar    1  LIG1       -0.0334
      4 C          -1.0180   -0.0616   -0.0618 C.ar    1  LIG1        0.0821
      5 N           0.1190   -0.8006   -0.2722 N.ar    1  LIG1       -0.3583
      6 H           0.1281   -1.8049   -0.3371 H       1  LIG1        0.1654
      7 H           2.1900   -0.3616   -0.5474 H       1  LIG1        0.0807
      8 H           1.3666    2.2093   -0.2704 H       1  LIG1        0.0633
      9 H          -1.3148    2.1037    0.1141 H       1  LIG1        0.0640
     10 C          -2.3026   -0.7003    0.0856 C.ar    1  LIG1        0.1517
     11 C          -3.5707   -0.2449    0.2890 C.ar    1  LIG1       -0.0138
     12 C          -4.4068   -1.3953    0.3436 C.ar    1  LIG1       -0.0152
     13 C          -3.6043   -2.4835    0.1708 C.ar    1  LIG1        0.1358
     14 O          -2.3118   -2.0614    0.0125 O.2     1  LIG1       -0.4534
     15 H          -3.8694    0.7874    0.3876 H       1  LIG1        0.0656
     16 H          -5.4755   -1.4077    0.4952 H       1  LIG1        0.0656
     17 C          -5.1481   -4.4230    0.2461 C.ar    1  LIG1       -0.0505
     18 C          -5.3851   -5.7858    0.2068 C.ar    1  LIG1       -0.0534
     19 C          -3.8486   -3.9174    0.1275 C.ar    1  LIG1        0.0173
     20 C          -4.3386   -6.7003    0.0462 C.ar    1  LIG1       -0.0178
     21 H          -6.3997   -6.1519    0.3248 H       1  LIG1        0.0624
     22 C          -2.7992   -4.8272   -0.0326 C.ar    1  LIG1       -0.0505
     23 C          -3.0431   -6.1906   -0.0723 C.ar    1  LIG1       -0.0534
     24 H          -1.7860   -4.4571   -0.1344 H       1  LIG1        0.0625
     25 H          -5.9820   -3.7417    0.3778 H       1  LIG1        0.0625
     26 H          -2.2134   -6.8738   -0.2220 H       1  LIG1        0.0624
     27 C          -5.7248   -8.6683   -0.6489 C.ar    1  LIG1       -0.0540
     28 C          -5.9675  -10.0347   -0.6908 C.ar    1  LIG1       -0.0612
     29 C          -4.5967   -8.1593    0.0018 C.ar    1  LIG1       -0.0179
     30 C          -5.0854  -10.9213   -0.0840 C.ar    1  LIG1       -0.0617
     31 H          -6.8456  -10.4089   -1.2076 H       1  LIG1        0.0618
     32 C          -3.7184   -9.0623    0.6086 C.ar    1  LIG1       -0.0540
     33 C          -3.9593  -10.4290    0.5656 C.ar    1  LIG1       -0.0612
     34 H          -2.8504   -8.6856    1.1400 H       1  LIG1        0.0624
     35 H          -5.2744  -11.9893   -0.1171 H       1  LIG1        0.0618
     36 H          -6.4054   -7.9858   -1.1475 H       1  LIG1        0.0624
     37 H          -3.2683  -11.1119    1.0495 H       1  LIG1        0.0618
@<TRIPOS>BOND
     1    31    28    1
     2    36    27    1
     3    28    27   ar
     4    28    30   ar
     5    27    29   ar
     6     7     1    1
     7     1     5   ar
     8     1     2   ar
     9     6     5    1
    10     5     4   ar
    11     8     2    1
    12     2     3   ar
    13    26    23    1
    14    24    22    1
    15    35    30    1
    16    30    33   ar
    17    23    22   ar
    18    23    20   ar
    19     4     3   ar
    20     4    10    1
    21     3     9    1
    22    22    19   ar
    23    29    20    1
    24    29    32   ar
    25    14    10   ar
    26    14    13   ar
    27    20    18   ar
    28    10    11   ar
    29    19    13    1
    30    19    17   ar
    31    13    12   ar
    32    18    17   ar
    33    18    21    1
    34    17    25    1
    35    11    12   ar
    36    11    15    1
    37    12    16    1
    38    33    32   ar
    39    33    37    1
    40    32    34    1
