@<TRIPOS>MOLECULE
mol_data/opt/cam/geoms/mol2/1312-.out
 17 18 0 0 0
SMALL
GASTEIGER

@<TRIPOS>ATOM
      1 C           1.1683   -0.3011   -0.0001 C.ar    1  LIG1        0.0023
      2 C           0.7679    1.0115    0.0002 C.ar    1  LIG1       -0.0437
      3 C          -0.6486    1.0230    0.0002 C.ar    1  LIG1       -0.0334
      4 C          -1.0745   -0.2879    0.0001 C.ar    1  LIG1        0.0821
      5 N           0.0458   -1.0832   -0.0000 N.ar    1  LIG1       -0.3583
      6 H           0.0392   -2.0891   -0.0004 H       1  LIG1        0.1654
      7 H           2.1535   -0.7412   -0.0002 H       1  LIG1        0.0807
      8 H           1.4210    1.8715    0.0004 H       1  LIG1        0.0633
      9 H          -1.2981    1.8851    0.0004 H       1  LIG1        0.0640
     10 C          -2.4079   -0.8420    0.0002 C.ar    1  LIG1        0.1508
     11 C          -2.9068   -2.1109    0.0003 C.ar    1  LIG1       -0.0144
     12 C          -4.3307   -1.9852    0.0003 C.ar    1  LIG1       -0.0233
     13 C          -4.5910   -0.6576    0.0001 C.ar    1  LIG1        0.0926
     14 O          -3.4321    0.0524    0.0001 O.2     1  LIG1       -0.4615
     15 H          -5.4984   -0.0758    0.0001 H       1  LIG1        0.1029
     16 H          -2.3393   -3.0300    0.0004 H       1  LIG1        0.0656
     17 H          -5.0577   -2.7833    0.0004 H       1  LIG1        0.0649
@<TRIPOS>BOND
     1     6     5    1
     2     7     1    1
     3     1     5   ar
     4     1     2   ar
     5     5     4   ar
     6    14    13   ar
     7    14    10   ar
     8    15    13    1
     9     4    10    1
    10     4     3   ar
    11    13    12   ar
    12    10    11   ar
    13     3     2   ar
    14     3     9    1
    15     2     8    1
    16    12    11   ar
    17    12    17    1
    18    11    16    1
