@<TRIPOS>MOLECULE
mol_data/opt/cam/geoms/mol2/1312-4.out
 27 29 0 0 0
SMALL
GASTEIGER

@<TRIPOS>ATOM
      1 C           1.2676   -0.3623   -0.0009 C.ar    1  LIG1        0.0023
      2 C           0.8908    0.9575    0.0005 C.ar    1  LIG1       -0.0437
      3 C          -0.5252    0.9946    0.0005 C.ar    1  LIG1       -0.0334
      4 C          -0.9746   -0.3090    0.0001 C.ar    1  LIG1        0.0821
      5 N           0.1315   -1.1244   -0.0006 N.ar    1  LIG1       -0.3583
      6 H           0.1075   -2.1300   -0.0013 H       1  LIG1        0.1654
      7 H           2.2451   -0.8193   -0.0015 H       1  LIG1        0.0807
      8 H           1.5593    1.8056    0.0010 H       1  LIG1        0.0633
      9 H          -1.1580    1.8689    0.0011 H       1  LIG1        0.0640
     10 C          -2.3161   -0.8387    0.0003 C.ar    1  LIG1        0.1517
     11 C          -2.8365   -2.1003    0.0002 C.ar    1  LIG1       -0.0138
     12 C          -4.2524   -1.9514    0.0005 C.ar    1  LIG1       -0.0152
     13 C          -4.5090   -0.6129    0.0009 C.ar    1  LIG1        0.1358
     14 O          -3.3258    0.0691    0.0007 O.2     1  LIG1       -0.4534
     15 H          -2.2851   -3.0291   -0.0001 H       1  LIG1        0.0656
     16 H          -4.9845   -2.7446    0.0005 H       1  LIG1        0.0656
     17 C          -5.6789    1.5769    0.0018 C.ar    1  LIG1       -0.0511
     18 C          -6.8480    2.3248    0.0023 C.ar    1  LIG1       -0.0611
     19 C          -5.7322    0.1796    0.0013 C.ar    1  LIG1        0.0173
     20 C          -8.0870    1.6949    0.0022 C.ar    1  LIG1       -0.0617
     21 H          -6.7893    3.4085    0.0027 H       1  LIG1        0.0618
     22 C          -6.9834   -0.4470    0.0013 C.ar    1  LIG1       -0.0511
     23 C          -8.1481    0.3048    0.0017 C.ar    1  LIG1       -0.0611
     24 H          -7.0438   -1.5303    0.0009 H       1  LIG1        0.0625
     25 H          -8.9995    2.2818    0.0026 H       1  LIG1        0.0618
     26 H          -4.7140    2.0699    0.0019 H       1  LIG1        0.0625
     27 H          -9.1101   -0.1975    0.0017 H       1  LIG1        0.0618
@<TRIPOS>BOND
     1     7     1    1
     2     6     5    1
     3     1     5   ar
     4     1     2   ar
     5     5     4   ar
     6    15    11    1
     7     4    10    1
     8     4     3   ar
     9    11    10   ar
    10    11    12   ar
    11    10    14   ar
    12     3     2   ar
    13     3     9    1
    14     2     8    1
    15    12    16    1
    16    12    13   ar
    17    14    13   ar
    18    24    22    1
    19    13    19    1
    20    22    19   ar
    21    22    23   ar
    22    19    17   ar
    23    27    23    1
    24    23    20   ar
    25    17    26    1
    26    17    18   ar
    27    20    18   ar
    28    20    25    1
    29    18    21    1
