@<TRIPOS>MOLECULE
mol_data/opt/cam/geoms/mol2/1313.out
 18 19 0 0 0
SMALL
GASTEIGER

@<TRIPOS>ATOM
      1 C           1.2072   -0.2534   -0.0007 C.ar    1  LIG1        0.0022
      2 C           0.7671    1.0439    0.0004 C.ar    1  LIG1       -0.0438
      3 C          -0.6498    1.0112    0.0009 C.ar    1  LIG1       -0.0350
      4 C          -1.0455   -0.3098    0.0002 C.ar    1  LIG1        0.0629
      5 N           0.1036   -1.0684   -0.0006 N.ar    1  LIG1       -0.3595
      6 H           0.1487   -2.0724   -0.0018 H       1  LIG1        0.1654
      7 H           2.2039   -0.6665   -0.0014 H       1  LIG1        0.0807
      8 H           1.3928    1.9243    0.0008 H       1  LIG1        0.0633
      9 H          -1.3168    1.8605    0.0017 H       1  LIG1        0.0639
     10 C          -2.3819   -0.8766    0.0004 C.ar    1  LIG1        0.0629
     11 C          -3.6067   -0.2428   -0.0001 C.ar    1  LIG1       -0.0350
     12 C          -4.6151   -1.2387    0.0003 C.ar    1  LIG1       -0.0438
     13 C          -3.9884   -2.4569    0.0012 C.ar    1  LIG1        0.0022
     14 N          -2.6353   -2.2300    0.0012 N.ar    1  LIG1       -0.3595
     15 H          -1.9449   -2.9603    0.0018 H       1  LIG1        0.1654
     16 H          -4.3842   -3.4606    0.0019 H       1  LIG1        0.0807
     17 H          -3.7536    0.8271   -0.0008 H       1  LIG1        0.0639
     18 H          -5.6829   -1.0766   -0.0000 H       1  LIG1        0.0633
@<TRIPOS>BOND
     1     6     5    1
     2     7     1    1
     3    17    11    1
     4     1     5   ar
     5     1     2   ar
     6     5     4   ar
     7    11    12   ar
     8    11    10   ar
     9    18    12    1
    10     4    10    1
    11     4     3   ar
    12    12    13   ar
    13    10    14   ar
    14     2     8    1
    15     2     3   ar
    16     3     9    1
    17    14    13   ar
    18    14    15    1
    19    13    16    1
