@<TRIPOS>MOLECULE
mol_data/opt/cam/geoms/mol2/13135-.out
 25 27 0 0 0
SMALL
GASTEIGER

@<TRIPOS>ATOM
      1 C           1.2335   -0.1211   -0.0869 C.ar    1  LIG1        0.0022
      2 C           0.8004    1.0569    0.4643 C.ar    1  LIG1       -0.0438
      3 C          -0.6153    0.9953    0.5424 C.ar    1  LIG1       -0.0350
      4 C          -1.0104   -0.2209    0.0322 C.ar    1  LIG1        0.0629
      5 N           0.1322   -0.8986   -0.3347 N.ar    1  LIG1       -0.3595
      6 H           0.1352   -1.7527   -0.8675 H       1  LIG1        0.1654
      7 H           2.2276   -0.4709   -0.3191 H       1  LIG1        0.0807
      8 H           1.4307    1.8707    0.7916 H       1  LIG1        0.0633
      9 H          -1.2790    1.7400    0.9563 H       1  LIG1        0.0639
     10 C          -2.3285   -0.8050   -0.1331 C.ar    1  LIG1        0.0633
     11 C          -3.5341   -0.2381   -0.4823 C.ar    1  LIG1       -0.0344
     12 C          -4.5093   -1.2643   -0.4843 C.ar    1  LIG1       -0.0353
     13 C          -3.8821   -2.4427   -0.1416 C.ar    1  LIG1        0.0536
     14 N          -2.5491   -2.1521    0.0522 N.ar    1  LIG1       -0.3526
     15 H          -1.9080   -2.7677    0.5267 H       1  LIG1        0.1660
     16 H          -3.6798    0.7986   -0.7469 H       1  LIG1        0.0639
     17 H          -5.5516   -1.1662   -0.7513 H       1  LIG1        0.0639
     18 C          -4.3844   -3.7946    0.0059 C.ar    1  LIG1        0.0355
     19 C          -3.7038   -4.9762   -0.1215 C.ar    1  LIG1       -0.0455
     20 C          -4.5203   -6.1216    0.1007 C.ar    1  LIG1       -0.0541
     21 C          -5.8096   -5.7997    0.3880 C.ar    1  LIG1       -0.0237
     22 S          -6.0472   -4.0901    0.4148 S.2     1  LIG1       -0.0952
     23 H          -6.6373   -6.4650    0.5856 H       1  LIG1        0.0693
     24 H          -2.6584   -5.0288   -0.4018 H       1  LIG1        0.0629
     25 H          -4.1597   -7.1407    0.0340 H       1  LIG1        0.0623
@<TRIPOS>BOND
     1     6     5    1
     2    17    12    1
     3    16    11    1
     4    12    11   ar
     5    12    13   ar
     6    11    10   ar
     7    24    19    1
     8     5     1   ar
     9     5     4   ar
    10     7     1    1
    11    13    18    1
    12    13    14   ar
    13    10     4    1
    14    10    14   ar
    15    19    18   ar
    16    19    20   ar
    17     1     2   ar
    18    18    22   ar
    19     4     3   ar
    20    25    20    1
    21    14    15    1
    22    20    21   ar
    23    21    22   ar
    24    21    23    1
    25     2     3   ar
    26     2     8    1
    27     3     9    1
