@<TRIPOS>MOLECULE
mol_data/opt/cam/geoms/mol2/1313-13-.out
 26 28 0 0 0
SMALL
GASTEIGER

@<TRIPOS>ATOM
      1 C           1.2215   -0.3235    0.3928 C.ar    1  LIG1        0.0022
      2 C           0.8780    0.9732    0.1087 C.ar    1  LIG1       -0.0438
      3 C          -0.5139    0.9918   -0.1675 C.ar    1  LIG1       -0.0350
      4 C          -0.9828   -0.2996   -0.0408 C.ar    1  LIG1        0.0629
      5 N           0.0888   -1.0872    0.2976 N.ar    1  LIG1       -0.3595
      6 H           0.0186   -2.0660    0.5211 H       1  LIG1        0.1654
      7 H           2.1717   -0.7632    0.6537 H       1  LIG1        0.0807
      8 H           1.5526    1.8164    0.0884 H       1  LIG1        0.0633
      9 H          -1.1019    1.8472   -0.4684 H       1  LIG1        0.0639
     10 C          -2.3109   -0.8576   -0.2003 C.ar    1  LIG1        0.0633
     11 C          -2.7377   -2.1165   -0.5658 C.ar    1  LIG1       -0.0343
     12 C          -4.1554   -2.1153   -0.5445 C.ar    1  LIG1       -0.0343
     13 C          -4.5686   -0.8584   -0.1659 C.ar    1  LIG1        0.0633
     14 N          -3.4342   -0.0982    0.0255 N.ar    1  LIG1       -0.3519
     15 H          -3.4173    0.7904    0.4999 H       1  LIG1        0.1660
     16 H          -2.0992   -2.9329   -0.8726 H       1  LIG1        0.0639
     17 H          -4.8112   -2.9281   -0.8193 H       1  LIG1        0.0639
     18 C          -5.8972   -0.3036    0.0201 C.ar    1  LIG1        0.0629
     19 C          -7.0470   -0.8563    0.5377 C.ar    1  LIG1       -0.0350
     20 C          -8.0655    0.1307    0.4780 C.ar    1  LIG1       -0.0438
     21 C          -7.5129    1.2593   -0.0690 C.ar    1  LIG1        0.0022
     22 N          -6.1940    0.9948   -0.3333 N.ar    1  LIG1       -0.3595
     23 H          -5.5788    1.5898   -0.8634 H       1  LIG1        0.1654
     24 H          -7.9434    2.2246   -0.2872 H       1  LIG1        0.0807
     25 H          -7.1279   -1.8538    0.9436 H       1  LIG1        0.0639
     26 H          -9.0865    0.0268    0.8148 H       1  LIG1        0.0633
@<TRIPOS>BOND
     1    16    11    1
     2    23    22    1
     3    17    12    1
     4    11    12   ar
     5    11    10   ar
     6    12    13   ar
     7     9     3    1
     8    22    21   ar
     9    22    18   ar
    10    24    21    1
    11    10     4    1
    12    10    14   ar
    13     3     4   ar
    14     3     2   ar
    15    13    18    1
    16    13    14   ar
    17    21    20   ar
    18     4     5   ar
    19    18    19   ar
    20    14    15    1
    21     8     2    1
    22     2     1   ar
    23     5     1   ar
    24     5     6    1
    25     1     7    1
    26    20    19   ar
    27    20    26    1
    28    19    25    1
