@<TRIPOS>MOLECULE
mol_data/opt/cam/geoms/mol2/13138-5-.out
 31 34 0 0 0
SMALL
GASTEIGER

@<TRIPOS>ATOM
      1 C           1.2160   -0.1478   -0.2398 C.ar    1  LIG1        0.0022
      2 C           0.8353    1.0119    0.3860 C.ar    1  LIG1       -0.0438
      3 C          -0.5711    0.9608    0.5551 C.ar    1  LIG1       -0.0350
      4 C          -1.0131   -0.2322    0.0267 C.ar    1  LIG1        0.0629
      5 N           0.0936   -0.9048   -0.4437 N.ar    1  LIG1       -0.3595
      6 H           0.0591   -1.7424   -1.0013 H       1  LIG1        0.1654
      7 H           2.1878   -0.4955   -0.5547 H       1  LIG1        0.0807
      8 H           1.4956    1.8064    0.7005 H       1  LIG1        0.0633
      9 H          -1.1963    1.6956    1.0404 H       1  LIG1        0.0639
     10 C          -2.3473   -0.7906   -0.0612 C.ar    1  LIG1        0.0634
     11 C          -3.5768   -0.1639   -0.2096 C.ar    1  LIG1       -0.0343
     12 C          -4.5674   -1.1617   -0.2421 C.ar    1  LIG1       -0.0326
     13 C          -3.9273   -2.3808   -0.1180 C.ar    1  LIG1        0.0880
     14 N          -2.5782   -2.1356   -0.0156 N.ar    1  LIG1       -0.3505
     15 H          -1.9100   -2.8611    0.1956 H       1  LIG1        0.1660
     16 H          -3.7208    0.9010   -0.3134 H       1  LIG1        0.0639
     17 H          -5.6326   -1.0312   -0.3582 H       1  LIG1        0.0640
     18 C          -4.4292   -3.7277   -0.0778 C.ar    1  LIG1        0.2194
     19 N          -3.5279   -4.7170    0.0656 N.ar    1  LIG1       -0.1237
     20 C          -5.2836   -6.1459    0.0000 C.ar    1  LIG1        0.2099
     21 N          -5.7576   -3.9288   -0.1813 N.ar    1  LIG1       -0.1237
     22 N          -3.9618   -5.9472    0.1053 N.ar    1  LIG1       -0.1246
     23 N          -6.1844   -5.1567   -0.1415 N.ar    1  LIG1       -0.1246
     24 C          -5.7774   -7.5118    0.0419 C.ar    1  LIG1        0.0598
     25 C          -5.0413   -8.6574    0.1811 C.ar    1  LIG1       -0.0438
     26 C          -5.8459   -9.8263    0.1826 C.ar    1  LIG1       -0.0540
     27 C          -7.1728   -9.5429    0.0446 C.ar    1  LIG1       -0.0236
     28 S          -7.4723   -7.8549   -0.0891 S.2     1  LIG1       -0.0934
     29 H          -7.9986  -10.2396    0.0142 H       1  LIG1        0.0693
     30 H          -3.9637   -8.6438    0.2779 H       1  LIG1        0.0630
     31 H          -5.4542  -10.8307    0.2820 H       1  LIG1        0.0623
@<TRIPOS>BOND
     1     6     5    1
     2     7     1    1
     3     5     1   ar
     4     5     4   ar
     5    17    12    1
     6    16    11    1
     7    12    11   ar
     8    12    13   ar
     9     1     2   ar
    10    11    10   ar
    11    21    23   ar
    12    21    18   ar
    13    23    20   ar
    14    13    18    1
    15    13    14   ar
    16    28    24   ar
    17    28    27   ar
    18    18    19   ar
    19    10    14   ar
    20    10     4    1
    21    14    15    1
    22    20    24    1
    23    20    22   ar
    24    29    27    1
    25     4     3   ar
    26    24    25   ar
    27    27    26   ar
    28    19    22   ar
    29    25    26   ar
    30    25    30    1
    31    26    31    1
    32     2     3   ar
    33     2     8    1
    34     3     9    1
