@<TRIPOS>MOLECULE
mol_data/opt/cam/geoms/mol2/1313-.out
 18 19 0 0 0
SMALL
GASTEIGER

@<TRIPOS>ATOM
      1 C           1.1913   -0.2816   -0.0002 C.ar    1  LIG1        0.0022
      2 C           0.7846    1.0273    0.0006 C.ar    1  LIG1       -0.0438
      3 C          -0.6338    1.0288    0.0007 C.ar    1  LIG1       -0.0350
      4 C          -1.0571   -0.2849    0.0001 C.ar    1  LIG1        0.0629
      5 N           0.0699   -1.0676   -0.0004 N.ar    1  LIG1       -0.3595
      6 H           0.0642   -2.0735   -0.0012 H       1  LIG1        0.1654
      7 H           2.1783   -0.7175   -0.0005 H       1  LIG1        0.0807
      8 H           1.4314    1.8921    0.0011 H       1  LIG1        0.0633
      9 H          -1.2702    1.9026    0.0013 H       1  LIG1        0.0639
     10 C          -2.3848   -0.8673   -0.0001 C.ar    1  LIG1        0.0629
     11 C          -2.8082   -2.1810    0.0004 C.ar    1  LIG1       -0.0350
     12 C          -4.2266   -2.1795   -0.0000 C.ar    1  LIG1       -0.0438
     13 C          -4.6332   -0.8706   -0.0008 C.ar    1  LIG1        0.0022
     14 N          -3.5118   -0.0846   -0.0008 N.ar    1  LIG1       -0.3595
     15 H          -3.5061    0.9213   -0.0012 H       1  LIG1        0.1654
     16 H          -5.6202   -0.4347   -0.0014 H       1  LIG1        0.0807
     17 H          -2.1717   -3.0549    0.0010 H       1  LIG1        0.0639
     18 H          -4.8733   -3.0444    0.0002 H       1  LIG1        0.0633
@<TRIPOS>BOND
     1    16    13    1
     2    15    14    1
     3     6     5    1
     4    13    14   ar
     5    13    12   ar
     6    14    10   ar
     7     7     1    1
     8     5     1   ar
     9     5     4   ar
    10     1     2   ar
    11    10     4    1
    12    10    11   ar
    13    12    18    1
    14    12    11   ar
    15     4     3   ar
    16    11    17    1
    17     2     3   ar
    18     2     8    1
    19     3     9    1
