@<TRIPOS>MOLECULE
mol_data/opt/cam/geoms/mol2/1313-12-13-.out
 33 36 0 0 0
SMALL
GASTEIGER

@<TRIPOS>ATOM
      1 C           1.2971   -0.3719   -0.0003 C.ar    1  LIG1        0.0022
      2 C           0.9017    0.9408    0.0012 C.ar    1  LIG1       -0.0438
      3 C          -0.5163    0.9545    0.0016 C.ar    1  LIG1       -0.0350
      4 C          -0.9505   -0.3560    0.0003 C.ar    1  LIG1        0.0629
      5 N           0.1699   -1.1488   -0.0008 N.ar    1  LIG1       -0.3595
      6 H           0.1569   -2.1547   -0.0022 H       1  LIG1        0.1654
      7 H           2.2807   -0.8153   -0.0010 H       1  LIG1        0.0807
      8 H           1.5560    1.7998    0.0019 H       1  LIG1        0.0633
      9 H          -1.1459    1.8331    0.0028 H       1  LIG1        0.0639
     10 C          -2.2824   -0.9232    0.0000 C.ar    1  LIG1        0.0634
     11 C          -2.7198   -2.2350    0.0001 C.ar    1  LIG1       -0.0343
     12 C          -4.1325   -2.2223   -0.0003 C.ar    1  LIG1       -0.0328
     13 C          -4.5348   -0.9021   -0.0005 C.ar    1  LIG1        0.0826
     14 N          -3.3997   -0.1303   -0.0003 N.ar    1  LIG1       -0.3506
     15 H          -3.4030    0.8756   -0.0005 H       1  LIG1        0.1660
     16 H          -2.0931   -3.1155    0.0005 H       1  LIG1        0.0639
     17 H          -4.7878   -3.0807   -0.0004 H       1  LIG1        0.0640
     18 C          -5.8458   -0.3055   -0.0009 C.ar    1  LIG1        0.1518
     19 C          -7.1130   -0.8035   -0.0008 C.ar    1  LIG1       -0.0137
     20 C          -7.9945    0.3161   -0.0013 C.ar    1  LIG1       -0.0137
     21 C          -7.2141    1.4312   -0.0017 C.ar    1  LIG1        0.1518
     22 O          -5.8942    1.0638   -0.0014 O.2     1  LIG1       -0.4519
     23 H          -7.3847   -1.8481   -0.0004 H       1  LIG1        0.0656
     24 H          -9.0737    0.2970   -0.0015 H       1  LIG1        0.0656
     25 C          -7.4881    2.8472   -0.0022 C.ar    1  LIG1        0.0821
     26 C          -8.6782    3.5460   -0.0020 C.ar    1  LIG1       -0.0334
     27 C          -8.3604    4.9262   -0.0029 C.ar    1  LIG1       -0.0437
     28 C          -6.9915    5.0343   -0.0036 C.ar    1  LIG1        0.0023
     29 N          -6.4719    3.7697   -0.0032 N.ar    1  LIG1       -0.3583
     30 H          -5.4958    3.5274   -0.0036 H       1  LIG1        0.1654
     31 H          -6.3503    5.9021   -0.0044 H       1  LIG1        0.0807
     32 H          -9.6649    3.1067   -0.0012 H       1  LIG1        0.0640
     33 H          -9.0596    5.7492   -0.0030 H       1  LIG1        0.0633
@<TRIPOS>BOND
     1    31    28    1
     2    30    29    1
     3    28    29   ar
     4    28    27   ar
     5    29    25   ar
     6    33    27    1
     7    27    26   ar
     8    25    26   ar
     9    25    21    1
    10     6     5    1
    11    26    32    1
    12    21    22   ar
    13    21    20   ar
    14    24    20    1
    15    22    18   ar
    16    20    19   ar
    17     7     1    1
    18    18    19   ar
    19    18    13    1
    20     5     1   ar
    21     5     4   ar
    22    19    23    1
    23    13    14   ar
    24    13    12   ar
    25    15    14    1
    26    17    12    1
    27    14    10   ar
    28     1     2   ar
    29    12    11   ar
    30    10    11   ar
    31    10     4    1
    32    11    16    1
    33     4     3   ar
    34     2     3   ar
    35     2     8    1
    36     3     9    1
