@<TRIPOS>MOLECULE
mol_data/opt/cam/geoms/mol2/131312-5.out
 32 35 0 0 0
SMALL
GASTEIGER

@<TRIPOS>ATOM
      1 C           1.2973   -0.1637   -0.1993 C.ar    1  LIG1        0.0022
      2 C           0.9196    0.9937    0.4306 C.ar    1  LIG1       -0.0438
      3 C          -0.4921    0.9604    0.5717 C.ar    1  LIG1       -0.0350
      4 C          -0.9405   -0.2184    0.0195 C.ar    1  LIG1        0.0629
      5 N           0.1670   -0.9025   -0.4341 N.ar    1  LIG1       -0.3595
      6 H           0.1246   -1.7254   -1.0124 H       1  LIG1        0.1654
      7 H           2.2707   -0.5230   -0.4958 H       1  LIG1        0.0807
      8 H           1.5844    1.7748    0.7690 H       1  LIG1        0.0633
      9 H          -1.1175    1.6974    1.0535 H       1  LIG1        0.0639
     10 C          -2.2793   -0.7620   -0.1136 C.ar    1  LIG1        0.0634
     11 C          -3.4825   -0.1513   -0.3938 C.ar    1  LIG1       -0.0343
     12 C          -4.4845   -1.1496   -0.3989 C.ar    1  LIG1       -0.0328
     13 C          -3.8739   -2.3549   -0.1267 C.ar    1  LIG1        0.0826
     14 N          -2.5282   -2.1092    0.0295 N.ar    1  LIG1       -0.3506
     15 H          -1.8725   -2.7617    0.4278 H       1  LIG1        0.1660
     16 H          -3.6099    0.8996   -0.6069 H       1  LIG1        0.0639
     17 H          -5.5363   -1.0198   -0.6039 H       1  LIG1        0.0640
     18 C          -4.4227   -3.6815   -0.0160 C.ar    1  LIG1        0.1518
     19 C          -3.8730   -4.9248    0.1107 C.ar    1  LIG1       -0.0138
     20 C          -4.9592   -5.8427    0.1743 C.ar    1  LIG1       -0.0147
     21 C          -6.0998   -5.1031    0.0786 C.ar    1  LIG1        0.1423
     22 O          -5.7788   -3.7819   -0.0356 O.2     1  LIG1       -0.4528
     23 H          -2.8206   -5.1659    0.1394 H       1  LIG1        0.0656
     24 H          -4.9009   -6.9164    0.2743 H       1  LIG1        0.0656
     25 C          -7.5077   -5.4229    0.0752 C.ar    1  LIG1        0.0544
     26 C          -8.5618   -4.5558   -0.0188 C.ar    1  LIG1       -0.0440
     27 C          -9.8238   -5.2130    0.0087 C.ar    1  LIG1       -0.0540
     28 C          -9.7133   -6.5634    0.1229 C.ar    1  LIG1       -0.0236
     29 S          -8.0627   -7.0650    0.1988 S.2     1  LIG1       -0.0936
     30 H         -10.5024   -7.2997    0.1676 H       1  LIG1        0.0693
     31 H          -8.4284   -3.4854   -0.1034 H       1  LIG1        0.0630
     32 H         -10.7732   -4.6959   -0.0538 H       1  LIG1        0.0623
@<TRIPOS>BOND
     1     6     5    1
     2    16    11    1
     3    17    12    1
     4     7     1    1
     5     5     1   ar
     6     5     4   ar
     7    12    11   ar
     8    12    13   ar
     9    11    10   ar
    10     1     2   ar
    11    13    18    1
    12    13    14   ar
    13    10     4    1
    14    10    14   ar
    15    31    26    1
    16    32    27    1
    17    22    18   ar
    18    22    21   ar
    19    26    27   ar
    20    26    25   ar
    21    18    19   ar
    22    27    28   ar
    23     4     3   ar
    24    14    15    1
    25    25    21    1
    26    25    29   ar
    27    21    20   ar
    28    19    23    1
    29    19    20   ar
    30    28    30    1
    31    28    29   ar
    32    20    24    1
    33     2     3   ar
    34     2     8    1
    35     3     9    1
