@<TRIPOS>MOLECULE
mol_data/opt/cam/geoms/mol2/131355-.out
 32 35 0 0 0
SMALL
GASTEIGER

@<TRIPOS>ATOM
      1 C           1.2296   -0.0290   -0.1636 C.ar    1  LIG1        0.0022
      2 C           0.8083    1.1420    0.4116 C.ar    1  LIG1       -0.0438
      3 C          -0.6056    1.0811    0.5143 C.ar    1  LIG1       -0.0350
      4 C          -1.0115   -0.1275   -0.0056 C.ar    1  LIG1        0.0629
      5 N           0.1232   -0.8015   -0.4025 N.ar    1  LIG1       -0.3595
      6 H           0.1163   -1.6493   -0.9457 H       1  LIG1        0.1654
      7 H           2.2188   -0.3767   -0.4186 H       1  LIG1        0.0807
      8 H           1.4457    1.9503    0.7386 H       1  LIG1        0.0633
      9 H          -1.2605    1.8209    0.9504 H       1  LIG1        0.0639
     10 C          -2.3329   -0.7075   -0.1542 C.ar    1  LIG1        0.0633
     11 C          -3.5457   -0.1330   -0.4671 C.ar    1  LIG1       -0.0344
     12 C          -4.5208   -1.1581   -0.4730 C.ar    1  LIG1       -0.0353
     13 C          -3.8883   -2.3438   -0.1638 C.ar    1  LIG1        0.0536
     14 N          -2.5506   -2.0575    0.0084 N.ar    1  LIG1       -0.3526
     15 H          -1.8951   -2.6821    0.4518 H       1  LIG1        0.1660
     16 H          -3.6956    0.9089   -0.7079 H       1  LIG1        0.0639
     17 H          -5.5666   -1.0571   -0.7236 H       1  LIG1        0.0639
     18 C          -4.4136   -3.6859   -0.0306 C.ar    1  LIG1        0.0361
     19 C          -5.6839   -4.0705    0.3011 C.ar    1  LIG1       -0.0449
     20 C          -5.8538   -5.4788    0.3397 C.ar    1  LIG1       -0.0458
     21 C          -4.7153   -6.1781    0.0468 C.ar    1  LIG1        0.0265
     22 S          -3.4128   -5.0820   -0.3283 S.2     1  LIG1       -0.0863
     23 H          -6.4644   -3.3607    0.5440 H       1  LIG1        0.0630
     24 H          -6.7841   -5.9631    0.6119 H       1  LIG1        0.0629
     25 C          -4.5089   -7.6150    0.0131 C.ar    1  LIG1        0.0259
     26 C          -3.3403   -8.3164    0.1419 C.ar    1  LIG1       -0.0464
     27 C          -3.5185   -9.7259    0.0619 C.ar    1  LIG1       -0.0541
     28 C          -4.8178  -10.0813   -0.1247 C.ar    1  LIG1       -0.0237
     29 S          -5.8480   -8.7016   -0.2235 S.2     1  LIG1       -0.0961
     30 H          -5.2339  -11.0743   -0.2123 H       1  LIG1        0.0693
     31 H          -2.3831   -7.8378    0.3103 H       1  LIG1        0.0629
     32 H          -2.7103  -10.4412    0.1494 H       1  LIG1        0.0623
@<TRIPOS>BOND
     1     6     5    1
     2    17    12    1
     3    16    11    1
     4    12    11   ar
     5    12    13   ar
     6    11    10   ar
     7     7     1    1
     8     5     1   ar
     9     5     4   ar
    10    22    18   ar
    11    22    21   ar
    12    29    28   ar
    13    29    25   ar
    14    30    28    1
    15    13    18    1
    16    13    14   ar
    17     1     2   ar
    18    10     4    1
    19    10    14   ar
    20    28    27   ar
    21    18    19   ar
    22     4     3   ar
    23    14    15    1
    24    25    21    1
    25    25    26   ar
    26    21    20   ar
    27    27    26   ar
    28    27    32    1
    29    26    31    1
    30    19    20   ar
    31    19    23    1
    32    20    24    1
    33     2     3   ar
    34     2     8    1
    35     3     9    1
