@<TRIPOS>MOLECULE
mol_data/opt/cam/geoms/mol2/1313-124.out
 35 38 0 0 0
SMALL
GASTEIGER

@<TRIPOS>ATOM
      1 C           1.3396   -0.1948   -0.0011 C.ar    1  LIG1        0.0022
      2 C           0.9079    1.1066    0.0012 C.ar    1  LIG1       -0.0438
      3 C          -0.5098    1.0810    0.0012 C.ar    1  LIG1       -0.0350
      4 C          -0.9074   -0.2411    0.0001 C.ar    1  LIG1        0.0629
      5 N           0.2347   -1.0026   -0.0012 N.ar    1  LIG1       -0.3595
      6 H           0.2499   -2.0085   -0.0026 H       1  LIG1        0.1654
      7 H           2.3351   -0.6107   -0.0021 H       1  LIG1        0.0807
      8 H           1.5380    1.9835    0.0022 H       1  LIG1        0.0633
      9 H          -1.1624    1.9428    0.0025 H       1  LIG1        0.0639
     10 C          -2.2224   -0.8465   -0.0000 C.ar    1  LIG1        0.0634
     11 C          -2.6202   -2.1705    0.0003 C.ar    1  LIG1       -0.0343
     12 C          -4.0325   -2.1992   -0.0000 C.ar    1  LIG1       -0.0328
     13 C          -4.4744   -0.8928   -0.0005 C.ar    1  LIG1        0.0826
     14 N          -3.3622   -0.0852   -0.0005 N.ar    1  LIG1       -0.3506
     15 H          -3.3761    0.9208   -0.0009 H       1  LIG1        0.1660
     16 H          -1.9674   -3.0317    0.0008 H       1  LIG1        0.0639
     17 H          -4.6688   -3.0708    0.0001 H       1  LIG1        0.0640
     18 C          -5.8107   -0.3564   -0.0009 C.ar    1  LIG1        0.1518
     19 C          -6.3238    0.9087   -0.0016 C.ar    1  LIG1       -0.0138
     20 C          -7.7401    0.7679   -0.0017 C.ar    1  LIG1       -0.0152
     21 C          -8.0050   -0.5692   -0.0012 C.ar    1  LIG1        0.1358
     22 O          -6.8260   -1.2586   -0.0007 O.2     1  LIG1       -0.4534
     23 H          -5.7668    1.8341   -0.0019 H       1  LIG1        0.0656
     24 H          -8.4674    1.5655   -0.0022 H       1  LIG1        0.0656
     25 C         -10.4803   -0.7189   -0.0012 C.ar    1  LIG1       -0.0511
     26 C         -11.6499   -1.4631   -0.0011 C.ar    1  LIG1       -0.0611
     27 C          -9.2331   -1.3536   -0.0010 C.ar    1  LIG1        0.0173
     28 C         -11.5980   -2.8535   -0.0008 C.ar    1  LIG1       -0.0617
     29 H         -12.6085   -0.9544   -0.0013 H       1  LIG1        0.0618
     30 C          -9.1892   -2.7514   -0.0006 C.ar    1  LIG1       -0.0511
     31 C         -10.3632   -3.4915   -0.0005 C.ar    1  LIG1       -0.0611
     32 H          -8.2276   -3.2507   -0.0005 H       1  LIG1        0.0625
     33 H         -12.5144   -3.4343   -0.0007 H       1  LIG1        0.0618
     34 H         -10.5336    0.3648   -0.0015 H       1  LIG1        0.0625
     35 H         -10.3116   -4.5756   -0.0002 H       1  LIG1        0.0618
@<TRIPOS>BOND
     1     6     5    1
     2    24    20    1
     3     7     1    1
     4    23    19    1
     5    20    19   ar
     6    20    21   ar
     7    19    18   ar
     8    34    25    1
     9    29    26    1
    10    25    26   ar
    11    25    27   ar
    12     5     1   ar
    13     5     4   ar
    14    21    27    1
    15    21    22   ar
    16    26    28   ar
    17     1     2   ar
    18    27    30   ar
    19    18    22   ar
    20    18    13    1
    21    15    14    1
    22    28    33    1
    23    28    31   ar
    24    30    31   ar
    25    30    32    1
    26    31    35    1
    27    14    13   ar
    28    14    10   ar
    29    13    12   ar
    30    12    17    1
    31    12    11   ar
    32    10     4    1
    33    10    11   ar
    34     4     3   ar
    35    11    16    1
    36     2     3   ar
    37     2     8    1
    38     3     9    1
