@<TRIPOS>MOLECULE
mol_data/opt/cam/geoms/mol2/13134-.out
 28 30 0 0 0
SMALL
GASTEIGER

@<TRIPOS>ATOM
      1 C           1.1719   -0.0569   -0.5965 C.ar    1  LIG1        0.0022
      2 C           0.9056    0.9759    0.2641 C.ar    1  LIG1       -0.0438
      3 C          -0.4596    0.8754    0.6401 C.ar    1  LIG1       -0.0350
      4 C          -0.9931   -0.2170   -0.0049 C.ar    1  LIG1        0.0629
      5 N           0.0206   -0.7865   -0.7458 N.ar    1  LIG1       -0.3595
      6 H          -0.1189   -1.5075   -1.4344 H       1  LIG1        0.1654
      7 H           2.0797   -0.3353   -1.1093 H       1  LIG1        0.0807
      8 H           1.6161    1.7160    0.6018 H       1  LIG1        0.0633
      9 H          -0.9939    1.5082    1.3333 H       1  LIG1        0.0639
     10 C          -2.3341   -0.7756    0.0120 C.ar    1  LIG1        0.0633
     11 C          -3.5702   -0.1663    0.0048 C.ar    1  LIG1       -0.0344
     12 C          -4.5517   -1.1849    0.0137 C.ar    1  LIG1       -0.0358
     13 C          -3.9031   -2.4026    0.0260 C.ar    1  LIG1        0.0469
     14 N          -2.5542   -2.1331    0.0237 N.ar    1  LIG1       -0.3530
     15 H          -1.8289   -2.8286    0.0810 H       1  LIG1        0.1659
     16 H          -3.7364    0.9002   -0.0273 H       1  LIG1        0.0639
     17 H          -5.6229   -1.0471    0.0306 H       1  LIG1        0.0639
     18 C          -3.6926   -4.8241    0.6054 C.ar    1  LIG1       -0.0526
     19 C          -4.2015   -6.1160    0.6192 C.ar    1  LIG1       -0.0611
     20 C          -4.4276   -3.7683    0.0546 C.ar    1  LIG1       -0.0017
     21 C          -5.4616   -6.3787    0.0959 C.ar    1  LIG1       -0.0617
     22 H          -3.6143   -6.9188    1.0537 H       1  LIG1        0.0618
     23 C          -5.6939   -4.0477   -0.4724 C.ar    1  LIG1       -0.0526
     24 C          -6.2067   -5.3358   -0.4452 C.ar    1  LIG1       -0.0611
     25 H          -6.2684   -3.2448   -0.9221 H       1  LIG1        0.0624
     26 H          -5.8611   -7.3873    0.1107 H       1  LIG1        0.0618
     27 H          -2.7245   -4.6326    1.0591 H       1  LIG1        0.0624
     28 H          -7.1907   -5.5296   -0.8602 H       1  LIG1        0.0618
@<TRIPOS>BOND
     1     6     5    1
     2     7     1    1
     3    25    23    1
     4    28    24    1
     5     5     1   ar
     6     5     4   ar
     7     1     2   ar
     8    23    24   ar
     9    23    20   ar
    10    24    21   ar
    11    16    11    1
    12     4    10    1
    13     4     3   ar
    14    11    10   ar
    15    11    12   ar
    16    10    14   ar
    17    12    13   ar
    18    12    17    1
    19    14    13   ar
    20    14    15    1
    21    13    20    1
    22    20    18   ar
    23    21    26    1
    24    21    19   ar
    25     2     8    1
    26     2     3   ar
    27    18    19   ar
    28    18    27    1
    29    19    22    1
    30     3     9    1
