@<TRIPOS>MOLECULE
mol_data/opt/cam/geoms/mol2/13138-12-.out
 31 34 0 0 0
SMALL
GASTEIGER

@<TRIPOS>ATOM
      1 C           1.2197   -0.2260   -0.2378 C.ar    1  LIG1        0.0022
      2 C           0.8601    0.9418    0.3851 C.ar    1  LIG1       -0.0438
      3 C          -0.5474    0.9174    0.5527 C.ar    1  LIG1       -0.0350
      4 C          -1.0111   -0.2680    0.0259 C.ar    1  LIG1        0.0629
      5 N           0.0834   -0.9622   -0.4416 N.ar    1  LIG1       -0.3595
      6 H           0.0334   -1.8001   -0.9977 H       1  LIG1        0.1654
      7 H           2.1851   -0.5926   -0.5508 H       1  LIG1        0.0807
      8 H           1.5347    1.7244    0.6990 H       1  LIG1        0.0633
      9 H          -1.1593    1.6647    1.0359 H       1  LIG1        0.0639
     10 C          -2.3555   -0.8013   -0.0629 C.ar    1  LIG1        0.0634
     11 C          -3.5725   -0.1518   -0.2152 C.ar    1  LIG1       -0.0343
     12 C          -4.5819   -1.1308   -0.2470 C.ar    1  LIG1       -0.0326
     13 C          -3.9653   -2.3615   -0.1181 C.ar    1  LIG1        0.0880
     14 N          -2.6119   -2.1415   -0.0140 N.ar    1  LIG1       -0.3505
     15 H          -1.9579   -2.8790    0.2003 H       1  LIG1        0.1660
     16 H          -3.6960    0.9153   -0.3224 H       1  LIG1        0.0639
     17 H          -5.6442   -0.9807   -0.3653 H       1  LIG1        0.0640
     18 C          -4.4932   -3.6985   -0.0748 C.ar    1  LIG1        0.2194
     19 N          -3.6095   -4.7042    0.0734 N.ar    1  LIG1       -0.1236
     20 C          -5.3952   -6.0937    0.0080 C.ar    1  LIG1        0.2381
     21 N          -5.8240   -3.8747   -0.1802 N.ar    1  LIG1       -0.1236
     22 N          -4.0691   -5.9234    0.1155 N.ar    1  LIG1       -0.1220
     23 N          -6.2817   -5.0941   -0.1383 N.ar    1  LIG1       -0.1220
     24 C          -5.8792   -7.4606    0.0568 C.ar    1  LIG1        0.1751
     25 C          -5.2229   -8.6471    0.1985 C.ar    1  LIG1       -0.0126
     26 C          -6.2254   -9.6575    0.1757 C.ar    1  LIG1       -0.0232
     27 C          -7.4078   -9.0069    0.0221 C.ar    1  LIG1        0.0927
     28 O          -7.2158   -7.6726   -0.0517 O.2     1  LIG1       -0.4597
     29 H          -8.4314   -9.3389   -0.0494 H       1  LIG1        0.1029
     30 H          -4.1560   -8.7658    0.3052 H       1  LIG1        0.0656
     31 H          -6.0848  -10.7242    0.2620 H       1  LIG1        0.0649
@<TRIPOS>BOND
     1     6     5    1
     2     7     1    1
     3     5     1   ar
     4     5     4   ar
     5    17    12    1
     6    16    11    1
     7    12    11   ar
     8    12    13   ar
     9     1     2   ar
    10    11    10   ar
    11    21    23   ar
    12    21    18   ar
    13    23    20   ar
    14    13    18    1
    15    13    14   ar
    16    18    19   ar
    17    10    14   ar
    18    10     4    1
    19    28    27   ar
    20    28    24   ar
    21    29    27    1
    22    14    15    1
    23    20    24    1
    24    20    22   ar
    25    27    26   ar
    26     4     3   ar
    27    24    25   ar
    28    19    22   ar
    29    26    25   ar
    30    26    31    1
    31    25    30    1
    32     2     3   ar
    33     2     8    1
    34     3     9    1
