@<TRIPOS>MOLECULE
mol_data/opt/cam/geoms/mol2/1313-5.out
 25 27 0 0 0
SMALL
GASTEIGER

@<TRIPOS>ATOM
      1 C           1.2726   -0.3195   -0.0003 C.ar    1  LIG1        0.0022
      2 C           0.8808    0.9944    0.0013 C.ar    1  LIG1       -0.0438
      3 C          -0.5370    1.0122    0.0013 C.ar    1  LIG1       -0.0350
      4 C          -0.9747   -0.2972    0.0002 C.ar    1  LIG1        0.0629
      5 N           0.1435   -1.0932   -0.0007 N.ar    1  LIG1       -0.3595
      6 H           0.1279   -2.0990   -0.0019 H       1  LIG1        0.1654
      7 H           2.2550   -0.7656   -0.0010 H       1  LIG1        0.0807
      8 H           1.5375    1.8517    0.0021 H       1  LIG1        0.0633
      9 H          -1.1634    1.8933    0.0023 H       1  LIG1        0.0639
     10 C          -2.3077   -0.8621   -0.0000 C.ar    1  LIG1        0.0633
     11 C          -2.7455   -2.1729    0.0002 C.ar    1  LIG1       -0.0344
     12 C          -4.1578   -2.1550   -0.0002 C.ar    1  LIG1       -0.0353
     13 C          -4.5639   -0.8359   -0.0007 C.ar    1  LIG1        0.0536
     14 N          -3.4235   -0.0672   -0.0006 N.ar    1  LIG1       -0.3526
     15 H          -3.4047    0.9385   -0.0007 H       1  LIG1        0.1660
     16 H          -2.1204   -3.0545    0.0007 H       1  LIG1        0.0639
     17 H          -4.8130   -3.0140   -0.0003 H       1  LIG1        0.0639
     18 C          -5.8859   -0.2436   -0.0012 C.ar    1  LIG1        0.0355
     19 C          -6.2382    1.0802   -0.0031 C.ar    1  LIG1       -0.0455
     20 C          -7.6468    1.2894   -0.0030 C.ar    1  LIG1       -0.0541
     21 C          -8.3508    0.1273   -0.0012 C.ar    1  LIG1       -0.0237
     22 S          -7.3061   -1.2476    0.0007 S.2     1  LIG1       -0.0952
     23 H          -9.4224   -0.0082   -0.0008 H       1  LIG1        0.0693
     24 H          -5.5214    1.8931   -0.0046 H       1  LIG1        0.0629
     25 H          -8.1090    2.2688   -0.0044 H       1  LIG1        0.0623
@<TRIPOS>BOND
     1    24    19    1
     2    25    20    1
     3    19    20   ar
     4    19    18   ar
     5    20    21   ar
     6     6     5    1
     7    18    13    1
     8    18    22   ar
     9    21    23    1
    10    21    22   ar
    11     7     1    1
    12     5     1   ar
    13     5     4   ar
    14    15    14    1
    15    13    14   ar
    16    13    12   ar
    17    14    10   ar
    18     1     2   ar
    19    17    12    1
    20    12    11   ar
    21    10    11   ar
    22    10     4    1
    23    11    16    1
    24     4     3   ar
    25     2     3   ar
    26     2     8    1
    27     3     9    1
