@<TRIPOS>MOLECULE
mol_data/opt/cam/geoms/mol2/131313-8.out
 32 35 0 0 0
SMALL
GASTEIGER

@<TRIPOS>ATOM
      1 C           1.2424   -0.1084    0.0933 C.ar    1  LIG1        0.0022
      2 C           0.7736    1.0582    0.6396 C.ar    1  LIG1       -0.0438
      3 C          -0.6438    0.9941    0.6280 C.ar    1  LIG1       -0.0350
      4 C          -1.0035   -0.2122    0.0703 C.ar    1  LIG1        0.0629
      5 N           0.1610   -0.8822   -0.2377 N.ar    1  LIG1       -0.3595
      6 H           0.2008   -1.7247   -0.7873 H       1  LIG1        0.1654
      7 H           2.2499   -0.4523   -0.0837 H       1  LIG1        0.0807
      8 H           1.3807    1.8658    1.0214 H       1  LIG1        0.0633
      9 H          -1.3334    1.7300    1.0143 H       1  LIG1        0.0639
     10 C          -2.3085   -0.7920   -0.1868 C.ar    1  LIG1        0.0633
     11 C          -3.4899   -0.2154   -0.6000 C.ar    1  LIG1       -0.0343
     12 C          -4.4639   -1.2384   -0.6819 C.ar    1  LIG1       -0.0343
     13 C          -3.8590   -2.4243   -0.3209 C.ar    1  LIG1        0.0634
     14 N          -2.5424   -2.1404   -0.0383 N.ar    1  LIG1       -0.3519
     15 H          -1.9250   -2.7702    0.4489 H       1  LIG1        0.1660
     16 H          -3.6175    0.8261   -0.8542 H       1  LIG1        0.0639
     17 H          -5.4843   -1.1281   -1.0208 H       1  LIG1        0.0639
     18 C          -4.3755   -3.7705   -0.2264 C.ar    1  LIG1        0.0634
     19 C          -3.7205   -4.9981   -0.2556 C.ar    1  LIG1       -0.0343
     20 C          -4.6918   -6.0053   -0.1267 C.ar    1  LIG1       -0.0326
     21 C          -5.9203   -5.3786   -0.0228 C.ar    1  LIG1        0.0880
     22 N          -5.7046   -4.0229   -0.0849 N.ar    1  LIG1       -0.3505
     23 H          -6.4409   -3.3404    0.0146 H       1  LIG1        0.1660
     24 H          -2.6588   -5.1412   -0.3950 H       1  LIG1        0.0639
     25 H          -4.5392   -7.0738   -0.1190 H       1  LIG1        0.0640
     26 C          -7.2488   -5.9054    0.1319 C.ar    1  LIG1        0.2193
     27 N          -8.2569   -5.0166    0.2101 N.ar    1  LIG1       -0.1243
     28 C          -9.6142   -6.8060    0.4045 C.ar    1  LIG1        0.1605
     29 N          -7.4060   -7.2436    0.1912 N.ar    1  LIG1       -0.1243
     30 N          -9.4728   -5.4840    0.3501 N.ar    1  LIG1       -0.1338
     31 N          -8.6223   -7.6983    0.3308 N.ar    1  LIG1       -0.1338
     32 H         -10.6195   -7.1936    0.5194 H       1  LIG1        0.1085
@<TRIPOS>BOND
     1    17    12    1
     2    16    11    1
     3     6     5    1
     4    12    11   ar
     5    12    13   ar
     6    11    10   ar
     7    24    19    1
     8    13    18    1
     9    13    14   ar
    10    19    18   ar
    11    19    20   ar
    12     5     4   ar
    13     5     1   ar
    14    18    22   ar
    15    10    14   ar
    16    10     4    1
    17    20    25    1
    18    20    21   ar
    19    22    21   ar
    20    22    23    1
    21     7     1    1
    22    14    15    1
    23    21    26    1
    24     4     3   ar
    25     1     2   ar
    26    26    29   ar
    27    26    27   ar
    28    29    31   ar
    29    27    30   ar
    30    31    28   ar
    31    30    28   ar
    32    28    32    1
    33     3     2   ar
    34     3     9    1
    35     2     8    1
