@<TRIPOS>MOLECULE
mol_data/opt/cam/geoms/mol2/1313-813.out
 32 35 0 0 0
SMALL
GASTEIGER

@<TRIPOS>ATOM
      1 C           1.2538   -0.2853   -0.0004 C.ar    1  LIG1        0.0022
      2 C           0.8387    1.0226    0.0007 C.ar    1  LIG1       -0.0438
      3 C          -0.5776    1.0155    0.0011 C.ar    1  LIG1       -0.0350
      4 C          -0.9914   -0.3018    0.0001 C.ar    1  LIG1        0.0629
      5 N           0.1408   -1.0792   -0.0008 N.ar    1  LIG1       -0.3595
      6 H           0.1449   -2.0852   -0.0019 H       1  LIG1        0.1654
      7 H           2.2444   -0.7130   -0.0011 H       1  LIG1        0.0807
      8 H           1.4801    1.8911    0.0013 H       1  LIG1        0.0633
      9 H          -1.2214    1.8837    0.0021 H       1  LIG1        0.0639
     10 C          -2.3143   -0.8867   -0.0000 C.ar    1  LIG1        0.0634
     11 C          -2.7237   -2.2156    0.0003 C.ar    1  LIG1       -0.0343
     12 C          -4.1302   -2.2337   -0.0001 C.ar    1  LIG1       -0.0326
     13 C          -4.5555   -0.9190   -0.0005 C.ar    1  LIG1        0.0880
     14 N          -3.4391   -0.1194   -0.0005 N.ar    1  LIG1       -0.3505
     15 H          -3.4869    0.8879   -0.0009 H       1  LIG1        0.1660
     16 H          -2.0760   -3.0806    0.0008 H       1  LIG1        0.0639
     17 H          -4.7788   -3.0962    0.0001 H       1  LIG1        0.0640
     18 C          -5.8731   -0.3382   -0.0010 C.ar    1  LIG1        0.2194
     19 N          -5.9527    1.0066   -0.0014 N.ar    1  LIG1       -0.1237
     20 C          -8.2005    0.7432   -0.0018 C.ar    1  LIG1        0.2194
     21 N          -6.9420   -1.1550   -0.0010 N.ar    1  LIG1       -0.1237
     22 N          -7.1329    1.5592   -0.0018 N.ar    1  LIG1       -0.1237
     23 N          -8.1209   -0.6011   -0.0014 N.ar    1  LIG1       -0.1237
     24 C          -9.5218    1.3247   -0.0022 C.ar    1  LIG1        0.0875
     25 C          -9.9480    2.6387   -0.0027 C.ar    1  LIG1       -0.0333
     26 C         -11.3591    2.6183   -0.0030 C.ar    1  LIG1       -0.0437
     27 C         -11.7522    1.2964   -0.0027 C.ar    1  LIG1        0.0023
     28 N         -10.6352    0.5227   -0.0022 N.ar    1  LIG1       -0.3582
     29 H         -10.5828   -0.4843   -0.0019 H       1  LIG1        0.1654
     30 H         -12.7380    0.8567   -0.0028 H       1  LIG1        0.0807
     31 H          -9.2991    3.5010   -0.0028 H       1  LIG1        0.0640
     32 H         -12.0190    3.4730   -0.0034 H       1  LIG1        0.0633
@<TRIPOS>BOND
     1    32    26    1
     2    26    27   ar
     3    26    25   ar
     4    30    27    1
     5    31    25    1
     6    27    28   ar
     7    25    24   ar
     8    24    28   ar
     9    24    20    1
    10    28    29    1
    11     6     5    1
    12    20    22   ar
    13    20    23   ar
    14    22    19   ar
    15    23    21   ar
    16    19    18   ar
    17     7     1    1
    18    21    18   ar
    19    18    13    1
    20    15    14    1
    21     5     1   ar
    22     5     4   ar
    23    13    14   ar
    24    13    12   ar
    25    14    10   ar
    26     1     2   ar
    27    12    17    1
    28    12    11   ar
    29    10     4    1
    30    10    11   ar
    31     4     3   ar
    32    11    16    1
    33     2     3   ar
    34     2     8    1
    35     3     9    1
