@<TRIPOS>MOLECULE
mol_data/opt/cam/geoms/mol2/131313-.out
 26 28 0 0 0
SMALL
GASTEIGER

@<TRIPOS>ATOM
      1 C           1.2193   -0.1368    0.1734 C.ar    1  LIG1        0.0022
      2 C           0.8065    1.0314   -0.4130 C.ar    1  LIG1       -0.0438
      3 C          -0.6077    0.9759   -0.5231 C.ar    1  LIG1       -0.0350
      4 C          -1.0223   -0.2265    0.0041 C.ar    1  LIG1        0.0629
      5 N           0.1072   -0.9018    0.4126 N.ar    1  LIG1       -0.3595
      6 H           0.0923   -1.7469    0.9594 H       1  LIG1        0.1654
      7 H           2.2056   -0.4879    0.4350 H       1  LIG1        0.0807
      8 H           1.4493    1.8342   -0.7429 H       1  LIG1        0.0633
      9 H          -1.2570    1.7154   -0.9679 H       1  LIG1        0.0639
     10 C          -2.3477   -0.7997    0.1535 C.ar    1  LIG1        0.0633
     11 C          -3.5545   -0.2225    0.4763 C.ar    1  LIG1       -0.0343
     12 C          -4.5357   -1.2461    0.4827 C.ar    1  LIG1       -0.0343
     13 C          -3.9082   -2.4316    0.1647 C.ar    1  LIG1        0.0633
     14 N          -2.5755   -2.1489   -0.0182 N.ar    1  LIG1       -0.3519
     15 H          -1.9286   -2.7843   -0.4572 H       1  LIG1        0.1660
     16 H          -3.6984    0.8186    0.7246 H       1  LIG1        0.0639
     17 H          -5.5776   -1.1373    0.7490 H       1  LIG1        0.0639
     18 C          -4.4170   -3.7804    0.0142 C.ar    1  LIG1        0.0629
     19 C          -3.8134   -5.0088    0.1881 C.ar    1  LIG1       -0.0350
     20 C          -4.7787   -6.0077   -0.1023 C.ar    1  LIG1       -0.0438
     21 C          -5.9418   -5.3661   -0.4425 C.ar    1  LIG1        0.0022
     22 N          -5.7139   -4.0180   -0.3668 N.ar    1  LIG1       -0.3595
     23 H          -6.3636   -3.2957   -0.6296 H       1  LIG1        0.1654
     24 H          -6.9064   -5.7546   -0.7303 H       1  LIG1        0.0807
     25 H          -2.8003   -5.1684    0.5290 H       1  LIG1        0.0639
     26 H          -4.6369   -7.0773   -0.0544 H       1  LIG1        0.0633
@<TRIPOS>BOND
     1     9     3    1
     2     8     2    1
     3    24    21    1
     4    23    22    1
     5     3     2   ar
     6     3     4   ar
     7    15    14    1
     8    21    22   ar
     9    21    20   ar
    10     2     1   ar
    11    22    18   ar
    12    20    26    1
    13    20    19   ar
    14    14    10   ar
    15    14    13   ar
    16     4    10    1
    17     4     5   ar
    18    18    13    1
    19    18    19   ar
    20    10    11   ar
    21    13    12   ar
    22     1     5   ar
    23     1     7    1
    24    19    25    1
    25     5     6    1
    26    11    12   ar
    27    11    16    1
    28    12    17    1
