@<TRIPOS>MOLECULE
mol_data/opt/cam/geoms/mol2/1313-84.out
 34 37 0 0 0
SMALL
GASTEIGER

@<TRIPOS>ATOM
      1 C           1.2696   -0.2576   -0.0007 C.ar    1  LIG1        0.0022
      2 C           0.8439    1.0470    0.0008 C.ar    1  LIG1       -0.0438
      3 C          -0.5720    1.0283    0.0014 C.ar    1  LIG1       -0.0350
      4 C          -0.9750   -0.2924    0.0001 C.ar    1  LIG1        0.0629
      5 N           0.1636   -1.0606   -0.0011 N.ar    1  LIG1       -0.3595
      6 H           0.1762   -2.0665   -0.0025 H       1  LIG1        0.1654
      7 H           2.2637   -0.6770   -0.0015 H       1  LIG1        0.0807
      8 H           1.4783    1.9207    0.0015 H       1  LIG1        0.0633
      9 H          -1.2228    1.8913    0.0027 H       1  LIG1        0.0639
     10 C          -2.2930   -0.8878   -0.0001 C.ar    1  LIG1        0.0634
     11 C          -2.6909   -2.2210   -0.0000 C.ar    1  LIG1       -0.0343
     12 C          -4.0962   -2.2514   -0.0002 C.ar    1  LIG1       -0.0326
     13 C          -4.5333   -0.9401   -0.0004 C.ar    1  LIG1        0.0880
     14 N          -3.4235   -0.1304   -0.0003 N.ar    1  LIG1       -0.3505
     15 H          -3.4798    0.8765   -0.0006 H       1  LIG1        0.1660
     16 H          -2.0356   -3.0802    0.0003 H       1  LIG1        0.0639
     17 H          -4.7378   -3.1192   -0.0002 H       1  LIG1        0.0640
     18 C          -5.8547   -0.3730   -0.0007 C.ar    1  LIG1        0.2194
     19 N          -5.9514    0.9679   -0.0009 N.ar    1  LIG1       -0.1237
     20 C          -8.2036    0.6762   -0.0012 C.ar    1  LIG1        0.2034
     21 N          -6.9157   -1.2030   -0.0008 N.ar    1  LIG1       -0.1237
     22 N          -7.1449    1.4969   -0.0011 N.ar    1  LIG1       -0.1252
     23 N          -8.1007   -0.6651   -0.0011 N.ar    1  LIG1       -0.1252
     24 C          -9.7091    2.6603   -0.0016 C.ar    1  LIG1       -0.0509
     25 C         -10.9794    3.2174   -0.0019 C.ar    1  LIG1       -0.0611
     26 C          -9.5534    1.2718   -0.0015 C.ar    1  LIG1        0.0226
     27 C         -12.1033    2.3979   -0.0020 C.ar    1  LIG1       -0.0617
     28 H         -11.0927    4.2964   -0.0020 H       1  LIG1        0.0618
     29 C         -10.6844    0.4515   -0.0016 C.ar    1  LIG1       -0.0509
     30 C         -11.9519    1.0154   -0.0019 C.ar    1  LIG1       -0.0611
     31 H         -10.5555   -0.6239   -0.0015 H       1  LIG1        0.0625
     32 H         -13.0960    2.8364   -0.0022 H       1  LIG1        0.0618
     33 H          -8.8275    3.2896   -0.0015 H       1  LIG1        0.0625
     34 H         -12.8257    0.3723   -0.0020 H       1  LIG1        0.0618
@<TRIPOS>BOND
     1     6     5    1
     2    32    27    1
     3    27    25   ar
     4    27    30   ar
     5    28    25    1
     6    34    30    1
     7    25    24   ar
     8    30    29   ar
     9    24    33    1
    10    24    26   ar
    11    29    31    1
    12    29    26   ar
    13     7     1    1
    14    26    20    1
    15    20    22   ar
    16    20    23   ar
    17     5     1   ar
    18     5     4   ar
    19    22    19   ar
    20    23    21   ar
    21    19    18   ar
    22    21    18   ar
    23    18    13    1
    24     1     2   ar
    25    15    14    1
    26    13    14   ar
    27    13    12   ar
    28    14    10   ar
    29    12    17    1
    30    12    11   ar
    31    10    11   ar
    32    10     4    1
    33    11    16    1
    34     4     3   ar
    35     2     3   ar
    36     2     8    1
    37     3     9    1
