@<TRIPOS>MOLECULE
mol_data/opt/cam/geoms/mol2/1313-12.out
 25 27 0 0 0
SMALL
GASTEIGER

@<TRIPOS>ATOM
      1 C           1.2419   -0.2850   -0.0005 C.ar    1  LIG1        0.0022
      2 C           0.8339    1.0238    0.0010 C.ar    1  LIG1       -0.0438
      3 C          -0.5842    1.0242    0.0010 C.ar    1  LIG1       -0.0350
      4 C          -1.0056   -0.2905    0.0002 C.ar    1  LIG1        0.0629
      5 N           0.1223   -1.0726   -0.0007 N.ar    1  LIG1       -0.3595
      6 H           0.1187   -2.0785   -0.0018 H       1  LIG1        0.1654
      7 H           2.2297   -0.7190   -0.0012 H       1  LIG1        0.0807
      8 H           1.4799    1.8892    0.0017 H       1  LIG1        0.0633
      9 H          -1.2215    1.8974    0.0020 H       1  LIG1        0.0639
     10 C          -2.3316   -0.8722    0.0000 C.ar    1  LIG1        0.0634
     11 C          -2.7534   -2.1883    0.0003 C.ar    1  LIG1       -0.0343
     12 C          -4.1667   -2.1910    0.0000 C.ar    1  LIG1       -0.0328
     13 C          -4.5837   -0.8772   -0.0005 C.ar    1  LIG1        0.0826
     14 N          -3.4575   -0.0900   -0.0005 N.ar    1  LIG1       -0.3506
     15 H          -3.4533    0.9160   -0.0009 H       1  LIG1        0.1660
     16 H          -2.1162   -3.0613    0.0009 H       1  LIG1        0.0639
     17 H          -4.8200   -3.0499    0.0002 H       1  LIG1        0.0640
     18 C          -5.9121   -0.3158   -0.0011 C.ar    1  LIG1        0.1509
     19 C          -6.4014    0.9575   -0.0019 C.ar    1  LIG1       -0.0144
     20 C          -7.8261    0.8414   -0.0020 C.ar    1  LIG1       -0.0233
     21 C          -8.0958   -0.4847   -0.0014 C.ar    1  LIG1        0.0926
     22 O          -6.9422   -1.2031   -0.0008 O.2     1  LIG1       -0.4615
     23 H          -9.0078   -1.0593   -0.0012 H       1  LIG1        0.1029
     24 H          -5.8271    1.8723   -0.0023 H       1  LIG1        0.0656
     25 H          -8.5475    1.6444   -0.0026 H       1  LIG1        0.0649
@<TRIPOS>BOND
     1    25    20    1
     2    24    19    1
     3    20    19   ar
     4    20    21   ar
     5    19    18   ar
     6     6     5    1
     7    21    23    1
     8    21    22   ar
     9     7     1    1
    10    18    22   ar
    11    18    13    1
    12    15    14    1
    13     5     1   ar
    14     5     4   ar
    15    14    13   ar
    16    14    10   ar
    17     1     2   ar
    18    13    12   ar
    19    10     4    1
    20    10    11   ar
    21    12    17    1
    22    12    11   ar
    23     4     3   ar
    24    11    16    1
    25     2     3   ar
    26     2     8    1
    27     3     9    1
