@<TRIPOS>MOLECULE
mol_data/opt/cam/geoms/mol2/131312-.out
 25 27 0 0 0
SMALL
GASTEIGER

@<TRIPOS>ATOM
      1 C           1.2126   -0.1646   -0.2294 C.ar    1  LIG1        0.0022
      2 C           0.8232    0.9913    0.3960 C.ar    1  LIG1       -0.0438
      3 C          -0.5871    0.9394    0.5472 C.ar    1  LIG1       -0.0350
      4 C          -1.0230   -0.2487    0.0053 C.ar    1  LIG1        0.0629
      5 N           0.0907   -0.9202   -0.4517 N.ar    1  LIG1       -0.3595
      6 H           0.0549   -1.7472   -1.0246 H       1  LIG1        0.1654
      7 H           2.1888   -0.5128   -0.5298 H       1  LIG1        0.0807
      8 H           1.4795    1.7836    0.7249 H       1  LIG1        0.0633
      9 H          -1.2192    1.6708    1.0287 H       1  LIG1        0.0639
     10 C          -2.3550   -0.8123   -0.1155 C.ar    1  LIG1        0.0634
     11 C          -3.5684   -0.2225   -0.3941 C.ar    1  LIG1       -0.0343
     12 C          -4.5558   -1.2365   -0.3841 C.ar    1  LIG1       -0.0328
     13 C          -3.9254   -2.4290   -0.1047 C.ar    1  LIG1        0.0826
     14 N          -2.5831   -2.1622    0.0409 N.ar    1  LIG1       -0.3506
     15 H          -1.9161   -2.8014    0.4418 H       1  LIG1        0.1660
     16 H          -3.7132    0.8243   -0.6157 H       1  LIG1        0.0639
     17 H          -5.6109   -1.1248   -0.5826 H       1  LIG1        0.0640
     18 C          -4.4537   -3.7654    0.0231 C.ar    1  LIG1        0.1509
     19 C          -3.8825   -4.9975    0.1507 C.ar    1  LIG1       -0.0144
     20 C          -4.9592   -5.9336    0.2380 C.ar    1  LIG1       -0.0233
     21 C          -6.0975   -5.2066    0.1536 C.ar    1  LIG1        0.0926
     22 O          -5.8078   -3.8851    0.0247 O.2     1  LIG1       -0.4615
     23 H          -7.1453   -5.4590    0.1686 H       1  LIG1        0.1029
     24 H          -2.8260   -5.2217    0.1644 H       1  LIG1        0.0656
     25 H          -4.8874   -7.0054    0.3450 H       1  LIG1        0.0649
@<TRIPOS>BOND
     1     6     5    1
     2    16    11    1
     3    17    12    1
     4     7     1    1
     5     5     1   ar
     6     5     4   ar
     7    11    12   ar
     8    11    10   ar
     9    12    13   ar
    10     1     2   ar
    11    10     4    1
    12    10    14   ar
    13    13    18    1
    14    13    14   ar
    15     4     3   ar
    16    18    22   ar
    17    18    19   ar
    18    22    21   ar
    19    14    15    1
    20    19    24    1
    21    19    20   ar
    22    21    23    1
    23    21    20   ar
    24    20    25    1
    25     2     3   ar
    26     2     8    1
    27     3     9    1
