@<TRIPOS>MOLECULE
mol_data/opt/cam/geoms/mol2/13131312.out
 33 36 0 0 0
SMALL
GASTEIGER

@<TRIPOS>ATOM
      1 C           1.0137    0.2754   -0.9025 C.ar    1  LIG1        0.0022
      2 C           0.9119    1.0342    0.2342 C.ar    1  LIG1       -0.0438
      3 C          -0.3586    0.7697    0.8100 C.ar    1  LIG1       -0.0350
      4 C          -1.0021   -0.1432    0.0059 C.ar    1  LIG1        0.0629
      5 N          -0.1440   -0.4480   -1.0297 N.ar    1  LIG1       -0.3595
      6 H          -0.4091   -0.9707   -1.8482 H       1  LIG1        0.1654
      7 H           1.8098    0.1865   -1.6256 H       1  LIG1        0.0807
      8 H           1.6719    1.6966    0.6218 H       1  LIG1        0.0633
      9 H          -0.7548    1.1731    1.7301 H       1  LIG1        0.0639
     10 C          -2.3158   -0.7546    0.1159 C.ar    1  LIG1        0.0633
     11 C          -3.5375   -0.2227    0.4652 C.ar    1  LIG1       -0.0343
     12 C          -4.4960   -1.2634    0.4110 C.ar    1  LIG1       -0.0343
     13 C          -3.8472   -2.4148    0.0216 C.ar    1  LIG1        0.0634
     14 N          -2.5200   -2.0900   -0.1531 N.ar    1  LIG1       -0.3519
     15 H          -1.7996   -2.7354   -0.4329 H       1  LIG1        0.1660
     16 H          -3.7128    0.8127    0.7167 H       1  LIG1        0.0639
     17 H          -5.5479   -1.1937    0.6453 H       1  LIG1        0.0639
     18 C          -4.3427   -3.7614   -0.1935 C.ar    1  LIG1        0.0634
     19 C          -5.5274   -4.2122   -0.7378 C.ar    1  LIG1       -0.0343
     20 C          -5.5064   -5.6260   -0.7131 C.ar    1  LIG1       -0.0328
     21 C          -4.3051   -6.0134   -0.1576 C.ar    1  LIG1        0.0826
     22 N          -3.6035   -4.8713    0.1432 N.ar    1  LIG1       -0.3506
     23 H          -2.7550   -4.8713    0.6865 H       1  LIG1        0.1660
     24 H          -6.3061   -3.5807   -1.1387 H       1  LIG1        0.0639
     25 H          -6.2753   -6.2921   -1.0762 H       1  LIG1        0.0640
     26 C          -3.7492   -7.3149    0.1241 C.ar    1  LIG1        0.1509
     27 C          -4.1867   -8.5934   -0.0438 C.ar    1  LIG1       -0.0144
     28 C          -3.1495   -9.4424    0.4533 C.ar    1  LIG1       -0.0233
     29 C          -2.1614   -8.6261    0.8864 C.ar    1  LIG1        0.0926
     30 O          -2.5086   -7.3233    0.6933 O.2     1  LIG1       -0.4615
     31 H          -1.1958   -8.7953    1.3343 H       1  LIG1        0.1029
     32 H          -5.1325   -8.8935   -0.4680 H       1  LIG1        0.0656
     33 H          -3.1474  -10.5217    0.4819 H       1  LIG1        0.0649
@<TRIPOS>BOND
     1     6     5    1
     2     7     1    1
     3    24    19    1
     4    25    20    1
     5     5     1   ar
     6     5     4   ar
     7     1     2   ar
     8    19    20   ar
     9    19    18   ar
    10    20    21   ar
    11    32    27    1
    12    15    14    1
    13    18    13    1
    14    18    22   ar
    15    21    26    1
    16    21    22   ar
    17    14    13   ar
    18    14    10   ar
    19    27    26   ar
    20    27    28   ar
    21     4    10    1
    22     4     3   ar
    23    13    12   ar
    24    10    11   ar
    25    26    30   ar
    26    22    23    1
    27     2     8    1
    28     2     3   ar
    29    12    11   ar
    30    12    17    1
    31    28    33    1
    32    28    29   ar
    33    11    16    1
    34    30    29   ar
    35     3     9    1
    36    29    31    1
