@<TRIPOS>MOLECULE
mol_data/opt/cam/geoms/mol2/1313128-.out
 31 34 0 0 0
SMALL
GASTEIGER

@<TRIPOS>ATOM
      1 C           1.1844   -0.0343   -0.3406 C.ar    1  LIG1        0.0022
      2 C           0.8078    1.0886    0.3505 C.ar    1  LIG1       -0.0438
      3 C          -0.5896    1.0004    0.5751 C.ar    1  LIG1       -0.0350
      4 C          -1.0307   -0.1765    0.0116 C.ar    1  LIG1        0.0629
      5 N           0.0682   -0.8042   -0.5332 N.ar    1  LIG1       -0.3595
      6 H           0.0265   -1.6188   -1.1236 H       1  LIG1        0.1654
      7 H           2.1490   -0.3493   -0.7076 H       1  LIG1        0.0807
      8 H           1.4654    1.8820    0.6736 H       1  LIG1        0.0633
      9 H          -1.2080    1.6994    1.1187 H       1  LIG1        0.0639
     10 C          -2.3571   -0.7584   -0.0502 C.ar    1  LIG1        0.0634
     11 C          -3.6004   -0.1608   -0.1492 C.ar    1  LIG1       -0.0343
     12 C          -4.5713   -1.1836   -0.1695 C.ar    1  LIG1       -0.0328
     13 C          -3.9040   -2.3903   -0.0880 C.ar    1  LIG1        0.0826
     14 N          -2.5584   -2.1138   -0.0241 N.ar    1  LIG1       -0.3506
     15 H          -1.8562   -2.8126    0.1641 H       1  LIG1        0.1660
     16 H          -3.7735    0.9018   -0.2300 H       1  LIG1        0.0639
     17 H          -5.6411   -1.0604   -0.2540 H       1  LIG1        0.0640
     18 C          -4.3735   -3.7471   -0.0620 C.ar    1  LIG1        0.1519
     19 C          -5.6133   -4.3330   -0.0827 C.ar    1  LIG1       -0.0137
     20 C          -5.3934   -5.7300   -0.0290 C.ar    1  LIG1       -0.0120
     21 C          -4.0407   -5.9118    0.0219 C.ar    1  LIG1        0.1760
     22 O          -3.4123   -4.7008    0.0015 O.2     1  LIG1       -0.4501
     23 H          -6.5609   -3.8191   -0.1286 H       1  LIG1        0.0656
     24 H          -6.1290   -6.5196   -0.0268 H       1  LIG1        0.0657
     25 C          -3.2250   -7.0980    0.0869 C.ar    1  LIG1        0.2381
     26 N          -1.8883   -6.9620    0.1184 N.ar    1  LIG1       -0.1226
     27 C          -1.8313   -9.2200    0.2032 C.ar    1  LIG1        0.1605
     28 N          -3.8793   -8.2761    0.1100 N.ar    1  LIG1       -0.1226
     29 N          -1.1760   -8.0623    0.1786 N.ar    1  LIG1       -0.1338
     30 N          -3.1589   -9.3636    0.1698 N.ar    1  LIG1       -0.1338
     31 H          -1.2381  -10.1255    0.2538 H       1  LIG1        0.1085
@<TRIPOS>BOND
     1     6     5    1
     2     7     1    1
     3     5     1   ar
     4     5     4   ar
     5     1     2   ar
     6    17    12    1
     7    16    11    1
     8    12    11   ar
     9    12    13   ar
    10    11    10   ar
    11    23    19    1
    12    13    18    1
    13    13    14   ar
    14    19    18   ar
    15    19    20   ar
    16    18    22   ar
    17    10    14   ar
    18    10     4    1
    19    20    24    1
    20    20    21   ar
    21    14    15    1
    22    22    21   ar
    23     4     3   ar
    24    21    25    1
    25    25    28   ar
    26    25    26   ar
    27    28    30   ar
    28    26    29   ar
    29    30    27   ar
    30    29    27   ar
    31    27    31    1
    32     2     3   ar
    33     2     8    1
    34     3     9    1
