@<TRIPOS>MOLECULE
mol_data/opt/cam/geoms/mol2/13134.out
 28 30 0 0 0
SMALL
GASTEIGER

@<TRIPOS>ATOM
      1 C           1.1654   -0.0269   -0.6008 C.ar    1  LIG1        0.0022
      2 C           0.8910    1.0035    0.2601 C.ar    1  LIG1       -0.0438
      3 C          -0.4728    0.8908    0.6378 C.ar    1  LIG1       -0.0350
      4 C          -0.9974   -0.2063   -0.0068 C.ar    1  LIG1        0.0629
      5 N           0.0205   -0.7666   -0.7489 N.ar    1  LIG1       -0.3595
      6 H          -0.1133   -1.4890   -1.4372 H       1  LIG1        0.1654
      7 H           2.0751   -0.2972   -1.1147 H       1  LIG1        0.0807
      8 H           1.5953    1.7499    0.5971 H       1  LIG1        0.0633
      9 H          -1.0119    1.5189    1.3315 H       1  LIG1        0.0639
     10 C          -2.3333   -0.7767    0.0117 C.ar    1  LIG1        0.0633
     11 C          -3.5748   -0.1782    0.0057 C.ar    1  LIG1       -0.0344
     12 C          -4.5472   -1.2053    0.0160 C.ar    1  LIG1       -0.0358
     13 C          -3.8880   -2.4173    0.0281 C.ar    1  LIG1        0.0469
     14 N          -2.5415   -2.1360    0.0239 N.ar    1  LIG1       -0.3530
     15 H          -1.8100   -2.8252    0.0802 H       1  LIG1        0.1659
     16 H          -3.7503    0.8868   -0.0264 H       1  LIG1        0.0639
     17 H          -5.6196   -1.0769    0.0340 H       1  LIG1        0.0639
     18 C          -5.6648   -4.0782   -0.4679 C.ar    1  LIG1       -0.0526
     19 C          -6.1663   -5.3708   -0.4394 C.ar    1  LIG1       -0.0611
     20 C          -4.4005   -3.7875    0.0579 C.ar    1  LIG1       -0.0017
     21 C          -5.4117   -6.4068    0.1017 C.ar    1  LIG1       -0.0617
     22 H          -7.1489   -5.5734   -0.8536 H       1  LIG1        0.0618
     23 C          -3.6559   -4.8365    0.6088 C.ar    1  LIG1       -0.0526
     24 C          -4.1535   -6.1328    0.6238 C.ar    1  LIG1       -0.0611
     25 H          -2.6891   -4.6363    1.0615 H       1  LIG1        0.0624
     26 H          -5.8024   -7.4188    0.1175 H       1  LIG1        0.0618
     27 H          -6.2465   -3.2807   -0.9176 H       1  LIG1        0.0624
     28 H          -3.5590   -6.9302    1.0583 H       1  LIG1        0.0618
@<TRIPOS>BOND
     1     6     5    1
     2     7     1    1
     3    27    18    1
     4    22    19    1
     5     5     1   ar
     6     5     4   ar
     7     1     2   ar
     8    18    19   ar
     9    18    20   ar
    10    19    21   ar
    11    16    11    1
    12     4    10    1
    13     4     3   ar
    14    11    10   ar
    15    11    12   ar
    16    10    14   ar
    17    12    13   ar
    18    12    17    1
    19    14    13   ar
    20    14    15    1
    21    13    20    1
    22    20    23   ar
    23    21    26    1
    24    21    24   ar
    25     2     8    1
    26     2     3   ar
    27    23    24   ar
    28    23    25    1
    29    24    28    1
    30     3     9    1
