@<TRIPOS>MOLECULE
mol_data/opt/cam/geoms/mol2/134-12-.out
 27 29 0 0 0
SMALL
GASTEIGER

@<TRIPOS>ATOM
      1 C           1.2851   -0.2568    0.0002 C.ar    1  LIG1        0.0022
      2 C           0.8763    1.0531    0.0017 C.ar    1  LIG1       -0.0438
      3 C          -0.5390    1.0499    0.0009 C.ar    1  LIG1       -0.0364
      4 C          -0.9659   -0.2642   -0.0002 C.ar    1  LIG1        0.0465
      5 N           0.1682   -1.0438   -0.0006 N.ar    1  LIG1       -0.3607
      6 H           0.1791   -2.0489   -0.0017 H       1  LIG1        0.1653
      7 H           2.2734   -0.6903   -0.0002 H       1  LIG1        0.0807
      8 H           1.5217    1.9189    0.0029 H       1  LIG1        0.0633
      9 H          -1.1778    1.9205    0.0016 H       1  LIG1        0.0639
     10 C          -2.5485   -2.2099   -0.0013 C.ar    1  LIG1       -0.0520
     11 C          -3.8335   -2.7246   -0.0020 C.ar    1  LIG1       -0.0505
     12 C          -2.3145   -0.8293   -0.0010 C.ar    1  LIG1       -0.0017
     13 C          -4.9453   -1.8791   -0.0025 C.ar    1  LIG1        0.0173
     14 H          -3.9728   -3.8006   -0.0023 H       1  LIG1        0.0625
     15 C          -3.4350    0.0110   -0.0014 C.ar    1  LIG1       -0.0520
     16 C          -4.7205   -0.4986   -0.0022 C.ar    1  LIG1       -0.0505
     17 H          -3.2956    1.0862   -0.0013 H       1  LIG1        0.0624
     18 H          -1.7201   -2.9116   -0.0008 H       1  LIG1        0.0624
     19 H          -5.5686    0.1759   -0.0025 H       1  LIG1        0.0625
     20 C          -6.2983   -2.4219   -0.0033 C.ar    1  LIG1        0.1348
     21 C          -6.8053   -3.6876   -0.0036 C.ar    1  LIG1       -0.0159
     22 C          -8.2273   -3.5595   -0.0044 C.ar    1  LIG1       -0.0233
     23 C          -8.4833   -2.2297   -0.0045 C.ar    1  LIG1        0.0926
     24 O          -7.3249   -1.5253   -0.0039 O.2     1  LIG1       -0.4629
     25 H          -9.3903   -1.6468   -0.0050 H       1  LIG1        0.1029
     26 H          -6.2383   -4.6060   -0.0032 H       1  LIG1        0.0655
     27 H          -8.9571   -4.3550   -0.0049 H       1  LIG1        0.0649
@<TRIPOS>BOND
     1    25    23    1
     2    27    22    1
     3    23    22   ar
     4    23    24   ar
     5    22    21   ar
     6    24    20   ar
     7    21    20   ar
     8    21    26    1
     9    20    13    1
    10    19    16    1
    11    13    16   ar
    12    13    11   ar
    13    14    11    1
    14    16    15   ar
    15    11    10   ar
    16     6     5    1
    17    15    17    1
    18    15    12   ar
    19    10    12   ar
    20    10    18    1
    21    12     4    1
    22     5     4   ar
    23     5     1   ar
    24     4     3   ar
    25     7     1    1
    26     1     2   ar
    27     3     9    1
    28     3     2   ar
    29     2     8    1
