@<TRIPOS>MOLECULE
mol_data/opt/cam/geoms/mol2/134-8-.out
 26 28 0 0 0
SMALL
GASTEIGER

@<TRIPOS>ATOM
      1 C           1.2703   -0.2456    0.0004 C.ar    1  LIG1        0.0022
      2 C           0.8533    1.0630    0.0014 C.ar    1  LIG1       -0.0438
      3 C          -0.5600    1.0505    0.0010 C.ar    1  LIG1       -0.0364
      4 C          -0.9784   -0.2675   -0.0002 C.ar    1  LIG1        0.0465
      5 N           0.1614   -1.0399   -0.0005 N.ar    1  LIG1       -0.3607
      6 H           0.1804   -2.0451   -0.0015 H       1  LIG1        0.1653
      7 H           2.2620   -0.6715    0.0003 H       1  LIG1        0.0807
      8 H           1.4934    1.9326    0.0023 H       1  LIG1        0.0633
      9 H          -1.2041    1.9170    0.0015 H       1  LIG1        0.0639
     10 C          -2.5442   -2.2223   -0.0013 C.ar    1  LIG1       -0.0520
     11 C          -3.8248   -2.7454   -0.0020 C.ar    1  LIG1       -0.0503
     12 C          -2.3211   -0.8385   -0.0010 C.ar    1  LIG1       -0.0017
     13 C          -4.9346   -1.8983   -0.0025 C.ar    1  LIG1        0.0227
     14 H          -3.9786   -3.8176   -0.0022 H       1  LIG1        0.0625
     15 C          -3.4453    0.0007   -0.0014 C.ar    1  LIG1       -0.0520
     16 C          -4.7263   -0.5153   -0.0022 C.ar    1  LIG1       -0.0503
     17 H          -3.3096    1.0759   -0.0013 H       1  LIG1        0.0624
     18 H          -1.7105   -2.9170   -0.0008 H       1  LIG1        0.0624
     19 H          -5.5834    0.1472   -0.0025 H       1  LIG1        0.0625
     20 C          -6.2965   -2.4511   -0.0033 C.ar    1  LIG1        0.2033
     21 N          -6.4372   -3.7876   -0.0035 N.ar    1  LIG1       -0.1258
     22 C          -8.6610   -3.4115   -0.0047 C.ar    1  LIG1        0.1605
     23 N          -7.3291   -1.5912   -0.0037 N.ar    1  LIG1       -0.1258
     24 N          -7.6508   -4.2796   -0.0043 N.ar    1  LIG1       -0.1339
     25 N          -8.5420   -2.0850   -0.0045 N.ar    1  LIG1       -0.1339
     26 H          -9.6653   -3.8194   -0.0052 H       1  LIG1        0.1085
@<TRIPOS>BOND
     1    26    22    1
     2    22    25   ar
     3    22    24   ar
     4    25    23   ar
     5    24    21   ar
     6    23    20   ar
     7    21    20   ar
     8    20    13    1
     9    19    16    1
    10    13    16   ar
    11    13    11   ar
    12    14    11    1
    13    16    15   ar
    14    11    10   ar
    15     6     5    1
    16    15    17    1
    17    15    12   ar
    18    10    12   ar
    19    10    18    1
    20    12     4    1
    21     5     4   ar
    22     5     1   ar
    23     4     3   ar
    24     7     1    1
    25     1     2   ar
    26     3     2   ar
    27     3     9    1
    28     2     8    1
