@<TRIPOS>MOLECULE
mol_data/opt/cam/geoms/mol2/134-412-.out
 37 40 0 0 0
SMALL
GASTEIGER

@<TRIPOS>ATOM
      1 C           1.3146   -0.0491   -0.4959 C.ar    1  LIG1        0.0022
      2 C           1.0233    0.9804    0.3630 C.ar    1  LIG1       -0.0438
      3 C          -0.3503    0.8747    0.6963 C.ar    1  LIG1       -0.0364
      4 C          -0.8642   -0.2210    0.0345 C.ar    1  LIG1        0.0465
      5 N           0.1715   -0.7775   -0.6794 N.ar    1  LIG1       -0.3607
      6 H           0.0676   -1.5359   -1.3326 H       1  LIG1        0.1653
      7 H           2.2352   -0.3199   -0.9898 H       1  LIG1        0.0807
      8 H           1.7212    1.7230    0.7206 H       1  LIG1        0.0633
      9 H          -0.8995    1.5075    1.3781 H       1  LIG1        0.0639
     10 C          -2.4313   -2.1518   -0.2162 C.ar    1  LIG1       -0.0521
     11 C          -3.7137   -2.6783   -0.2277 C.ar    1  LIG1       -0.0534
     12 C          -2.2107   -0.7922    0.0269 C.ar    1  LIG1       -0.0017
     13 C          -4.8286   -1.8728    0.0181 C.ar    1  LIG1       -0.0178
     14 H          -3.8536   -3.7328   -0.4424 H       1  LIG1        0.0624
     15 C          -3.3268    0.0158    0.2693 C.ar    1  LIG1       -0.0521
     16 C          -4.6054   -0.5153    0.2722 C.ar    1  LIG1       -0.0534
     17 H          -3.1842    1.0762    0.4485 H       1  LIG1        0.0624
     18 H          -1.5878   -2.8165   -0.3779 H       1  LIG1        0.0624
     19 H          -5.4492    0.1324    0.4867 H       1  LIG1        0.0624
     20 C          -7.2752   -1.7114   -0.5082 C.ar    1  LIG1       -0.0534
     21 C          -8.5581   -2.2346   -0.5161 C.ar    1  LIG1       -0.0505
     22 C          -6.1983   -2.4359    0.0108 C.ar    1  LIG1       -0.0178
     23 C          -8.8108   -3.5097   -0.0029 C.ar    1  LIG1        0.0173
     24 H          -9.3768   -1.6584   -0.9309 H       1  LIG1        0.0625
     25 C          -6.4584   -3.7113    0.5237 C.ar    1  LIG1       -0.0534
     26 C          -7.7378   -4.2397    0.5175 C.ar    1  LIG1       -0.0505
     27 H          -5.6478   -4.2877    0.9573 H       1  LIG1        0.0624
     28 H          -7.1008   -0.7292   -0.9350 H       1  LIG1        0.0624
     29 H          -7.9073   -5.2279    0.9319 H       1  LIG1        0.0625
     30 C         -10.1586   -4.0669   -0.0083 C.ar    1  LIG1        0.1348
     31 C         -10.6884   -5.2531    0.4050 C.ar    1  LIG1       -0.0159
     32 C         -12.0875   -5.1963    0.1275 C.ar    1  LIG1       -0.0233
     33 C         -12.3086   -3.9836   -0.4334 C.ar    1  LIG1        0.0926
     34 O         -11.1500   -3.2859   -0.5233 O.2     1  LIG1       -0.4629
     35 H         -13.1894   -3.4862   -0.8066 H       1  LIG1        0.1029
     36 H         -10.1507   -6.0741    0.8543 H       1  LIG1        0.0655
     37 H         -12.8260   -5.9595    0.3216 H       1  LIG1        0.0649
@<TRIPOS>BOND
     1     6     5    1
     2     7     1    1
     3    28    20    1
     4    24    21    1
     5    35    33    1
     6     5     1   ar
     7     5     4   ar
     8    34    33   ar
     9    34    30   ar
    10    21    20   ar
    11    21    23   ar
    12    20    22   ar
    13     1     2   ar
    14    14    11    1
    15    33    32   ar
    16    18    10    1
    17    11    10   ar
    18    11    13   ar
    19    10    12   ar
    20    30    23    1
    21    30    31   ar
    22    23    26   ar
    23    22    13    1
    24    22    25   ar
    25    13    16   ar
    26    12     4    1
    27    12    15   ar
    28     4     3   ar
    29    32    37    1
    30    32    31   ar
    31    15    16   ar
    32    15    17    1
    33    16    19    1
    34     2     3   ar
    35     2     8    1
    36    31    36    1
    37    26    25   ar
    38    26    29    1
    39    25    27    1
    40     3     9    1
