@<TRIPOS>MOLECULE
mol_data/opt/cam/geoms/mol2/134-128.out
 33 36 0 0 0
SMALL
GASTEIGER

@<TRIPOS>ATOM
      1 C           1.3248   -0.0781    0.0005 C.ar    1  LIG1        0.0022
      2 C           0.8678    1.2164    0.0017 C.ar    1  LIG1       -0.0438
      3 C          -0.5454    1.1606    0.0014 C.ar    1  LIG1       -0.0364
      4 C          -0.9230   -0.1691   -0.0001 C.ar    1  LIG1        0.0465
      5 N           0.2394   -0.9061   -0.0006 N.ar    1  LIG1       -0.3607
      6 H           0.2885   -1.9102   -0.0018 H       1  LIG1        0.1653
      7 H           2.3288   -0.4739    0.0002 H       1  LIG1        0.0807
      8 H           1.4807    2.1054    0.0027 H       1  LIG1        0.0633
      9 H          -1.2159    2.0071    0.0022 H       1  LIG1        0.0639
     10 C          -2.4315   -2.1709   -0.0015 C.ar    1  LIG1       -0.0520
     11 C          -3.6959   -2.7345   -0.0024 C.ar    1  LIG1       -0.0505
     12 C          -2.2483   -0.7828   -0.0009 C.ar    1  LIG1       -0.0017
     13 C          -4.8346   -1.9256   -0.0026 C.ar    1  LIG1        0.0173
     14 H          -3.8093   -3.8124   -0.0028 H       1  LIG1        0.0625
     15 C          -3.3985    0.0197   -0.0012 C.ar    1  LIG1       -0.0520
     16 C          -4.6622   -0.5370   -0.0020 C.ar    1  LIG1       -0.0505
     17 H          -3.2973    1.0988   -0.0008 H       1  LIG1        0.0624
     18 H          -1.5777   -2.8410   -0.0013 H       1  LIG1        0.0624
     19 H          -5.5286    0.1162   -0.0022 H       1  LIG1        0.0625
     20 C          -6.1660   -2.5128   -0.0035 C.ar    1  LIG1        0.1358
     21 C          -7.4308   -1.9835   -0.0040 C.ar    1  LIG1       -0.0151
     22 C          -8.3280   -3.0786   -0.0048 C.ar    1  LIG1       -0.0120
     23 C          -7.5556   -4.2043   -0.0048 C.ar    1  LIG1        0.1760
     24 O          -6.2402   -3.8650   -0.0040 O.2     1  LIG1       -0.4516
     25 H          -7.6877   -0.9356   -0.0038 H       1  LIG1        0.0656
     26 H          -9.4069   -3.0587   -0.0054 H       1  LIG1        0.0657
     27 C          -7.9008   -5.6074   -0.0054 C.ar    1  LIG1        0.2381
     28 N          -9.2156   -5.8977   -0.0062 N.ar    1  LIG1       -0.1226
     29 C          -8.5668   -8.0585   -0.0065 C.ar    1  LIG1        0.1605
     30 N          -6.9134   -6.5174   -0.0052 N.ar    1  LIG1       -0.1226
     31 N          -9.5540   -7.1598   -0.0067 N.ar    1  LIG1       -0.1338
     32 N          -7.2651   -7.7814   -0.0058 N.ar    1  LIG1       -0.1338
     33 H          -8.8513   -9.1043   -0.0070 H       1  LIG1        0.1085
@<TRIPOS>BOND
     1    33    29    1
     2    31    29   ar
     3    31    28   ar
     4    29    32   ar
     5    28    27   ar
     6    32    30   ar
     7    27    30   ar
     8    27    23    1
     9    26    22    1
    10    22    23   ar
    11    22    21   ar
    12    23    24   ar
    13    21    25    1
    14    21    20   ar
    15    24    20   ar
    16    20    13    1
    17    14    11    1
    18    13    11   ar
    19    13    16   ar
    20    11    10   ar
    21    19    16    1
    22    16    15   ar
    23     6     5    1
    24    10    18    1
    25    10    12   ar
    26    15    12   ar
    27    15    17    1
    28    12     4    1
    29     5     4   ar
    30     5     1   ar
    31     4     3   ar
    32     7     1    1
    33     1     2   ar
    34     3     2   ar
    35     3     9    1
    36     2     8    1
