@<TRIPOS>MOLECULE
mol_data/opt/cam/geoms/mol2/134-13-5.out
 35 38 0 0 0
SMALL
GASTEIGER

@<TRIPOS>ATOM
      1 C           1.4027   -0.2883    0.0005 C.ar    1  LIG1        0.0022
      2 C           1.0087    1.0261    0.0025 C.ar    1  LIG1       -0.0438
      3 C          -0.4066    1.0390    0.0020 C.ar    1  LIG1       -0.0364
      4 C          -0.8482   -0.2702    0.0002 C.ar    1  LIG1        0.0465
      5 N           0.2768   -1.0625   -0.0006 N.ar    1  LIG1       -0.3607
      6 H           0.2762   -2.0677   -0.0022 H       1  LIG1        0.1653
      7 H           2.3860   -0.7331   -0.0001 H       1  LIG1        0.0807
      8 H           1.6640    1.8845    0.0040 H       1  LIG1        0.0633
      9 H          -1.0353    1.9170    0.0031 H       1  LIG1        0.0639
     10 C          -2.4553   -2.1980   -0.0019 C.ar    1  LIG1       -0.0520
     11 C          -3.7450   -2.6984   -0.0029 C.ar    1  LIG1       -0.0520
     12 C          -2.2025   -0.8208   -0.0008 C.ar    1  LIG1       -0.0017
     13 C          -4.8570   -1.8490   -0.0027 C.ar    1  LIG1       -0.0017
     14 H          -3.8918   -3.7727   -0.0038 H       1  LIG1        0.0624
     15 C          -3.3147    0.0282   -0.0006 C.ar    1  LIG1       -0.0520
     16 C          -4.6045   -0.4717   -0.0015 C.ar    1  LIG1       -0.0520
     17 H          -3.1675    1.1024    0.0003 H       1  LIG1        0.0624
     18 H          -1.6358   -2.9101   -0.0021 H       1  LIG1        0.0624
     19 H          -5.4239    0.2407   -0.0011 H       1  LIG1        0.0624
     20 C          -6.2100   -2.3993   -0.0037 C.ar    1  LIG1        0.0469
     21 C          -6.6511   -3.7105   -0.0035 C.ar    1  LIG1       -0.0358
     22 C          -8.0603   -3.6980   -0.0047 C.ar    1  LIG1       -0.0353
     23 C          -8.4693   -2.3782   -0.0056 C.ar    1  LIG1        0.0536
     24 N          -7.3332   -1.6084   -0.0050 N.ar    1  LIG1       -0.3537
     25 H          -7.3301   -0.6032   -0.0051 H       1  LIG1        0.1659
     26 H          -6.0233   -4.5887   -0.0026 H       1  LIG1        0.0639
     27 H          -8.7137   -4.5585   -0.0050 H       1  LIG1        0.0639
     28 C          -9.7933   -1.7898   -0.0071 C.ar    1  LIG1        0.0355
     29 C         -10.1510   -0.4673   -0.0107 C.ar    1  LIG1       -0.0455
     30 C         -11.5601   -0.2636   -0.0111 C.ar    1  LIG1       -0.0541
     31 C         -12.2591   -1.4290   -0.0080 C.ar    1  LIG1       -0.0237
     32 S         -11.2094   -2.7994   -0.0041 S.2     1  LIG1       -0.0952
     33 H         -13.3301   -1.5687   -0.0077 H       1  LIG1        0.0693
     34 H          -9.4378    0.3489   -0.0132 H       1  LIG1        0.0629
     35 H         -12.0264    0.7138   -0.0138 H       1  LIG1        0.0623
@<TRIPOS>BOND
     1    35    30    1
     2    34    29    1
     3    30    29   ar
     4    30    31   ar
     5    29    28   ar
     6    31    33    1
     7    31    32   ar
     8    28    23    1
     9    28    32   ar
    10    23    24   ar
    11    23    22   ar
    12    25    24    1
    13    27    22    1
    14    24    20   ar
    15    22    21   ar
    16    14    11    1
    17    20    21   ar
    18    20    13    1
    19    21    26    1
    20    11    13   ar
    21    11    10   ar
    22    13    16   ar
    23     6     5    1
    24    18    10    1
    25    10    12   ar
    26    16    19    1
    27    16    15   ar
    28    12    15   ar
    29    12     4    1
    30     5     4   ar
    31     5     1   ar
    32    15    17    1
    33     7     1    1
    34     4     3   ar
    35     1     2   ar
    36     3     2   ar
    37     3     9    1
    38     2     8    1
