@<TRIPOS>MOLECULE
mol_data/opt/cam/geoms/mol2/134-8-13-.out
 34 37 0 0 0
SMALL
GASTEIGER

@<TRIPOS>ATOM
      1 C           1.3174   -0.2023    0.0010 C.ar    1  LIG1        0.0022
      2 C           0.8926    1.1035    0.0019 C.ar    1  LIG1       -0.0438
      3 C          -0.5212    1.0826    0.0014 C.ar    1  LIG1       -0.0364
      4 C          -0.9318   -0.2376    0.0001 C.ar    1  LIG1        0.0465
      5 N           0.2124   -1.0031   -0.0001 N.ar    1  LIG1       -0.3607
      6 H           0.2366   -2.0081   -0.0011 H       1  LIG1        0.1653
      7 H           2.3114   -0.6227    0.0010 H       1  LIG1        0.0807
      8 H           1.5274    1.9769    0.0029 H       1  LIG1        0.0633
      9 H          -1.1706    1.9452    0.0019 H       1  LIG1        0.0639
     10 C          -2.4863   -2.2023   -0.0013 C.ar    1  LIG1       -0.0520
     11 C          -3.7639   -2.7341   -0.0023 C.ar    1  LIG1       -0.0503
     12 C          -2.2716   -0.8177   -0.0009 C.ar    1  LIG1       -0.0017
     13 C          -4.8798   -1.8954   -0.0029 C.ar    1  LIG1        0.0227
     14 H          -3.9104   -3.8073   -0.0026 H       1  LIG1        0.0625
     15 C          -3.4013    0.0132   -0.0016 C.ar    1  LIG1       -0.0520
     16 C          -4.6792   -0.5114   -0.0025 C.ar    1  LIG1       -0.0503
     17 H          -3.2729    1.0894   -0.0013 H       1  LIG1        0.0624
     18 H          -1.6484   -2.8920   -0.0008 H       1  LIG1        0.0624
     19 H          -5.5402    0.1460   -0.0030 H       1  LIG1        0.0625
     20 C          -6.2387   -2.4575   -0.0039 C.ar    1  LIG1        0.2034
     21 N          -6.3729   -3.7966   -0.0043 N.ar    1  LIG1       -0.1252
     22 C          -8.6113   -3.4527   -0.0057 C.ar    1  LIG1        0.2194
     23 N          -7.2793   -1.6121   -0.0045 N.ar    1  LIG1       -0.1252
     24 N          -7.5709   -4.3062   -0.0052 N.ar    1  LIG1       -0.1237
     25 N          -8.4838   -2.1156   -0.0054 N.ar    1  LIG1       -0.1237
     26 C          -9.9494   -3.9904   -0.0067 C.ar    1  LIG1        0.0875
     27 C         -10.4168   -5.2907   -0.0072 C.ar    1  LIG1       -0.0333
     28 C         -11.8259   -5.2260   -0.0082 C.ar    1  LIG1       -0.0437
     29 C         -12.1771   -3.8917   -0.0082 C.ar    1  LIG1        0.0023
     30 N         -11.0372   -3.1535   -0.0073 N.ar    1  LIG1       -0.3582
     31 H         -10.9537   -2.1486   -0.0071 H       1  LIG1        0.1654
     32 H         -13.1488   -3.4218   -0.0088 H       1  LIG1        0.0807
     33 H          -9.7949   -6.1728   -0.0070 H       1  LIG1        0.0640
     34 H         -12.5126   -6.0593   -0.0089 H       1  LIG1        0.0633
@<TRIPOS>BOND
     1    34    28    1
     2    32    29    1
     3    28    29   ar
     4    28    27   ar
     5    29    30   ar
     6    30    31    1
     7    30    26   ar
     8    27    33    1
     9    27    26   ar
    10    26    22    1
    11    22    25   ar
    12    22    24   ar
    13    25    23   ar
    14    24    21   ar
    15    23    20   ar
    16    21    20   ar
    17    20    13    1
    18    19    16    1
    19    13    16   ar
    20    13    11   ar
    21    14    11    1
    22    16    15   ar
    23    11    10   ar
    24    15    17    1
    25    15    12   ar
    26    10    12   ar
    27    10    18    1
    28     6     5    1
    29    12     4    1
    30     5     4   ar
    31     5     1   ar
    32     4     3   ar
    33     1     7    1
    34     1     2   ar
    35     3     9    1
    36     3     2   ar
    37     2     8    1
