@<TRIPOS>MOLECULE
mol_data/opt/cam/geoms/mol2/134-13-.out
 28 30 0 0 0
SMALL
GASTEIGER

@<TRIPOS>ATOM
      1 C           1.2622   -0.1849   -0.3519 C.ar    1  LIG1        0.0022
      2 C           0.9207    0.9940    0.2610 C.ar    1  LIG1       -0.0438
      3 C          -0.4757    0.9545    0.5016 C.ar    1  LIG1       -0.0364
      4 C          -0.9533   -0.2513    0.0318 C.ar    1  LIG1        0.0465
      5 N           0.1258   -0.9364   -0.4764 N.ar    1  LIG1       -0.3607
      6 H           0.0619   -1.8112   -0.9695 H       1  LIG1        0.1653
      7 H           2.2138   -0.5474   -0.7091 H       1  LIG1        0.0807
      8 H           1.5997    1.7936    0.5179 H       1  LIG1        0.0633
      9 H          -1.0662    1.7089    1.0009 H       1  LIG1        0.0639
     10 C          -2.5249   -2.1966    0.0419 C.ar    1  LIG1       -0.0520
     11 C          -3.8076   -2.7183    0.0264 C.ar    1  LIG1       -0.0520
     12 C          -2.3031   -0.8146    0.0324 C.ar    1  LIG1       -0.0017
     13 C          -4.9275   -1.8810    0.0307 C.ar    1  LIG1       -0.0017
     14 H          -3.9503   -3.7935    0.0072 H       1  LIG1        0.0624
     15 C          -3.4231    0.0228    0.0289 C.ar    1  LIG1       -0.0520
     16 C          -4.7057   -0.4989    0.0426 C.ar    1  LIG1       -0.0520
     17 H          -3.2804    1.0980    0.0115 H       1  LIG1        0.0624
     18 H          -1.6808   -2.8790    0.0794 H       1  LIG1        0.0624
     19 H          -5.5499    0.1833    0.0806 H       1  LIG1        0.0624
     20 C          -6.2773   -2.4442    0.0283 C.ar    1  LIG1        0.0465
     21 C          -6.7551   -3.6511    0.4951 C.ar    1  LIG1       -0.0364
     22 C          -8.1514   -3.6900    0.2537 C.ar    1  LIG1       -0.0438
     23 C          -8.4926   -2.5097   -0.3566 C.ar    1  LIG1        0.0022
     24 N          -7.3562   -1.7578   -0.4786 N.ar    1  LIG1       -0.3607
     25 H          -7.2919   -0.8824   -0.9706 H       1  LIG1        0.1653
     26 H          -9.4441   -2.1461   -0.7131 H       1  LIG1        0.0807
     27 H          -6.1649   -4.4066    0.9929 H       1  LIG1        0.0639
     28 H          -8.8306   -4.4902    0.5084 H       1  LIG1        0.0633
@<TRIPOS>BOND
     1    25    24    1
     2     6     5    1
     3    26    23    1
     4     7     1    1
     5    24    23   ar
     6    24    20   ar
     7     5     1   ar
     8     5     4   ar
     9    23    22   ar
    10     1     2   ar
    11    14    11    1
    12    17    15    1
    13    11    13   ar
    14    11    10   ar
    15    20    13    1
    16    20    21   ar
    17    15    12   ar
    18    15    16   ar
    19    13    16   ar
    20     4    12    1
    21     4     3   ar
    22    12    10   ar
    23    10    18    1
    24    16    19    1
    25    22    21   ar
    26    22    28    1
    27     2     3   ar
    28     2     8    1
    29    21    27    1
    30     3     9    1
