@<TRIPOS>MOLECULE
mol_data/opt/cam/geoms/mol2/134-.out
 20 21 0 0 0
SMALL
GASTEIGER

@<TRIPOS>ATOM
      1 C           1.2205   -0.2705    0.0000 C.ar    1  LIG1        0.0022
      2 C           0.8071    1.0379    0.0009 C.ar    1  LIG1       -0.0438
      3 C          -0.6081    1.0292    0.0004 C.ar    1  LIG1       -0.0364
      4 C          -1.0306   -0.2860   -0.0002 C.ar    1  LIG1        0.0465
      5 N           0.1064   -1.0610   -0.0004 N.ar    1  LIG1       -0.3607
      6 H           0.1204   -2.0661   -0.0012 H       1  LIG1        0.1653
      7 H           2.2102   -0.7009   -0.0001 H       1  LIG1        0.0807
      8 H           1.4494    1.9061    0.0016 H       1  LIG1        0.0633
      9 H          -1.2498    1.8975    0.0008 H       1  LIG1        0.0639
     10 C          -2.6024   -2.2392   -0.0010 C.ar    1  LIG1       -0.0526
     11 C          -3.8899   -2.7589   -0.0015 C.ar    1  LIG1       -0.0611
     12 C          -2.3786   -0.8577   -0.0007 C.ar    1  LIG1       -0.0017
     13 C          -4.9900   -1.9114   -0.0017 C.ar    1  LIG1       -0.0617
     14 H          -4.0311   -3.8350   -0.0017 H       1  LIG1        0.0618
     15 C          -3.4990   -0.0169   -0.0010 C.ar    1  LIG1       -0.0526
     16 C          -4.7840   -0.5357   -0.0014 C.ar    1  LIG1       -0.0611
     17 H          -3.3587    1.0582   -0.0008 H       1  LIG1        0.0624
     18 H          -5.9960   -2.3170   -0.0021 H       1  LIG1        0.0618
     19 H          -1.7681   -2.9340   -0.0008 H       1  LIG1        0.0624
     20 H          -5.6327    0.1410   -0.0016 H       1  LIG1        0.0618
@<TRIPOS>BOND
     1    18    13    1
     2    13    11   ar
     3    13    16   ar
     4    14    11    1
     5    20    16    1
     6    11    10   ar
     7    16    15   ar
     8     6     5    1
     9    10    19    1
    10    10    12   ar
    11    15    17    1
    12    15    12   ar
    13    12     4    1
    14     5     4   ar
    15     5     1   ar
    16     4     3   ar
    17     7     1    1
    18     1     2   ar
    19     3     9    1
    20     3     2   ar
    21     2     8    1
