@<TRIPOS>MOLECULE
mol_data/opt/cam/geoms/mol2/134-13-13-.out
 36 39 0 0 0
SMALL
GASTEIGER

@<TRIPOS>ATOM
      1 C           1.3705   -0.2634   -0.0047 C.ar    1  LIG1        0.0022
      2 C           0.9794    1.0116    0.3168 C.ar    1  LIG1       -0.0438
      3 C          -0.4370    1.0160    0.3739 C.ar    1  LIG1       -0.0364
      4 C          -0.8769   -0.2600    0.0882 C.ar    1  LIG1        0.0465
      5 N           0.2431   -1.0282   -0.1295 N.ar    1  LIG1       -0.3607
      6 H           0.2234   -1.9819   -0.4500 H       1  LIG1        0.1653
      7 H           2.3519   -0.6860   -0.1556 H       1  LIG1        0.0807
      8 H           1.6375    1.8480    0.5008 H       1  LIG1        0.0633
      9 H          -1.0699    1.8516    0.6347 H       1  LIG1        0.0639
     10 C          -2.4807   -2.1695    0.2721 C.ar    1  LIG1       -0.0520
     11 C          -3.7635   -2.6857    0.2040 C.ar    1  LIG1       -0.0520
     12 C          -2.2273   -0.8162    0.0180 C.ar    1  LIG1       -0.0017
     13 C          -4.8528   -1.8709   -0.1226 C.ar    1  LIG1       -0.0017
     14 H          -3.9347   -3.7312    0.4372 H       1  LIG1        0.0624
     15 C          -3.3166   -0.0014   -0.3071 C.ar    1  LIG1       -0.0520
     16 C          -4.5997   -0.5171   -0.3750 C.ar    1  LIG1       -0.0520
     17 H          -3.1447    1.0444   -0.5386 H       1  LIG1        0.0624
     18 H          -1.6667   -2.8237    0.5705 H       1  LIG1        0.0624
     19 H          -5.4149    0.1368   -0.6702 H       1  LIG1        0.0624
     20 C          -6.2020   -2.4251   -0.1944 C.ar    1  LIG1        0.0469
     21 C          -6.6435   -3.7071   -0.4438 C.ar    1  LIG1       -0.0358
     22 C          -8.0588   -3.6991   -0.4033 C.ar    1  LIG1       -0.0344
     23 C          -8.4616   -2.4128   -0.1223 C.ar    1  LIG1        0.0633
     24 N          -7.3237   -1.6424   -0.0218 N.ar    1  LIG1       -0.3530
     25 H          -7.3065   -0.7270    0.3990 H       1  LIG1        0.1659
     26 H          -6.0121   -4.5502   -0.6839 H       1  LIG1        0.0639
     27 H          -8.7214   -4.5292   -0.5985 H       1  LIG1        0.0639
     28 C          -9.7845   -1.8409    0.0486 C.ar    1  LIG1        0.0629
     29 C         -10.9250   -2.3493    0.6286 C.ar    1  LIG1       -0.0350
     30 C         -11.9419   -1.3655    0.5167 C.ar    1  LIG1       -0.0438
     31 C         -11.3976   -0.2825   -0.1235 C.ar    1  LIG1        0.0022
     32 N         -10.0850   -0.5705   -0.3932 N.ar    1  LIG1       -0.3595
     33 H          -9.4806   -0.0204   -0.9810 H       1  LIG1        0.1654
     34 H         -11.8306    0.6652   -0.4046 H       1  LIG1        0.0807
     35 H         -11.0001   -3.3137    1.1089 H       1  LIG1        0.0639
     36 H         -12.9561   -1.4402    0.8808 H       1  LIG1        0.0633
@<TRIPOS>BOND
     1    33    32    1
     2    26    21    1
     3    19    16    1
     4    27    22    1
     5    17    15    1
     6     6     5    1
     7    21    22   ar
     8    21    20   ar
     9    34    31    1
    10    22    23   ar
    11    32    31   ar
    12    32    28   ar
    13    16    15   ar
    14    16    13   ar
    15    15    12   ar
    16    20    13    1
    17    20    24   ar
    18     7     1    1
    19     5     1   ar
    20     5     4   ar
    21    31    30   ar
    22    13    11   ar
    23    23    24   ar
    24    23    28    1
    25    24    25    1
    26     1     2   ar
    27    12     4    1
    28    12    10   ar
    29    28    29   ar
    30     4     3   ar
    31    11    10   ar
    32    11    14    1
    33    10    18    1
    34     2     3   ar
    35     2     8    1
    36     3     9    1
    37    30    29   ar
    38    30    36    1
    39    29    35    1
