@<TRIPOS>MOLECULE
mol_data/opt/cam/geoms/mol2/134-5-.out
 27 29 0 0 0
SMALL
GASTEIGER

@<TRIPOS>ATOM
      1 C           1.3023   -0.2140   -0.0000 C.ar    1  LIG1        0.0022
      2 C           0.8759    1.0904    0.0018 C.ar    1  LIG1       -0.0438
      3 C          -0.5391    1.0682    0.0013 C.ar    1  LIG1       -0.0364
      4 C          -0.9480   -0.2517   -0.0002 C.ar    1  LIG1        0.0465
      5 N           0.1963   -1.0160   -0.0009 N.ar    1  LIG1       -0.3607
      6 H           0.2209   -2.0209   -0.0022 H       1  LIG1        0.1653
      7 H           2.2965   -0.6340   -0.0005 H       1  LIG1        0.0807
      8 H           1.5097    1.9648    0.0031 H       1  LIG1        0.0633
      9 H          -1.1896    1.9300    0.0022 H       1  LIG1        0.0639
     10 C          -2.5075   -2.2168   -0.0017 C.ar    1  LIG1       -0.0520
     11 C          -3.7859   -2.7477   -0.0025 C.ar    1  LIG1       -0.0529
     12 C          -2.2886   -0.8344   -0.0010 C.ar    1  LIG1       -0.0017
     13 C          -4.9160   -1.9239   -0.0025 C.ar    1  LIG1       -0.0113
     14 H          -3.9022   -3.8255   -0.0031 H       1  LIG1        0.0624
     15 C          -3.4208   -0.0111   -0.0011 C.ar    1  LIG1       -0.0520
     16 C          -4.6977   -0.5413   -0.0018 C.ar    1  LIG1       -0.0529
     17 H          -3.2990    1.0661   -0.0006 H       1  LIG1        0.0624
     18 H          -1.6714   -2.9094   -0.0016 H       1  LIG1        0.0624
     19 H          -5.5427    0.1400   -0.0017 H       1  LIG1        0.0624
     20 C          -6.2681   -2.4971   -0.0033 C.ar    1  LIG1        0.0193
     21 C          -6.6381   -3.8154   -0.0021 C.ar    1  LIG1       -0.0469
     22 C          -8.0468   -4.0145   -0.0034 C.ar    1  LIG1       -0.0541
     23 C          -8.7407   -2.8455   -0.0054 C.ar    1  LIG1       -0.0237
     24 S          -7.6858   -1.4836   -0.0060 S.2     1  LIG1       -0.0967
     25 H          -9.8113   -2.7011   -0.0067 H       1  LIG1        0.0693
     26 H          -5.9278   -4.6323   -0.0003 H       1  LIG1        0.0629
     27 H          -8.5171   -4.9900   -0.0027 H       1  LIG1        0.0623
@<TRIPOS>BOND
     1    25    23    1
     2    24    23   ar
     3    24    20   ar
     4    23    22   ar
     5    22    27    1
     6    22    21   ar
     7    20    13    1
     8    20    21   ar
     9    14    11    1
    10    13    11   ar
    11    13    16   ar
    12    11    10   ar
    13     6     5    1
    14    21    26    1
    15    16    19    1
    16    16    15   ar
    17    10    18    1
    18    10    12   ar
    19    15    12   ar
    20    15    17    1
    21    12     4    1
    22     5     4   ar
    23     5     1   ar
    24     7     1    1
    25     4     3   ar
    26     1     2   ar
    27     3     2   ar
    28     3     9    1
    29     2     8    1
