@<TRIPOS>MOLECULE
mol_data/opt/cam/geoms/mol2/134.out
 20 21 0 0 0
SMALL
GASTEIGER

@<TRIPOS>ATOM
      1 C           1.2214   -0.2410   -0.0008 C.ar    1  LIG1        0.0022
      2 C           0.7879    1.0608   -0.0000 C.ar    1  LIG1       -0.0438
      3 C          -0.6269    1.0303    0.0005 C.ar    1  LIG1       -0.0364
      4 C          -1.0291   -0.2912    0.0005 C.ar    1  LIG1        0.0465
      5 N           0.1196   -1.0486   -0.0002 N.ar    1  LIG1       -0.3607
      6 H           0.1491   -2.0534   -0.0007 H       1  LIG1        0.1653
      7 H           2.2176   -0.6562   -0.0014 H       1  LIG1        0.0807
      8 H           1.4168    1.9388   -0.0000 H       1  LIG1        0.0633
      9 H          -1.2820    1.8887    0.0010 H       1  LIG1        0.0639
     10 C          -3.5014   -0.0600    0.0014 C.ar    1  LIG1       -0.0526
     11 C          -4.7784   -0.5985    0.0020 C.ar    1  LIG1       -0.0611
     12 C          -2.3683   -0.8835    0.0011 C.ar    1  LIG1       -0.0017
     13 C          -4.9631   -1.9772    0.0022 C.ar    1  LIG1       -0.0617
     14 H          -5.6373    0.0650    0.0023 H       1  LIG1        0.0618
     15 C          -2.5708   -2.2683    0.0013 C.ar    1  LIG1       -0.0526
     16 C          -3.8501   -2.8077    0.0018 C.ar    1  LIG1       -0.0611
     17 H          -1.7258   -2.9501    0.0011 H       1  LIG1        0.0624
     18 H          -5.9627   -2.3983    0.0026 H       1  LIG1        0.0618
     19 H          -3.3778    1.0171    0.0013 H       1  LIG1        0.0624
     20 H          -3.9748   -3.8859    0.0020 H       1  LIG1        0.0618
@<TRIPOS>BOND
     1     7     1    1
     2     1     5   ar
     3     1     2   ar
     4     6     5    1
     5     5     4   ar
     6     2     8    1
     7     2     3   ar
     8     3     4   ar
     9     3     9    1
    10     4    12    1
    11    17    15    1
    12    12    15   ar
    13    12    10   ar
    14    19    10    1
    15    15    16   ar
    16    10    11   ar
    17    16    20    1
    18    16    13   ar
    19    11    13   ar
    20    11    14    1
    21    13    18    1
