@<TRIPOS>MOLECULE
mol_data/opt/cam/geoms/mol2/1341312-.out
 35 38 0 0 0
SMALL
GASTEIGER

@<TRIPOS>ATOM
      1 C           1.3501   -0.0973   -0.0024 C.ar    1  LIG1        0.0022
      2 C           0.8878    1.1945   -0.0009 C.ar    1  LIG1       -0.0438
      3 C          -0.5263    1.1334    0.0005 C.ar    1  LIG1       -0.0364
      4 C          -0.8989   -0.1970    0.0002 C.ar    1  LIG1        0.0465
      5 N           0.2661   -0.9295   -0.0015 N.ar    1  LIG1       -0.3607
      6 H           0.3182   -1.9333   -0.0024 H       1  LIG1        0.1653
      7 H           2.3553   -0.4900   -0.0038 H       1  LIG1        0.0807
      8 H           1.4972    2.0861   -0.0009 H       1  LIG1        0.0633
      9 H          -1.2002    1.9771    0.0018 H       1  LIG1        0.0639
     10 C          -3.3788   -0.0228    0.0024 C.ar    1  LIG1       -0.0520
     11 C          -4.6404   -0.5835    0.0036 C.ar    1  LIG1       -0.0520
     12 C          -2.2232   -0.8163    0.0013 C.ar    1  LIG1       -0.0017
     13 C          -4.8244   -1.9733    0.0036 C.ar    1  LIG1       -0.0017
     14 H          -5.5056    0.0699    0.0045 H       1  LIG1        0.0624
     15 C          -2.4063   -2.2020    0.0014 C.ar    1  LIG1       -0.0520
     16 C          -3.6729   -2.7655    0.0025 C.ar    1  LIG1       -0.0520
     17 H          -1.5530   -2.8733    0.0006 H       1  LIG1        0.0624
     18 H          -3.2842    1.0573    0.0024 H       1  LIG1        0.0624
     19 H          -3.7458   -3.8488    0.0023 H       1  LIG1        0.0624
     20 C          -6.1696   -2.5423    0.0048 C.ar    1  LIG1        0.0470
     21 C          -7.4093   -1.9281    0.0047 C.ar    1  LIG1       -0.0357
     22 C          -8.3991   -2.9326    0.0061 C.ar    1  LIG1       -0.0328
     23 C          -7.7508   -4.1505    0.0071 C.ar    1  LIG1        0.0825
     24 N          -6.4032   -3.8972    0.0063 N.ar    1  LIG1       -0.3518
     25 H          -5.6916   -4.6074    0.0066 H       1  LIG1        0.1660
     26 H          -7.5853   -0.8630    0.0037 H       1  LIG1        0.0639
     27 H          -9.4700   -2.7985    0.0064 H       1  LIG1        0.0640
     28 C          -8.2788   -5.4928    0.0087 C.ar    1  LIG1        0.1509
     29 C          -7.7116   -6.7335    0.0107 C.ar    1  LIG1       -0.0144
     30 C          -8.7911   -7.6700    0.0116 C.ar    1  LIG1       -0.0233
     31 C          -9.9272   -6.9344    0.0101 C.ar    1  LIG1        0.0926
     32 O          -9.6334   -5.6080    0.0083 O.2     1  LIG1       -0.4615
     33 H         -10.9759   -7.1838    0.0101 H       1  LIG1        0.1029
     34 H          -6.6563   -6.9638    0.0116 H       1  LIG1        0.0656
     35 H          -8.7224   -8.7473    0.0131 H       1  LIG1        0.0649
@<TRIPOS>BOND
     1     7     1    1
     2     6     5    1
     3     1     5   ar
     4     1     2   ar
     5     5     4   ar
     6     8     2    1
     7     2     3   ar
     8     4     3   ar
     9     4    12    1
    10     3     9    1
    11    17    15    1
    12    12    15   ar
    13    12    10   ar
    14    15    16   ar
    15    19    16    1
    16    18    10    1
    17    10    11   ar
    18    16    13   ar
    19    11    13   ar
    20    11    14    1
    21    13    20    1
    22    26    21    1
    23    21    20   ar
    24    21    22   ar
    25    20    24   ar
    26    22    27    1
    27    22    23   ar
    28    24    25    1
    29    24    23   ar
    30    23    28    1
    31    32    28   ar
    32    32    31   ar
    33    28    29   ar
    34    33    31    1
    35    31    30   ar
    36    29    30   ar
    37    29    34    1
    38    30    35    1
