@<TRIPOS>MOLECULE
mol_data/opt/cam/geoms/mol2/13413.out
 28 30 0 0 0
SMALL
GASTEIGER

@<TRIPOS>ATOM
      1 C           1.3048   -0.1753   -0.0019 C.ar    1  LIG1        0.0022
      2 C           0.8548    1.1207   -0.0008 C.ar    1  LIG1       -0.0438
      3 C          -0.5602    1.0730    0.0009 C.ar    1  LIG1       -0.0364
      4 C          -0.9452   -0.2537    0.0004 C.ar    1  LIG1        0.0465
      5 N           0.2127   -0.9971   -0.0013 N.ar    1  LIG1       -0.3607
      6 H           0.2548   -2.0013   -0.0022 H       1  LIG1        0.1653
      7 H           2.3063   -0.5775   -0.0032 H       1  LIG1        0.0807
      8 H           1.4725    2.0066   -0.0010 H       1  LIG1        0.0633
      9 H          -1.2261    1.9230    0.0022 H       1  LIG1        0.0639
     10 C          -3.4243   -0.0594    0.0026 C.ar    1  LIG1       -0.0520
     11 C          -4.6906   -0.6105    0.0036 C.ar    1  LIG1       -0.0520
     12 C          -2.2753   -0.8618    0.0014 C.ar    1  LIG1       -0.0017
     13 C          -4.8863   -1.9983    0.0035 C.ar    1  LIG1       -0.0017
     14 H          -5.5507    0.0497    0.0047 H       1  LIG1        0.0624
     15 C          -2.4697   -2.2457    0.0013 C.ar    1  LIG1       -0.0520
     16 C          -3.7411   -2.7990    0.0023 C.ar    1  LIG1       -0.0520
     17 H          -1.6218   -2.9240    0.0005 H       1  LIG1        0.0624
     18 H          -3.3214    1.0200    0.0027 H       1  LIG1        0.0624
     19 H          -3.8225   -3.8818    0.0019 H       1  LIG1        0.0624
     20 C          -6.2378   -2.5573    0.0046 C.ar    1  LIG1        0.0465
     21 C          -7.4711   -1.9349    0.0039 C.ar    1  LIG1       -0.0364
     22 C          -8.4703   -2.9379    0.0058 C.ar    1  LIG1       -0.0438
     23 C          -7.8285   -4.1505    0.0071 C.ar    1  LIG1        0.0022
     24 N          -6.4829   -3.9113    0.0065 N.ar    1  LIG1       -0.3607
     25 H          -5.7766   -4.6265    0.0076 H       1  LIG1        0.1653
     26 H          -8.2166   -5.1575    0.0086 H       1  LIG1        0.0807
     27 H          -7.6394   -0.8683    0.0023 H       1  LIG1        0.0639
     28 H          -9.5396   -2.7863    0.0059 H       1  LIG1        0.0633
@<TRIPOS>BOND
     1     7     1    1
     2     6     5    1
     3     1     5   ar
     4     1     2   ar
     5     5     4   ar
     6     8     2    1
     7     2     3   ar
     8     4     3   ar
     9     4    12    1
    10    17    15    1
    11     3     9    1
    12    15    12   ar
    13    15    16   ar
    14    12    10   ar
    15    19    16    1
    16    27    21    1
    17    16    13   ar
    18    10    18    1
    19    10    11   ar
    20    13    11   ar
    21    13    20    1
    22    11    14    1
    23    21    20   ar
    24    21    22   ar
    25    20    24   ar
    26    22    28    1
    27    22    23   ar
    28    24    23   ar
    29    24    25    1
    30    23    26    1
