@<TRIPOS>MOLECULE
mol_data/opt/cam/geoms/mol2/13412-8-.out
 33 36 0 0 0
SMALL
GASTEIGER

@<TRIPOS>ATOM
      1 C           1.3763   -0.2910   -0.0020 C.ar    1  LIG1        0.0022
      2 C           0.9683    1.0196   -0.0009 C.ar    1  LIG1       -0.0438
      3 C          -0.4460    1.0172    0.0006 C.ar    1  LIG1       -0.0364
      4 C          -0.8737   -0.2972    0.0003 C.ar    1  LIG1        0.0465
      5 N           0.2603   -1.0776   -0.0012 N.ar    1  LIG1       -0.3607
      6 H           0.2723   -2.0828   -0.0020 H       1  LIG1        0.1653
      7 H           2.3647   -0.7244   -0.0033 H       1  LIG1        0.0807
      8 H           1.6142    1.8850   -0.0011 H       1  LIG1        0.0633
      9 H          -1.0841    1.8883    0.0018 H       1  LIG1        0.0639
     10 C          -3.3403   -0.0142    0.0023 C.ar    1  LIG1       -0.0520
     11 C          -4.6264   -0.5194    0.0033 C.ar    1  LIG1       -0.0505
     12 C          -2.2218   -0.8589    0.0014 C.ar    1  LIG1       -0.0017
     13 C          -4.8508   -1.9007    0.0035 C.ar    1  LIG1        0.0173
     14 H          -5.4741    0.1559    0.0039 H       1  LIG1        0.0625
     15 C          -2.4575   -2.2400    0.0017 C.ar    1  LIG1       -0.0520
     16 C          -3.7430   -2.7515    0.0027 C.ar    1  LIG1       -0.0505
     17 H          -1.6303   -2.9425    0.0011 H       1  LIG1        0.0624
     18 H          -3.1977    1.0603    0.0020 H       1  LIG1        0.0624
     19 H          -3.8851   -3.8271    0.0029 H       1  LIG1        0.0625
     20 C          -6.2035   -2.4373    0.0047 C.ar    1  LIG1        0.1358
     21 C          -6.7140   -3.7098    0.0053 C.ar    1  LIG1       -0.0151
     22 C          -8.1238   -3.5807    0.0063 C.ar    1  LIG1       -0.0120
     23 C          -8.3836   -2.2404    0.0063 C.ar    1  LIG1        0.1760
     24 O          -7.2189   -1.5414    0.0053 O.2     1  LIG1       -0.4516
     25 H          -6.1480   -4.6284    0.0050 H       1  LIG1        0.0656
     26 H          -8.8667   -4.3632    0.0070 H       1  LIG1        0.0657
     27 C          -9.6260   -1.5025    0.0071 C.ar    1  LIG1        0.2381
     28 N         -10.7547   -2.2365    0.0081 N.ar    1  LIG1       -0.1226
     29 C         -11.8406   -0.2589    0.0087 C.ar    1  LIG1        0.1605
     30 N          -9.5825   -0.1605    0.0069 N.ar    1  LIG1       -0.1226
     31 N         -11.8920   -1.5929    0.0089 N.ar    1  LIG1       -0.1338
     32 N         -10.7303    0.4750    0.0077 N.ar    1  LIG1       -0.1338
     33 H         -12.7857    0.2715    0.0093 H       1  LIG1        0.1085
@<TRIPOS>BOND
     1     7     1    1
     2     1     5   ar
     3     1     2   ar
     4     6     5    1
     5     5     4   ar
     6     8     2    1
     7     2     3   ar
     8     4     3   ar
     9     4    12    1
    10     3     9    1
    11    17    15    1
    12    12    15   ar
    13    12    10   ar
    14    15    16   ar
    15    18    10    1
    16    10    11   ar
    17    16    19    1
    18    16    13   ar
    19    11    13   ar
    20    11    14    1
    21    13    20    1
    22    20    21   ar
    23    20    24   ar
    24    25    21    1
    25    21    22   ar
    26    24    23   ar
    27    23    22   ar
    28    23    27    1
    29    22    26    1
    30    30    27   ar
    31    30    32   ar
    32    27    28   ar
    33    32    29   ar
    34    28    31   ar
    35    29    31   ar
    36    29    33    1
