@<TRIPOS>MOLECULE
mol_data/opt/cam/geoms/mol2/1344.out
 30 32 0 0 0
SMALL
GASTEIGER

@<TRIPOS>ATOM
      1 C           1.3162   -0.2036    0.0311 C.ar    1  LIG1        0.0022
      2 C           0.8899    1.0940   -0.0984 C.ar    1  LIG1       -0.0438
      3 C          -0.5269    1.0703   -0.1326 C.ar    1  LIG1       -0.0364
      4 C          -0.9318   -0.2441   -0.0265 C.ar    1  LIG1        0.0465
      5 N           0.2094   -1.0068    0.0621 N.ar    1  LIG1       -0.3607
      6 H           0.2178   -1.9970    0.2410 H       1  LIG1        0.1653
      7 H           2.3098   -0.6182    0.1058 H       1  LIG1        0.0807
      8 H           1.5249    1.9647   -0.1702 H       1  LIG1        0.0633
      9 H          -1.1838    1.9183   -0.2604 H       1  LIG1        0.0639
     10 C          -3.3715   -0.1018    0.4246 C.ar    1  LIG1       -0.0521
     11 C          -4.6419   -0.6527    0.4300 C.ar    1  LIG1       -0.0534
     12 C          -2.2679   -0.8388   -0.0185 C.ar    1  LIG1       -0.0017
     13 C          -4.8651   -1.9672    0.0073 C.ar    1  LIG1       -0.0178
     14 H          -5.4743   -0.0648    0.8031 H       1  LIG1        0.0624
     15 C          -2.4913   -2.1502   -0.4509 C.ar    1  LIG1       -0.0521
     16 C          -3.7622   -2.7039   -0.4315 C.ar    1  LIG1       -0.0534
     17 H          -1.6672   -2.7366   -0.8466 H       1  LIG1        0.0624
     18 H          -3.2208    0.9072    0.7932 H       1  LIG1        0.0624
     19 H          -3.9077   -3.7148   -0.7981 H       1  LIG1        0.0624
     20 C          -7.3427   -1.7938   -0.3263 C.ar    1  LIG1       -0.0540
     21 C          -8.6165   -2.3462   -0.3113 C.ar    1  LIG1       -0.0612
     22 C          -6.2248   -2.5577    0.0228 C.ar    1  LIG1       -0.0179
     23 C          -8.7989   -3.6758    0.0509 C.ar    1  LIG1       -0.0617
     24 H          -9.4696   -1.7370   -0.5927 H       1  LIG1        0.0618
     25 C          -6.4232   -3.8931    0.3863 C.ar    1  LIG1       -0.0540
     26 C          -7.6962   -4.4473    0.3991 C.ar    1  LIG1       -0.0612
     27 H          -5.5714   -4.4957    0.6849 H       1  LIG1        0.0624
     28 H          -9.7941   -4.1080    0.0618 H       1  LIG1        0.0618
     29 H          -7.2073   -0.7624   -0.6354 H       1  LIG1        0.0624
     30 H          -7.8281   -5.4843    0.6913 H       1  LIG1        0.0618
@<TRIPOS>BOND
     1    17    15    1
     2    19    16    1
     3    29    20    1
     4    24    21    1
     5    15    16   ar
     6    15    12   ar
     7    16    13   ar
     8    20    21   ar
     9    20    22   ar
    10    21    23   ar
    11     9     3    1
    12     8     2    1
    13     3     2   ar
    14     3     4   ar
    15     2     1   ar
    16     4    12    1
    17     4     5   ar
    18    12    10   ar
    19    13    22    1
    20    13    11   ar
    21    22    25   ar
    22     1     5   ar
    23     1     7    1
    24    23    28    1
    25    23    26   ar
    26     5     6    1
    27    25    26   ar
    28    25    27    1
    29    26    30    1
    30    10    11   ar
    31    10    18    1
    32    11    14    1
