@<TRIPOS>MOLECULE
mol_data/opt/cam/geoms/mol2/1345-.out
 27 29 0 0 0
SMALL
GASTEIGER

@<TRIPOS>ATOM
      1 C           1.3024   -0.1761   -0.0021 C.ar    1  LIG1        0.0022
      2 C           0.8517    1.1201   -0.0005 C.ar    1  LIG1       -0.0438
      3 C          -0.5626    1.0714    0.0006 C.ar    1  LIG1       -0.0364
      4 C          -0.9469   -0.2558    0.0003 C.ar    1  LIG1        0.0465
      5 N           0.2116   -0.9986   -0.0013 N.ar    1  LIG1       -0.3607
      6 H           0.2549   -2.0029   -0.0021 H       1  LIG1        0.1653
      7 H           2.3042   -0.5774   -0.0034 H       1  LIG1        0.0807
      8 H           1.4690    2.0062   -0.0004 H       1  LIG1        0.0633
      9 H          -1.2291    1.9210    0.0018 H       1  LIG1        0.0639
     10 C          -3.4236   -0.0616    0.0023 C.ar    1  LIG1       -0.0520
     11 C          -4.6904   -0.6155    0.0033 C.ar    1  LIG1       -0.0529
     12 C          -2.2763   -0.8636    0.0014 C.ar    1  LIG1       -0.0017
     13 C          -4.8828   -2.0020    0.0034 C.ar    1  LIG1       -0.0113
     14 H          -5.5481    0.0498    0.0042 H       1  LIG1        0.0624
     15 C          -2.4693   -2.2498    0.0015 C.ar    1  LIG1       -0.0520
     16 C          -3.7376   -2.8045    0.0024 C.ar    1  LIG1       -0.0529
     17 H          -1.6204   -2.9266    0.0008 H       1  LIG1        0.0624
     18 H          -3.3221    1.0177    0.0022 H       1  LIG1        0.0624
     19 H          -3.8337   -3.8843    0.0023 H       1  LIG1        0.0624
     20 C          -6.2240   -2.6004    0.0045 C.ar    1  LIG1        0.0193
     21 C          -6.5692   -3.9254    0.0067 C.ar    1  LIG1       -0.0469
     22 C          -7.9740   -4.1508    0.0072 C.ar    1  LIG1       -0.0541
     23 C          -8.6897   -2.9950    0.0054 C.ar    1  LIG1       -0.0237
     24 S          -7.6604   -1.6135    0.0029 S.2     1  LIG1       -0.0967
     25 H          -9.7628   -2.8706    0.0053 H       1  LIG1        0.0693
     26 H          -5.8438   -4.7289    0.0082 H       1  LIG1        0.0629
     27 H          -8.4260   -5.1349    0.0089 H       1  LIG1        0.0623
@<TRIPOS>BOND
     1     7     1    1
     2     6     5    1
     3     1     5   ar
     4     1     2   ar
     5     5     4   ar
     6     2     8    1
     7     2     3   ar
     8     4     3   ar
     9     4    12    1
    10     3     9    1
    11    17    15    1
    12    12    15   ar
    13    12    10   ar
    14    15    16   ar
    15    18    10    1
    16    19    16    1
    17    10    11   ar
    18    16    13   ar
    19    24    20   ar
    20    24    23   ar
    21    11    13   ar
    22    11    14    1
    23    13    20    1
    24    20    21   ar
    25    25    23    1
    26    23    22   ar
    27    21    22   ar
    28    21    26    1
    29    22    27    1
