@<TRIPOS>MOLECULE
mol_data/opt/cam/geoms/mol2/13454-.out
 37 40 0 0 0
SMALL
GASTEIGER

@<TRIPOS>ATOM
      1 C           1.4016   -0.1241   -0.0019 C.ar    1  LIG1        0.0022
      2 C           0.9630    1.1764    0.0001 C.ar    1  LIG1       -0.0438
      3 C          -0.4516    1.1408    0.0010 C.ar    1  LIG1       -0.0364
      4 C          -0.8482   -0.1829    0.0005 C.ar    1  LIG1        0.0465
      5 N           0.3033   -0.9364   -0.0012 N.ar    1  LIG1       -0.3607
      6 H           0.3374   -1.9411   -0.0022 H       1  LIG1        0.1653
      7 H           2.3996   -0.5347   -0.0033 H       1  LIG1        0.0807
      8 H           1.5886    2.0566    0.0004 H       1  LIG1        0.0633
      9 H          -1.1102    1.9965    0.0023 H       1  LIG1        0.0639
     10 C          -3.3232    0.0369    0.0025 C.ar    1  LIG1       -0.0520
     11 C          -4.5952   -0.5015    0.0033 C.ar    1  LIG1       -0.0529
     12 C          -2.1831   -0.7778    0.0013 C.ar    1  LIG1       -0.0017
     13 C          -4.8018   -1.8877    0.0030 C.ar    1  LIG1       -0.0113
     14 H          -5.4452    0.1715    0.0044 H       1  LIG1        0.0624
     15 C          -2.3902   -2.1609    0.0011 C.ar    1  LIG1       -0.0520
     16 C          -3.6655   -2.7014    0.0019 C.ar    1  LIG1       -0.0529
     17 H          -1.5490   -2.8471    0.0002 H       1  LIG1        0.0624
     18 H          -3.2091    1.1150    0.0027 H       1  LIG1        0.0624
     19 H          -3.7723   -3.7815    0.0015 H       1  LIG1        0.0624
     20 C          -6.1573   -2.4472    0.0038 C.ar    1  LIG1        0.0199
     21 C          -7.3564   -1.7869    0.0031 C.ar    1  LIG1       -0.0463
     22 C          -8.4825   -2.6473    0.0043 C.ar    1  LIG1       -0.0463
     23 C          -8.1621   -3.9776    0.0060 C.ar    1  LIG1        0.0199
     24 S          -6.4311   -4.1668    0.0062 S.2     1  LIG1       -0.0883
     25 H          -7.4428   -0.7080    0.0015 H       1  LIG1        0.0629
     26 H          -9.5005   -2.2793    0.0038 H       1  LIG1        0.0629
     27 C          -8.5658   -6.4486    0.0081 C.ar    1  LIG1       -0.0535
     28 C          -9.4243   -7.5388    0.0096 C.ar    1  LIG1       -0.0612
     29 C          -9.0609   -5.1398    0.0076 C.ar    1  LIG1       -0.0113
     30 C         -10.8006   -7.3486    0.0105 C.ar    1  LIG1       -0.0617
     31 H          -9.0127   -8.5428    0.0100 H       1  LIG1        0.0618
     32 C         -10.4505   -4.9638    0.0085 C.ar    1  LIG1       -0.0535
     33 C         -11.3076   -6.0536    0.0100 C.ar    1  LIG1       -0.0612
     34 H         -10.8684   -3.9635    0.0082 H       1  LIG1        0.0624
     35 H         -11.4723   -8.2004    0.0117 H       1  LIG1        0.0618
     36 H          -7.4943   -6.6214    0.0074 H       1  LIG1        0.0624
     37 H         -12.3803   -5.8892    0.0107 H       1  LIG1        0.0618
@<TRIPOS>BOND
     1     7     1    1
     2     6     5    1
     3     1     5   ar
     4     1     2   ar
     5     5     4   ar
     6     2     8    1
     7     2     3   ar
     8    17    15    1
     9     4     3   ar
    10     4    12    1
    11     3     9    1
    12    15    12   ar
    13    15    16   ar
    14    12    10   ar
    15    19    16    1
    16    25    21    1
    17    16    13   ar
    18    10    18    1
    19    10    11   ar
    20    13    11   ar
    21    13    20    1
    22    21    20   ar
    23    21    22   ar
    24    11    14    1
    25    26    22    1
    26    20    24   ar
    27    22    23   ar
    28    23    24   ar
    29    23    29    1
    30    36    27    1
    31    29    27   ar
    32    29    32   ar
    33    27    28   ar
    34    34    32    1
    35    32    33   ar
    36    28    31    1
    37    28    30   ar
    38    33    30   ar
    39    33    37    1
    40    30    35    1
