@<TRIPOS>MOLECULE
mol_data/opt/cam/geoms/mol2/1348-8.out
 32 35 0 0 0
SMALL
GASTEIGER

@<TRIPOS>ATOM
      1 C           1.3059   -0.1841   -0.0021 C.ar    1  LIG1        0.0022
      2 C           0.8607    1.1156   -0.0015 C.ar    1  LIG1       -0.0438
      3 C          -0.5513    1.0726    0.0001 C.ar    1  LIG1       -0.0364
      4 C          -0.9413   -0.2546    0.0002 C.ar    1  LIG1        0.0465
      5 N           0.2152   -1.0023   -0.0011 N.ar    1  LIG1       -0.3607
      6 H           0.2569   -2.0069   -0.0015 H       1  LIG1        0.1653
      7 H           2.3067   -0.5880   -0.0032 H       1  LIG1        0.0807
      8 H           1.4820    1.9988   -0.0020 H       1  LIG1        0.0633
      9 H          -1.2139    1.9251    0.0010 H       1  LIG1        0.0639
     10 C          -3.4123   -0.0368    0.0021 C.ar    1  LIG1       -0.0520
     11 C          -4.6816   -0.5790    0.0033 C.ar    1  LIG1       -0.0503
     12 C          -2.2704   -0.8531    0.0014 C.ar    1  LIG1       -0.0017
     13 C          -4.8602   -1.9672    0.0038 C.ar    1  LIG1        0.0227
     14 H          -5.5524    0.0653    0.0038 H       1  LIG1        0.0625
     15 C          -2.4639   -2.2421    0.0020 C.ar    1  LIG1       -0.0520
     16 C          -3.7323   -2.7920    0.0032 C.ar    1  LIG1       -0.0503
     17 H          -1.6157   -2.9186    0.0016 H       1  LIG1        0.0624
     18 H          -3.2988    1.0408    0.0016 H       1  LIG1        0.0624
     19 H          -3.8636   -3.8672    0.0036 H       1  LIG1        0.0625
     20 C          -6.2054   -2.5469    0.0051 C.ar    1  LIG1        0.2034
     21 N          -6.3220   -3.8872    0.0056 N.ar    1  LIG1       -0.1251
     22 C          -8.5572   -3.5612    0.0073 C.ar    1  LIG1        0.2435
     23 N          -7.2600   -1.7117    0.0057 N.ar    1  LIG1       -0.1251
     24 N          -7.5202   -4.4035    0.0067 N.ar    1  LIG1       -0.1218
     25 N          -8.4579   -2.2291    0.0068 N.ar    1  LIG1       -0.1218
     26 C          -9.9234   -4.1507    0.0085 C.ar    1  LIG1        0.2434
     27 N         -10.9582   -3.3038    0.0089 N.ar    1  LIG1       -0.1224
     28 C         -12.2492   -5.1544    0.0108 C.ar    1  LIG1        0.1605
     29 N         -10.0171   -5.4845    0.0094 N.ar    1  LIG1       -0.1224
     30 N         -12.1620   -3.8251    0.0100 N.ar    1  LIG1       -0.1338
     31 N         -11.2223   -6.0028    0.0105 N.ar    1  LIG1       -0.1338
     32 H         -13.2448   -5.5840    0.0118 H       1  LIG1        0.1085
@<TRIPOS>BOND
     1     7     1    1
     2     1     2   ar
     3     1     5   ar
     4     8     2    1
     5     6     5    1
     6     2     3   ar
     7     5     4   ar
     8     3     4   ar
     9     3     9    1
    10     4    12    1
    11    12    15   ar
    12    12    10   ar
    13    17    15    1
    14    18    10    1
    15    15    16   ar
    16    10    11   ar
    17    16    19    1
    18    16    13   ar
    19    11    14    1
    20    11    13   ar
    21    13    20    1
    22    20    21   ar
    23    20    23   ar
    24    21    24   ar
    25    23    25   ar
    26    24    22   ar
    27    25    22   ar
    28    22    26    1
    29    26    27   ar
    30    26    29   ar
    31    27    30   ar
    32    29    31   ar
    33    30    28   ar
    34    31    28   ar
    35    28    32    1
