@<TRIPOS>MOLECULE
mol_data/opt/cam/geoms/mol2/1348-.out
 26 28 0 0 0
SMALL
GASTEIGER

@<TRIPOS>ATOM
      1 C           1.2709   -0.2086   -0.0015 C.ar    1  LIG1        0.0022
      2 C           0.8297    1.0920   -0.0008 C.ar    1  LIG1       -0.0438
      3 C          -0.5831    1.0533    0.0004 C.ar    1  LIG1       -0.0364
      4 C          -0.9770   -0.2722    0.0004 C.ar    1  LIG1        0.0465
      5 N           0.1769   -1.0233   -0.0008 N.ar    1  LIG1       -0.3607
      6 H           0.2146   -2.0280   -0.0012 H       1  LIG1        0.1653
      7 H           2.2703   -0.6160   -0.0025 H       1  LIG1        0.0807
      8 H           1.4535    1.9734   -0.0011 H       1  LIG1        0.0633
      9 H          -1.2432    1.9077    0.0012 H       1  LIG1        0.0639
     10 C          -3.4485   -0.0498    0.0019 C.ar    1  LIG1       -0.0520
     11 C          -4.7197   -0.5895    0.0029 C.ar    1  LIG1       -0.0503
     12 C          -2.3089   -0.8680    0.0014 C.ar    1  LIG1       -0.0017
     13 C          -4.9023   -1.9761    0.0034 C.ar    1  LIG1        0.0227
     14 H          -5.5889    0.0570    0.0033 H       1  LIG1        0.0625
     15 C          -2.5063   -2.2557    0.0019 C.ar    1  LIG1       -0.0520
     16 C          -3.7770   -2.8025    0.0029 C.ar    1  LIG1       -0.0503
     17 H          -1.6599   -2.9348    0.0017 H       1  LIG1        0.0624
     18 H          -3.3327    1.0277    0.0015 H       1  LIG1        0.0624
     19 H          -3.9109   -3.8774    0.0033 H       1  LIG1        0.0625
     20 C          -6.2537   -2.5541    0.0044 C.ar    1  LIG1        0.2033
     21 N          -6.3696   -3.8930    0.0049 N.ar    1  LIG1       -0.1258
     22 C          -8.6000   -3.5583    0.0062 C.ar    1  LIG1        0.1605
     23 N          -7.3021   -1.7135    0.0048 N.ar    1  LIG1       -0.1258
     24 N          -7.5738   -4.4074    0.0058 N.ar    1  LIG1       -0.1339
     25 N          -8.5056   -2.2298    0.0057 N.ar    1  LIG1       -0.1339
     26 H          -9.5965   -3.9847    0.0070 H       1  LIG1        0.1085
@<TRIPOS>BOND
     1     7     1    1
     2     1     2   ar
     3     1     5   ar
     4     6     5    1
     5     8     2    1
     6     2     3   ar
     7     5     4   ar
     8     3     4   ar
     9     3     9    1
    10     4    12    1
    11    12    10   ar
    12    12    15   ar
    13    18    10    1
    14    17    15    1
    15    10    11   ar
    16    15    16   ar
    17    16    19    1
    18    16    13   ar
    19    11    14    1
    20    11    13   ar
    21    13    20    1
    22    20    23   ar
    23    20    21   ar
    24    23    25   ar
    25    21    24   ar
    26    25    22   ar
    27    24    22   ar
    28    22    26    1
