@<TRIPOS>MOLECULE
mol_data/opt/cam/geoms/mol2/135-13-.out
 25 27 0 0 0
SMALL
GASTEIGER

@<TRIPOS>ATOM
      1 C           1.3000   -0.2711   -0.0005 C.ar    1  LIG1        0.0022
      2 C           0.8727    1.0327    0.0002 C.ar    1  LIG1       -0.0438
      3 C          -0.5433    1.0121    0.0003 C.ar    1  LIG1       -0.0359
      4 C          -0.9470   -0.3082    0.0002 C.ar    1  LIG1        0.0531
      5 N           0.1940   -1.0757   -0.0003 N.ar    1  LIG1       -0.3603
      6 H           0.2109   -2.0812   -0.0007 H       1  LIG1        0.1653
      7 H           2.2943   -0.6902   -0.0009 H       1  LIG1        0.0807
      8 H           1.5065    1.9069    0.0004 H       1  LIG1        0.0633
      9 H          -1.2015    1.8691    0.0007 H       1  LIG1        0.0639
     10 C          -2.2679   -0.9034    0.0004 C.ar    1  LIG1        0.0361
     11 C          -2.6289   -2.2231    0.0012 C.ar    1  LIG1       -0.0449
     12 C          -4.0333   -2.4335    0.0012 C.ar    1  LIG1       -0.0449
     13 C          -4.7581   -1.2744    0.0005 C.ar    1  LIG1        0.0361
     14 S          -3.6885    0.1036   -0.0004 S.2     1  LIG1       -0.0853
     15 H          -1.9149   -3.0388    0.0019 H       1  LIG1        0.0630
     16 H          -4.4921   -3.4142    0.0019 H       1  LIG1        0.0630
     17 C          -6.1992   -1.1178    0.0003 C.ar    1  LIG1        0.0531
     18 C          -7.2005   -2.0694    0.0001 C.ar    1  LIG1       -0.0359
     19 C          -8.4427   -1.3908    0.0002 C.ar    1  LIG1       -0.0438
     20 C          -8.1745   -0.0449    0.0001 C.ar    1  LIG1        0.0022
     21 N          -6.8160    0.1116    0.0003 N.ar    1  LIG1       -0.3603
     22 H          -6.3393    0.9984    0.0006 H       1  LIG1        0.1653
     23 H          -8.8341    0.8090    0.0000 H       1  LIG1        0.0807
     24 H          -7.0481   -3.1387   -0.0001 H       1  LIG1        0.0639
     25 H          -9.4245   -1.8406    0.0002 H       1  LIG1        0.0633
@<TRIPOS>BOND
     1     7     1    1
     2     6     5    1
     3     1     5   ar
     4     1     2   ar
     5    14    10   ar
     6    14    13   ar
     7     5     4   ar
     8    24    18    1
     9    23    20    1
    10    18    19   ar
    11    18    17   ar
    12    20    19   ar
    13    20    21   ar
    14    25    19    1
    15     4     3   ar
    16     4    10    1
    17     2     3   ar
    18     2     8    1
    19    17    21   ar
    20    17    13    1
    21    21    22    1
    22     3     9    1
    23    10    11   ar
    24    13    12   ar
    25    11    12   ar
    26    11    15    1
    27    12    16    1
