@<TRIPOS>MOLECULE
mol_data/opt/cam/geoms/mol2/135-4.out
 27 29 0 0 0
SMALL
GASTEIGER

@<TRIPOS>ATOM
      1 C           1.2973   -0.3029   -0.3295 C.ar    1  LIG1        0.0022
      2 C           0.9213    0.9990   -0.1124 C.ar    1  LIG1       -0.0438
      3 C          -0.4821    1.0068    0.0830 C.ar    1  LIG1       -0.0359
      4 C          -0.9271   -0.2950   -0.0190 C.ar    1  LIG1        0.0531
      5 N           0.1742   -1.0807   -0.2654 N.ar    1  LIG1       -0.3603
      6 H           0.1328   -2.0657   -0.4672 H       1  LIG1        0.1653
      7 H           2.2661   -0.7363   -0.5244 H       1  LIG1        0.0807
      8 H           1.5823    1.8526   -0.0877 H       1  LIG1        0.0633
      9 H          -1.1023    1.8631    0.3049 H       1  LIG1        0.0639
     10 C          -2.2527   -0.8708    0.1033 C.ar    1  LIG1        0.0360
     11 C          -2.6042   -2.1346    0.4952 C.ar    1  LIG1       -0.0449
     12 C          -4.0074   -2.3536    0.4923 C.ar    1  LIG1       -0.0463
     13 C          -4.7317   -1.2602    0.1065 C.ar    1  LIG1        0.0200
     14 S          -3.6653    0.0582   -0.2920 S.2     1  LIG1       -0.0868
     15 H          -1.8839   -2.8755    0.8222 H       1  LIG1        0.0630
     16 H          -4.4684   -3.2809    0.8097 H       1  LIG1        0.0629
     17 C          -6.8237    0.1082    0.1976 C.ar    1  LIG1       -0.0535
     18 C          -8.2043    0.2184    0.1061 C.ar    1  LIG1       -0.0612
     19 C          -6.1902   -1.1242    0.0063 C.ar    1  LIG1       -0.0113
     20 C          -8.9808   -0.9009   -0.1693 C.ar    1  LIG1       -0.0617
     21 H          -8.6758    1.1837    0.2598 H       1  LIG1        0.0618
     22 C          -6.9819   -2.2420   -0.2817 C.ar    1  LIG1       -0.0535
     23 C          -8.3626   -2.1319   -0.3607 C.ar    1  LIG1       -0.0612
     24 H          -6.5051   -3.1991   -0.4639 H       1  LIG1        0.0624
     25 H         -10.0601   -0.8145   -0.2376 H       1  LIG1        0.0618
     26 H          -6.2296    0.9842    0.4379 H       1  LIG1        0.0624
     27 H          -8.9583   -3.0107   -0.5857 H       1  LIG1        0.0618
@<TRIPOS>BOND
     1    27    23    1
     2     7     1    1
     3     6     5    1
     4    24    22    1
     5    23    22   ar
     6    23    20   ar
     7     1     5   ar
     8     1     2   ar
     9    14    10   ar
    10    14    13   ar
    11    22    19   ar
    12     5     4   ar
    13    25    20    1
    14    20    18   ar
    15     2     8    1
    16     2     3   ar
    17     4     3   ar
    18     4    10    1
    19    19    13    1
    20    19    17   ar
    21     3     9    1
    22    10    11   ar
    23    18    17   ar
    24    18    21    1
    25    13    12   ar
    26    17    26    1
    27    12    11   ar
    28    12    16    1
    29    11    15    1
