@<TRIPOS>MOLECULE
mol_data/opt/cam/geoms/mol2/135-8-4-.out
 33 36 0 0 0
SMALL
GASTEIGER

@<TRIPOS>ATOM
      1 C           1.3287   -0.2791   -0.0001 C.ar    1  LIG1        0.0022
      2 C           0.9045    1.0274    0.0007 C.ar    1  LIG1       -0.0438
      3 C          -0.5090    1.0098    0.0010 C.ar    1  LIG1       -0.0359
      4 C          -0.9159   -0.3109    0.0004 C.ar    1  LIG1        0.0531
      5 N           0.2245   -1.0813   -0.0002 N.ar    1  LIG1       -0.3603
      6 H           0.2416   -2.0870   -0.0009 H       1  LIG1        0.1653
      7 H           2.3229   -0.6989   -0.0006 H       1  LIG1        0.0807
      8 H           1.5405    1.8999    0.0009 H       1  LIG1        0.0633
      9 H          -1.1657    1.8679    0.0017 H       1  LIG1        0.0639
     10 C          -2.2375   -0.8986    0.0005 C.ar    1  LIG1        0.0361
     11 C          -2.5831   -2.2307    0.0008 C.ar    1  LIG1       -0.0448
     12 C          -3.9793   -2.4430    0.0007 C.ar    1  LIG1       -0.0432
     13 C          -4.6942   -1.2752    0.0004 C.ar    1  LIG1        0.0604
     14 S          -3.6477    0.1114    0.0002 S.2     1  LIG1       -0.0836
     15 H          -1.8640   -3.0410    0.0011 H       1  LIG1        0.0630
     16 H          -4.4582   -3.4133    0.0009 H       1  LIG1        0.0630
     17 C          -6.1334   -1.1255    0.0002 C.ar    1  LIG1        0.2099
     18 N          -6.8859   -2.2402    0.0004 N.ar    1  LIG1       -0.1247
     19 C          -8.6913   -0.8548   -0.0000 C.ar    1  LIG1        0.2034
     20 N          -6.6384    0.1183   -0.0001 N.ar    1  LIG1       -0.1247
     21 N          -8.1811   -2.0976    0.0003 N.ar    1  LIG1       -0.1252
     22 N          -7.9360    0.2529   -0.0002 N.ar    1  LIG1       -0.1252
     23 C         -10.9828   -1.8301   -0.0001 C.ar    1  LIG1       -0.0509
     24 C         -12.3620   -1.6820   -0.0002 C.ar    1  LIG1       -0.0611
     25 C         -10.1584   -0.7020   -0.0002 C.ar    1  LIG1        0.0226
     26 C         -12.9296   -0.4122   -0.0005 C.ar    1  LIG1       -0.0617
     27 H         -12.9968   -2.5618   -0.0001 H       1  LIG1        0.0618
     28 C         -10.7316    0.5721   -0.0005 C.ar    1  LIG1       -0.0509
     29 C         -12.1115    0.7128   -0.0006 C.ar    1  LIG1       -0.0611
     30 H         -10.0850    1.4411   -0.0006 H       1  LIG1        0.0625
     31 H         -14.0090   -0.2994   -0.0006 H       1  LIG1        0.0618
     32 H         -10.5302   -2.8142    0.0002 H       1  LIG1        0.0625
     33 H         -12.5504    1.7050   -0.0009 H       1  LIG1        0.0618
@<TRIPOS>BOND
     1     6     5    1
     2    33    29    1
     3    29    26   ar
     4    29    28   ar
     5     7     1    1
     6    31    26    1
     7    30    28    1
     8    26    24   ar
     9    28    25   ar
    10     5     1   ar
    11     5     4   ar
    12    22    20   ar
    13    22    19   ar
    14    24    27    1
    15    24    23   ar
    16    25    23   ar
    17    25    19    1
    18     1     2   ar
    19    20    17   ar
    20    23    32    1
    21    19    21   ar
    22    14    13   ar
    23    14    10   ar
    24    17    18   ar
    25    17    13    1
    26    21    18   ar
    27    13    12   ar
    28     4    10    1
    29     4     3   ar
    30    10    11   ar
    31     2     8    1
    32     2     3   ar
    33    12    11   ar
    34    12    16    1
    35    11    15    1
    36     3     9    1
