@<TRIPOS>MOLECULE
mol_data/opt/cam/geoms/mol2/135-5-.out
 24 26 0 0 0
SMALL
GASTEIGER

@<TRIPOS>ATOM
      1 C           1.2921   -0.2610   -0.0008 C.ar    1  LIG1        0.0022
      2 C           0.8588    1.0412   -0.0001 C.ar    1  LIG1       -0.0438
      3 C          -0.5565    1.0141    0.0001 C.ar    1  LIG1       -0.0359
      4 C          -0.9540   -0.3083    0.0001 C.ar    1  LIG1        0.0531
      5 N           0.1908   -1.0707   -0.0004 N.ar    1  LIG1       -0.3603
      6 H           0.2130   -2.0761   -0.0007 H       1  LIG1        0.1653
      7 H           2.2886   -0.6751   -0.0013 H       1  LIG1        0.0807
      8 H           1.4885    1.9183    0.0001 H       1  LIG1        0.0633
      9 H          -1.2187    1.8680    0.0005 H       1  LIG1        0.0639
     10 C          -2.2721   -0.9086    0.0006 C.ar    1  LIG1        0.0361
     11 C          -2.6210   -2.2334    0.0015 C.ar    1  LIG1       -0.0449
     12 C          -4.0222   -2.4500    0.0017 C.ar    1  LIG1       -0.0458
     13 C          -4.7542   -1.2936    0.0010 C.ar    1  LIG1        0.0265
     14 S          -3.6943    0.0898   -0.0003 S.2     1  LIG1       -0.0863
     15 H          -1.9022   -3.0446    0.0021 H       1  LIG1        0.0630
     16 H          -4.4725   -3.4346    0.0025 H       1  LIG1        0.0629
     17 C          -6.2021   -1.1587    0.0010 C.ar    1  LIG1        0.0259
     18 C          -7.1341   -2.1636    0.0004 C.ar    1  LIG1       -0.0464
     19 C          -8.4744   -1.6897    0.0007 C.ar    1  LIG1       -0.0541
     20 C          -8.5531   -0.3318    0.0015 C.ar    1  LIG1       -0.0237
     21 S          -6.9896    0.3936    0.0019 S.2     1  LIG1       -0.0961
     22 H          -9.4366    0.2896    0.0019 H       1  LIG1        0.0693
     23 H          -6.8700   -3.2136   -0.0003 H       1  LIG1        0.0629
     24 H          -9.3417   -2.3381    0.0004 H       1  LIG1        0.0623
@<TRIPOS>BOND
     1     7     1    1
     2     1     5   ar
     3     1     2   ar
     4     6     5    1
     5     5     4   ar
     6    14    10   ar
     7    14    13   ar
     8    23    18    1
     9     2     8    1
    10     2     3   ar
    11     3     4   ar
    12     3     9    1
    13     4    10    1
    14    24    19    1
    15    18    19   ar
    16    18    17   ar
    17    10    11   ar
    18    19    20   ar
    19    13    17    1
    20    13    12   ar
    21    17    21   ar
    22    11    12   ar
    23    11    15    1
    24    20    21   ar
    25    20    22    1
    26    12    16    1
