@<TRIPOS>MOLECULE
mol_data/opt/cam/geoms/mol2/135-5-13.out
 32 35 0 0 0
SMALL
GASTEIGER

@<TRIPOS>ATOM
      1 C           1.3791   -0.2820   -0.0008 C.ar    1  LIG1        0.0022
      2 C           0.9444    1.0197   -0.0008 C.ar    1  LIG1       -0.0438
      3 C          -0.4709    0.9912   -0.0000 C.ar    1  LIG1       -0.0359
      4 C          -0.8672   -0.3316    0.0001 C.ar    1  LIG1        0.0531
      5 N           0.2784   -1.0929   -0.0004 N.ar    1  LIG1       -0.3603
      6 H           0.3015   -2.0983   -0.0006 H       1  LIG1        0.1653
      7 H           2.3759   -0.6952   -0.0011 H       1  LIG1        0.0807
      8 H           1.5732    1.8975   -0.0011 H       1  LIG1        0.0633
      9 H          -1.1341    1.8442    0.0003 H       1  LIG1        0.0639
     10 C          -2.1848   -0.9328    0.0006 C.ar    1  LIG1        0.0361
     11 C          -2.5335   -2.2577    0.0017 C.ar    1  LIG1       -0.0449
     12 C          -3.9340   -2.4757    0.0019 C.ar    1  LIG1       -0.0458
     13 C          -4.6677   -1.3192    0.0010 C.ar    1  LIG1        0.0265
     14 S          -3.6079    0.0648   -0.0002 S.2     1  LIG1       -0.0863
     15 H          -1.8142   -3.0685    0.0024 H       1  LIG1        0.0630
     16 H          -4.3834   -3.4608    0.0028 H       1  LIG1        0.0629
     17 C          -6.1129   -1.1842    0.0010 C.ar    1  LIG1        0.0265
     18 C          -7.0480   -2.1849    0.0008 C.ar    1  LIG1       -0.0458
     19 C          -8.3839   -1.7114    0.0009 C.ar    1  LIG1       -0.0449
     20 C          -8.4813   -0.3448    0.0012 C.ar    1  LIG1        0.0361
     21 S          -6.8981    0.3721    0.0013 S.2     1  LIG1       -0.0863
     22 H          -6.7888   -3.2362    0.0005 H       1  LIG1        0.0629
     23 H          -9.2409   -2.3750    0.0009 H       1  LIG1        0.0630
     24 C          -9.6648    0.4899    0.0014 C.ar    1  LIG1        0.0531
     25 C          -9.8093    1.8632    0.0025 C.ar    1  LIG1       -0.0359
     26 C         -11.1948    2.1533    0.0023 C.ar    1  LIG1       -0.0438
     27 C         -11.8630    0.9546    0.0007 C.ar    1  LIG1        0.0022
     28 N         -10.9315   -0.0461    0.0004 N.ar    1  LIG1       -0.3603
     29 H         -11.1403   -1.0298   -0.0008 H       1  LIG1        0.1653
     30 H         -12.9191    0.7331   -0.0000 H       1  LIG1        0.0807
     31 H          -8.9996    2.5787    0.0035 H       1  LIG1        0.0639
     32 H         -11.6503    3.1323    0.0031 H       1  LIG1        0.0633
@<TRIPOS>BOND
     1     7     1    1
     2     8     2    1
     3    29    28    1
     4     1     2   ar
     5     1     5   ar
     6     2     3   ar
     7     6     5    1
     8     5     4   ar
     9    14    10   ar
    10    14    13   ar
    11     3     4   ar
    12     3     9    1
    13    30    27    1
    14     4    10    1
    15    28    27   ar
    16    28    24   ar
    17    22    18    1
    18    10    11   ar
    19    27    26   ar
    20    18    19   ar
    21    18    17   ar
    22    23    19    1
    23    19    20   ar
    24    17    13    1
    25    17    21   ar
    26    13    12   ar
    27    20    21   ar
    28    20    24    1
    29    24    25   ar
    30    11    12   ar
    31    11    15    1
    32    12    16    1
    33    26    25   ar
    34    26    32    1
    35    25    31    1
