@<TRIPOS>MOLECULE
mol_data/opt/cam/geoms/mol2/135-4-8.out
 33 36 0 0 0
SMALL
GASTEIGER

@<TRIPOS>ATOM
      1 C           1.3866   -0.2844    0.0004 C.ar    1  LIG1        0.0022
      2 C           0.9649    1.0221    0.0000 C.ar    1  LIG1       -0.0438
      3 C          -0.4498    1.0073    0.0001 C.ar    1  LIG1       -0.0359
      4 C          -0.8590   -0.3119    0.0004 C.ar    1  LIG1        0.0531
      5 N           0.2792   -1.0844    0.0006 N.ar    1  LIG1       -0.3603
      6 H           0.2935   -2.0901    0.0006 H       1  LIG1        0.1653
      7 H           2.3796   -0.7068    0.0005 H       1  LIG1        0.0807
      8 H           1.6025    1.8935   -0.0002 H       1  LIG1        0.0633
      9 H          -1.1046    1.8669   -0.0001 H       1  LIG1        0.0639
     10 C          -2.1821   -0.8994    0.0005 C.ar    1  LIG1        0.0360
     11 C          -2.5406   -2.2226    0.0019 C.ar    1  LIG1       -0.0449
     12 C          -3.9426   -2.4254    0.0016 C.ar    1  LIG1       -0.0463
     13 C          -4.6702   -1.2657   -0.0001 C.ar    1  LIG1        0.0200
     14 S          -3.5945    0.1086   -0.0012 S.2     1  LIG1       -0.0868
     15 H          -1.8293   -3.0401    0.0033 H       1  LIG1        0.0630
     16 H          -4.3913   -3.4104    0.0027 H       1  LIG1        0.0629
     17 C          -6.9733   -2.2158   -0.0020 C.ar    1  LIG1       -0.0529
     18 C          -8.3474   -2.0710   -0.0027 C.ar    1  LIG1       -0.0503
     19 C          -6.1249   -1.0987   -0.0008 C.ar    1  LIG1       -0.0113
     20 C          -8.9261   -0.7986   -0.0022 C.ar    1  LIG1        0.0227
     21 H          -8.9899   -2.9431   -0.0036 H       1  LIG1        0.0625
     22 C          -6.7178    0.1709   -0.0004 C.ar    1  LIG1       -0.0529
     23 C          -8.0927    0.3218   -0.0011 C.ar    1  LIG1       -0.0503
     24 H          -6.0953    1.0595    0.0005 H       1  LIG1        0.0624
     25 H          -6.5530   -3.2145   -0.0025 H       1  LIG1        0.0624
     26 H          -8.5351    1.3104   -0.0008 H       1  LIG1        0.0625
     27 C         -10.3888   -0.6430   -0.0030 C.ar    1  LIG1        0.2033
     28 N         -10.8927    0.6024   -0.0026 N.ar    1  LIG1       -0.1258
     29 C         -12.9261   -0.3735   -0.0042 C.ar    1  LIG1        0.1605
     30 N         -11.1431   -1.7547   -0.0040 N.ar    1  LIG1       -0.1258
     31 N         -12.1950    0.7399   -0.0032 N.ar    1  LIG1       -0.1339
     32 N         -12.4453   -1.6155   -0.0046 N.ar    1  LIG1       -0.1339
     33 H         -14.0039   -0.2589   -0.0046 H       1  LIG1        0.1085
@<TRIPOS>BOND
     1    33    29    1
     2    32    29   ar
     3    32    30   ar
     4    29    31   ar
     5    30    27   ar
     6    21    18    1
     7    31    28   ar
     8    27    28   ar
     9    27    20    1
    10    18    20   ar
    11    18    17   ar
    12    25    17    1
    13    20    23   ar
    14    17    19   ar
    15    14    13   ar
    16    14    10   ar
    17    23    26    1
    18    23    22   ar
    19    19    22   ar
    20    19    13    1
    21    22    24    1
    22     8     2    1
    23    13    12   ar
    24     9     3    1
    25     2     3   ar
    26     2     1   ar
    27     3     4   ar
    28     1     7    1
    29     1     5   ar
    30     4    10    1
    31     4     5   ar
    32    10    11   ar
    33     5     6    1
    34    12    11   ar
    35    12    16    1
    36    11    15    1
