@<TRIPOS>MOLECULE
mol_data/opt/cam/geoms/mol2/135-58.out
 30 33 0 0 0
SMALL
GASTEIGER

@<TRIPOS>ATOM
      1 C           1.3541   -0.2483   -0.0007 C.ar    1  LIG1        0.0022
      2 C           0.9262    1.0564   -0.0001 C.ar    1  LIG1       -0.0438
      3 C          -0.4880    1.0348    0.0005 C.ar    1  LIG1       -0.0359
      4 C          -0.8909   -0.2865    0.0002 C.ar    1  LIG1        0.0531
      5 N           0.2510   -1.0537   -0.0005 N.ar    1  LIG1       -0.3603
      6 H           0.2708   -2.0593   -0.0011 H       1  LIG1        0.1653
      7 H           2.3492   -0.6658   -0.0013 H       1  LIG1        0.0807
      8 H           1.5597    1.9308   -0.0001 H       1  LIG1        0.0633
      9 H          -1.1468    1.8913    0.0011 H       1  LIG1        0.0639
     10 C          -2.2111   -0.8790    0.0005 C.ar    1  LIG1        0.0361
     11 C          -2.5647   -2.2042    0.0013 C.ar    1  LIG1       -0.0449
     12 C          -3.9650   -2.4137    0.0014 C.ar    1  LIG1       -0.0458
     13 C          -4.6915   -1.2531    0.0007 C.ar    1  LIG1        0.0265
     14 S          -3.6269    0.1280   -0.0001 S.2     1  LIG1       -0.0863
     15 H          -1.8497   -3.0181    0.0018 H       1  LIG1        0.0630
     16 H          -4.4204   -3.3970    0.0019 H       1  LIG1        0.0629
     17 C          -6.1296   -1.0844    0.0006 C.ar    1  LIG1        0.0266
     18 C          -6.8475    0.0895    0.0002 C.ar    1  LIG1       -0.0457
     19 C          -8.2438   -0.1142    0.0002 C.ar    1  LIG1       -0.0432
     20 C          -8.5872   -1.4404    0.0006 C.ar    1  LIG1        0.0604
     21 S          -7.1852   -2.4639    0.0010 S.2     1  LIG1       -0.0845
     22 H          -6.3838    1.0682   -0.0001 H       1  LIG1        0.0629
     23 H          -8.9851    0.6741   -0.0000 H       1  LIG1        0.0630
     24 C          -9.9208   -2.0029    0.0008 C.ar    1  LIG1        0.2098
     25 N         -10.9626   -1.1505    0.0005 N.ar    1  LIG1       -0.1253
     26 C         -12.2633   -2.9972    0.0010 C.ar    1  LIG1        0.1605
     27 N         -10.0351   -3.3418    0.0012 N.ar    1  LIG1       -0.1253
     28 N         -12.1643   -1.6667    0.0006 N.ar    1  LIG1       -0.1339
     29 N         -11.2415   -3.8509    0.0013 N.ar    1  LIG1       -0.1339
     30 H         -13.2618   -3.4185    0.0012 H       1  LIG1        0.1085
@<TRIPOS>BOND
     1     7     1    1
     2     6     5    1
     3     1     5   ar
     4     1     2   ar
     5     5     4   ar
     6     2     8    1
     7     2     3   ar
     8    22    18    1
     9    14    10   ar
    10    14    13   ar
    11    23    19    1
    12     4     3   ar
    13     4    10    1
    14    18    19   ar
    15    18    17   ar
    16    19    20   ar
    17    25    28   ar
    18    25    24   ar
    19     3     9    1
    20    10    11   ar
    21    28    26   ar
    22    17    13    1
    23    17    21   ar
    24    20    24    1
    25    20    21   ar
    26    13    12   ar
    27    24    27   ar
    28    26    30    1
    29    26    29   ar
    30    27    29   ar
    31    11    12   ar
    32    11    15    1
    33    12    16    1
