@<TRIPOS>MOLECULE
mol_data/opt/cam/geoms/mol2/135-.out
 17 18 0 0 0
SMALL
GASTEIGER

@<TRIPOS>ATOM
      1 C           1.2053   -0.2688   -0.0005 C.ar    1  LIG1        0.0022
      2 C           0.7748    1.0340    0.0004 C.ar    1  LIG1       -0.0438
      3 C          -0.6411    1.0096    0.0003 C.ar    1  LIG1       -0.0359
      4 C          -1.0412   -0.3112    0.0002 C.ar    1  LIG1        0.0531
      5 N           0.1015   -1.0759   -0.0003 N.ar    1  LIG1       -0.3603
      6 H           0.1206   -2.0814   -0.0008 H       1  LIG1        0.1653
      7 H           2.2007   -0.6855   -0.0009 H       1  LIG1        0.0807
      8 H           1.4064    1.9099    0.0007 H       1  LIG1        0.0633
      9 H          -1.3019    1.8646    0.0007 H       1  LIG1        0.0639
     10 C          -2.3629   -0.9100    0.0003 C.ar    1  LIG1        0.0354
     11 C          -2.7105   -2.2345    0.0010 C.ar    1  LIG1       -0.0455
     12 C          -4.1187   -2.4490    0.0010 C.ar    1  LIG1       -0.0541
     13 C          -4.8263   -1.2892    0.0004 C.ar    1  LIG1       -0.0237
     14 S          -3.7859    0.0887   -0.0007 S.2     1  LIG1       -0.0952
     15 H          -5.8983   -1.1573    0.0003 H       1  LIG1        0.0693
     16 H          -1.9908   -3.0450    0.0017 H       1  LIG1        0.0629
     17 H          -4.5775   -3.4300    0.0016 H       1  LIG1        0.0623
@<TRIPOS>BOND
     1     7     1    1
     2     6     5    1
     3    14    10   ar
     4    14    13   ar
     5     1     5   ar
     6     1     2   ar
     7     5     4   ar
     8     4    10    1
     9     4     3   ar
    10    10    11   ar
    11    15    13    1
    12     3     2   ar
    13     3     9    1
    14    13    12   ar
    15     2     8    1
    16    12    11   ar
    17    12    17    1
    18    11    16    1
