@<TRIPOS>MOLECULE
mol_data/opt/cam/geoms/mol2/135-8-.out
 23 25 0 0 0
SMALL
GASTEIGER

@<TRIPOS>ATOM
      1 C           1.2528   -0.2744   -0.0004 C.ar    1  LIG1        0.0022
      2 C           0.8279    1.0322    0.0002 C.ar    1  LIG1       -0.0438
      3 C          -0.5852    1.0137    0.0005 C.ar    1  LIG1       -0.0359
      4 C          -0.9914   -0.3074    0.0002 C.ar    1  LIG1        0.0531
      5 N           0.1493   -1.0772   -0.0004 N.ar    1  LIG1       -0.3603
      6 H           0.1675   -2.0829   -0.0009 H       1  LIG1        0.1653
      7 H           2.2472   -0.6935   -0.0008 H       1  LIG1        0.0807
      8 H           1.4635    1.9049    0.0003 H       1  LIG1        0.0633
      9 H          -1.2422    1.8716    0.0011 H       1  LIG1        0.0639
     10 C          -2.3128   -0.8946    0.0004 C.ar    1  LIG1        0.0361
     11 C          -2.6581   -2.2275    0.0009 C.ar    1  LIG1       -0.0448
     12 C          -4.0536   -2.4392    0.0010 C.ar    1  LIG1       -0.0432
     13 C          -4.7682   -1.2708    0.0006 C.ar    1  LIG1        0.0604
     14 S          -3.7217    0.1158   -0.0000 S.2     1  LIG1       -0.0836
     15 H          -1.9388   -3.0376    0.0013 H       1  LIG1        0.0630
     16 H          -4.5333   -3.4093    0.0014 H       1  LIG1        0.0630
     17 C          -6.2068   -1.1210    0.0007 C.ar    1  LIG1        0.2098
     18 N          -6.9560   -2.2398    0.0011 N.ar    1  LIG1       -0.1253
     19 C          -8.7379   -0.8516    0.0007 C.ar    1  LIG1        0.1605
     20 N          -6.7064    0.1269    0.0002 N.ar    1  LIG1       -0.1253
     21 N          -8.2559   -2.0956    0.0011 N.ar    1  LIG1       -0.1339
     22 N          -8.0086    0.2625    0.0003 N.ar    1  LIG1       -0.1339
     23 H          -9.8158   -0.7390    0.0008 H       1  LIG1        0.1085
@<TRIPOS>BOND
     1     6     5    1
     2     7     1    1
     3     1     5   ar
     4     1     2   ar
     5     5     4   ar
     6    14    10   ar
     7    14    13   ar
     8     2     8    1
     9     2     3   ar
    10     4    10    1
    11     4     3   ar
    12    20    22   ar
    13    20    17   ar
    14    22    19   ar
    15    10    11   ar
    16     3     9    1
    17    13    17    1
    18    13    12   ar
    19    17    18   ar
    20    19    23    1
    21    19    21   ar
    22    11    12   ar
    23    11    15    1
    24    12    16    1
    25    18    21   ar
