@<TRIPOS>MOLECULE
mol_data/opt/cam/geoms/mol2/135-13-12-.out
 32 35 0 0 0
SMALL
GASTEIGER

@<TRIPOS>ATOM
      1 C           1.3458   -0.2975   -0.0002 C.ar    1  LIG1        0.0022
      2 C           0.9198    1.0068   -0.0000 C.ar    1  LIG1       -0.0438
      3 C          -0.4960    0.9876    0.0003 C.ar    1  LIG1       -0.0359
      4 C          -0.9010   -0.3325    0.0002 C.ar    1  LIG1        0.0531
      5 N           0.2393   -1.1011   -0.0000 N.ar    1  LIG1       -0.3603
      6 H           0.2552   -2.1066   -0.0004 H       1  LIG1        0.1653
      7 H           2.3398   -0.7175   -0.0004 H       1  LIG1        0.0807
      8 H           1.5545    1.8804   -0.0001 H       1  LIG1        0.0633
      9 H          -1.1534    1.8451    0.0006 H       1  LIG1        0.0639
     10 C          -2.2224   -0.9258    0.0005 C.ar    1  LIG1        0.0361
     11 C          -2.5841   -2.2460    0.0013 C.ar    1  LIG1       -0.0449
     12 C          -3.9877   -2.4552    0.0013 C.ar    1  LIG1       -0.0449
     13 C          -4.7115   -1.2944    0.0004 C.ar    1  LIG1        0.0361
     14 S          -3.6414    0.0827   -0.0005 S.2     1  LIG1       -0.0853
     15 H          -1.8708   -3.0622    0.0021 H       1  LIG1        0.0630
     16 H          -4.4470   -3.4357    0.0020 H       1  LIG1        0.0630
     17 C          -6.1503   -1.1379    0.0002 C.ar    1  LIG1        0.0537
     18 C          -7.1525   -2.0932    0.0002 C.ar    1  LIG1       -0.0352
     19 C          -8.3922   -1.4220   -0.0002 C.ar    1  LIG1       -0.0328
     20 C          -8.1288   -0.0661   -0.0003 C.ar    1  LIG1        0.0825
     21 N          -6.7673    0.0880   -0.0001 N.ar    1  LIG1       -0.3514
     22 H          -6.3124    0.9875   -0.0001 H       1  LIG1        0.1660
     23 H          -6.9990   -3.1621    0.0003 H       1  LIG1        0.0639
     24 H          -9.3734   -1.8730   -0.0003 H       1  LIG1        0.0640
     25 C          -9.0019    1.0818   -0.0006 C.ar    1  LIG1        0.1509
     26 C         -10.3535    1.2487   -0.0007 C.ar    1  LIG1       -0.0144
     27 C         -10.5844    2.6592   -0.0010 C.ar    1  LIG1       -0.0233
     28 C          -9.3652    3.2463   -0.0009 C.ar    1  LIG1        0.0926
     29 O          -8.3869    2.2997   -0.0007 O.2     1  LIG1       -0.4615
     30 H          -9.0299    4.2707   -0.0011 H       1  LIG1        0.1029
     31 H         -11.0935    0.4632   -0.0007 H       1  LIG1        0.0656
     32 H         -11.5385    3.1644   -0.0012 H       1  LIG1        0.0649
@<TRIPOS>BOND
     1    32    27    1
     2    30    28    1
     3    27    28   ar
     4    27    26   ar
     5    28    29   ar
     6    26    31    1
     7    26    25   ar
     8    29    25   ar
     9    25    20    1
    10    14    13   ar
    11    14    10   ar
    12     7     1    1
    13     6     5    1
    14    20    19   ar
    15    20    21   ar
    16    24    19    1
    17     1     2   ar
    18     1     5   ar
    19    19    18   ar
    20    21    22    1
    21    21    17   ar
    22     8     2    1
    23     2     3   ar
    24     5     4   ar
    25    17    18   ar
    26    17    13    1
    27    18    23    1
    28     4     3   ar
    29     4    10    1
    30     3     9    1
    31    13    12   ar
    32    10    11   ar
    33    12    11   ar
    34    12    16    1
    35    11    15    1
