@<TRIPOS>MOLECULE
mol_data/opt/cam/geoms/mol2/135-12-.out
 24 26 0 0 0
SMALL
GASTEIGER

@<TRIPOS>ATOM
      1 C           1.2743   -0.2784   -0.0007 C.ar    1  LIG1        0.0022
      2 C           0.8506    1.0269    0.0005 C.ar    1  LIG1       -0.0438
      3 C          -0.5649    1.0102    0.0005 C.ar    1  LIG1       -0.0359
      4 C          -0.9724   -0.3091    0.0002 C.ar    1  LIG1        0.0531
      5 N           0.1668   -1.0798   -0.0005 N.ar    1  LIG1       -0.3603
      6 H           0.1813   -2.0854   -0.0011 H       1  LIG1        0.1653
      7 H           2.2677   -0.7000   -0.0013 H       1  LIG1        0.0807
      8 H           1.4869    1.8994    0.0009 H       1  LIG1        0.0633
      9 H          -1.2209    1.8689    0.0010 H       1  LIG1        0.0639
     10 C          -2.2959   -0.8989    0.0004 C.ar    1  LIG1        0.0361
     11 C          -2.6508   -2.2228    0.0010 C.ar    1  LIG1       -0.0448
     12 C          -4.0535   -2.4309    0.0011 C.ar    1  LIG1       -0.0433
     13 C          -4.7692   -1.2655    0.0006 C.ar    1  LIG1        0.0550
     14 S          -3.7091    0.1134   -0.0002 S.2     1  LIG1       -0.0837
     15 H          -1.9367   -3.0380    0.0015 H       1  LIG1        0.0630
     16 H          -4.5162   -3.4102    0.0016 H       1  LIG1        0.0630
     17 C          -6.2038   -1.0965    0.0007 C.ar    1  LIG1        0.1413
     18 C          -7.2528   -1.9682    0.0009 C.ar    1  LIG1       -0.0154
     19 C          -8.4378   -1.1720    0.0008 C.ar    1  LIG1       -0.0233
     20 C          -8.0272    0.1187    0.0005 C.ar    1  LIG1        0.0926
     21 O          -6.6713    0.1821    0.0004 O.2     1  LIG1       -0.4624
     22 H          -8.5431    1.0651    0.0003 H       1  LIG1        0.1029
     23 H          -7.1885   -3.0456    0.0011 H       1  LIG1        0.0655
     24 H          -9.4596   -1.5205    0.0009 H       1  LIG1        0.0649
@<TRIPOS>BOND
     1     7     1    1
     2     6     5    1
     3     1     5   ar
     4     1     2   ar
     5     5     4   ar
     6    14    10   ar
     7    14    13   ar
     8     4    10    1
     9     4     3   ar
    10    22    20    1
    11    10    11   ar
    12    21    20   ar
    13    21    17   ar
    14     2     3   ar
    15     2     8    1
    16     3     9    1
    17    20    19   ar
    18    13    17    1
    19    13    12   ar
    20    17    18   ar
    21    19    18   ar
    22    19    24    1
    23    18    23    1
    24    11    12   ar
    25    11    15    1
    26    12    16    1
