@<TRIPOS>MOLECULE
mol_data/opt/cam/geoms/mol2/135.out
 17 18 0 0 0
SMALL
GASTEIGER

@<TRIPOS>ATOM
      1 C           1.1887   -0.2808   -0.0003 C.ar    1  LIG1        0.0022
      2 C           0.7884    1.0318    0.0007 C.ar    1  LIG1       -0.0438
      3 C          -0.6273    1.0417    0.0005 C.ar    1  LIG1       -0.0359
      4 C          -1.0588   -0.2698    0.0001 C.ar    1  LIG1        0.0531
      5 N           0.0659   -1.0613   -0.0003 N.ar    1  LIG1       -0.3603
      6 H           0.0653   -2.0681   -0.0011 H       1  LIG1        0.1653
      7 H           2.1738   -0.7211   -0.0008 H       1  LIG1        0.0807
      8 H           1.4406    1.8925    0.0013 H       1  LIG1        0.0633
      9 H          -1.2674    1.9115    0.0011 H       1  LIG1        0.0639
     10 C          -2.4041   -0.8145    0.0001 C.ar    1  LIG1        0.0354
     11 C          -3.5899   -0.1321   -0.0011 C.ar    1  LIG1       -0.0455
     12 C          -4.7312   -0.9833   -0.0008 C.ar    1  LIG1       -0.0541
     13 C          -4.4100   -2.3035    0.0004 C.ar    1  LIG1       -0.0237
     14 S          -2.6976   -2.5318    0.0018 S.2     1  LIG1       -0.0952
     15 H          -5.0692   -3.1588    0.0008 H       1  LIG1        0.0693
     16 H          -3.6450    0.9492   -0.0023 H       1  LIG1        0.0629
     17 H          -5.7515   -0.6199   -0.0017 H       1  LIG1        0.0623
@<TRIPOS>BOND
     1    16    11    1
     2    17    12    1
     3    11    12   ar
     4    11    10   ar
     5     6     5    1
     6    12    13   ar
     7     7     1    1
     8     5     1   ar
     9     5     4   ar
    10     1     2   ar
    11    10     4    1
    12    10    14   ar
    13     4     3   ar
    14    13    15    1
    15    13    14   ar
    16     3     2   ar
    17     3     9    1
    18     2     8    1
