@<TRIPOS>MOLECULE
mol_data/opt/cam/geoms/mol2/13513-.out
 25 27 0 0 0
SMALL
GASTEIGER

@<TRIPOS>ATOM
      1 C           1.2604   -0.2184   -0.0002 C.ar    1  LIG1        0.0022
      2 C           0.8581    1.0937    0.0011 C.ar    1  LIG1       -0.0438
      3 C          -0.5574    1.1018    0.0010 C.ar    1  LIG1       -0.0359
      4 C          -0.9875   -0.2109    0.0001 C.ar    1  LIG1        0.0531
      5 N           0.1387   -1.0006   -0.0006 N.ar    1  LIG1       -0.3603
      6 H           0.1397   -2.0074   -0.0017 H       1  LIG1        0.1653
      7 H           2.2461   -0.6573   -0.0008 H       1  LIG1        0.0807
      8 H           1.5091    1.9553    0.0018 H       1  LIG1        0.0633
      9 H          -1.1987    1.9708    0.0019 H       1  LIG1        0.0639
     10 C          -2.3304   -0.7566   -0.0002 C.ar    1  LIG1        0.0361
     11 C          -3.5183   -0.0801   -0.0013 C.ar    1  LIG1       -0.0449
     12 C          -4.6549   -0.9314   -0.0012 C.ar    1  LIG1       -0.0449
     13 C          -4.3466   -2.2644   -0.0001 C.ar    1  LIG1        0.0361
     14 S          -2.6183   -2.4771    0.0011 S.2     1  LIG1       -0.0853
     15 H          -3.5796    1.0009   -0.0023 H       1  LIG1        0.0630
     16 H          -5.6703   -0.5521   -0.0022 H       1  LIG1        0.0630
     17 C          -5.2271   -3.4150    0.0003 C.ar    1  LIG1        0.0531
     18 C          -4.9562   -4.7688    0.0005 C.ar    1  LIG1       -0.0359
     19 C          -6.1930   -5.4586    0.0011 C.ar    1  LIG1       -0.0438
     20 C          -7.1876   -4.5136    0.0007 C.ar    1  LIG1        0.0022
     21 N          -6.5956   -3.2806    0.0004 N.ar    1  LIG1       -0.3603
     22 H          -7.0875   -2.4034    0.0005 H       1  LIG1        0.1653
     23 H          -8.2618   -4.6162    0.0008 H       1  LIG1        0.0807
     24 H          -3.9703   -5.2110    0.0004 H       1  LIG1        0.0639
     25 H          -6.3363   -6.5289    0.0015 H       1  LIG1        0.0633
@<TRIPOS>BOND
     1    15    11    1
     2    16    12    1
     3     6     5    1
     4    11    12   ar
     5    11    10   ar
     6    12    13   ar
     7     7     1    1
     8     5     1   ar
     9     5     4   ar
    10     1     2   ar
    11    10     4    1
    12    10    14   ar
    13    13    17    1
    14    13    14   ar
    15     4     3   ar
    16    17    21   ar
    17    17    18   ar
    18    24    18    1
    19    21    22    1
    20    21    20   ar
    21    18    19   ar
    22    20    23    1
    23    20    19   ar
    24     3     2   ar
    25     3     9    1
    26     2     8    1
    27    19    25    1
