@<TRIPOS>MOLECULE
mol_data/opt/cam/geoms/mol2/13512-4-.out
 34 37 0 0 0
SMALL
GASTEIGER

@<TRIPOS>ATOM
      1 C           1.3808   -0.2620   -0.0005 C.ar    1  LIG1        0.0022
      2 C           1.0020    1.0575    0.0009 C.ar    1  LIG1       -0.0438
      3 C          -0.4125    1.0909    0.0009 C.ar    1  LIG1       -0.0359
      4 C          -0.8660   -0.2143    0.0002 C.ar    1  LIG1        0.0531
      5 N           0.2461   -1.0241   -0.0006 N.ar    1  LIG1       -0.3603
      6 H           0.2302   -2.0309   -0.0016 H       1  LIG1        0.1653
      7 H           2.3587   -0.7179   -0.0011 H       1  LIG1        0.0807
      8 H           1.6684    1.9072    0.0016 H       1  LIG1        0.0633
      9 H          -1.0383    1.9711    0.0016 H       1  LIG1        0.0639
     10 C          -2.2185   -0.7333    0.0001 C.ar    1  LIG1        0.0361
     11 C          -3.3937   -0.0311   -0.0007 C.ar    1  LIG1       -0.0448
     12 C          -4.5473   -0.8556   -0.0005 C.ar    1  LIG1       -0.0433
     13 C          -4.2592   -2.1923    0.0003 C.ar    1  LIG1        0.0550
     14 S          -2.5378   -2.4480    0.0011 S.2     1  LIG1       -0.0837
     15 H          -3.4300    1.0509   -0.0015 H       1  LIG1        0.0630
     16 H          -5.5629   -0.4819   -0.0011 H       1  LIG1        0.0630
     17 C          -5.1784   -3.3031    0.0006 C.ar    1  LIG1        0.1422
     18 C          -5.0262   -4.6591    0.0011 C.ar    1  LIG1       -0.0147
     19 C          -6.3365   -5.2111    0.0012 C.ar    1  LIG1       -0.0152
     20 C          -7.2079   -4.1616    0.0006 C.ar    1  LIG1        0.1357
     21 O          -6.5033   -2.9934    0.0003 O.2     1  LIG1       -0.4543
     22 H          -4.0902   -5.1977    0.0014 H       1  LIG1        0.0656
     23 H          -6.5951   -6.2590    0.0015 H       1  LIG1        0.0656
     24 C          -9.4522   -5.2156    0.0005 C.ar    1  LIG1       -0.0511
     25 C         -10.8352   -5.1226    0.0003 C.ar    1  LIG1       -0.0611
     26 C          -8.6620   -4.0607    0.0004 C.ar    1  LIG1        0.0173
     27 C         -11.4554   -3.8771    0.0000 C.ar    1  LIG1       -0.0617
     28 H         -11.4332   -6.0282    0.0003 H       1  LIG1        0.0618
     29 C          -9.2925   -2.8127    0.0002 C.ar    1  LIG1       -0.0511
     30 C         -10.6776   -2.7252   -0.0001 C.ar    1  LIG1       -0.0611
     31 H          -8.6879   -1.9135    0.0001 H       1  LIG1        0.0625
     32 H         -12.5380   -3.8062   -0.0002 H       1  LIG1        0.0618
     33 H          -8.9797   -6.1923    0.0006 H       1  LIG1        0.0625
     34 H         -11.1518   -1.7491   -0.0002 H       1  LIG1        0.0618
@<TRIPOS>BOND
     1     6     5    1
     2    15    11    1
     3     7     1    1
     4    16    12    1
     5    11    12   ar
     6    11    10   ar
     7     5     1   ar
     8     5     4   ar
     9    12    13   ar
    10     1     2   ar
    11    34    30    1
    12    32    27    1
    13    30    27   ar
    14    30    29   ar
    15    27    25   ar
    16    10     4    1
    17    10    14   ar
    18    31    29    1
    19    29    26   ar
    20     4     3   ar
    21    25    28    1
    22    25    24   ar
    23    21    17   ar
    24    21    20   ar
    25    13    17    1
    26    13    14   ar
    27    26    24   ar
    28    26    20    1
    29    24    33    1
    30    17    18   ar
    31    20    19   ar
    32     3     2   ar
    33     3     9    1
    34     2     8    1
    35    18    19   ar
    36    18    22    1
    37    19    23    1
