@<TRIPOS>MOLECULE
mol_data/opt/cam/geoms/mol2/13512.out
 24 26 0 0 0
SMALL
GASTEIGER

@<TRIPOS>ATOM
      1 C           1.2439   -0.2087   -0.0006 C.ar    1  LIG1        0.0022
      2 C           0.8290    1.0997    0.0009 C.ar    1  LIG1       -0.0438
      3 C          -0.5862    1.0940    0.0007 C.ar    1  LIG1       -0.0359
      4 C          -1.0035   -0.2230    0.0001 C.ar    1  LIG1        0.0531
      5 N           0.1304   -1.0018   -0.0007 N.ar    1  LIG1       -0.3603
      6 H           0.1415   -2.0087   -0.0016 H       1  LIG1        0.1653
      7 H           2.2339   -0.6377   -0.0012 H       1  LIG1        0.0807
      8 H           1.4716    1.9675    0.0016 H       1  LIG1        0.0633
      9 H          -1.2359    1.9567    0.0015 H       1  LIG1        0.0639
     10 C          -2.3409   -0.7812   -0.0000 C.ar    1  LIG1        0.0361
     11 C          -3.5344   -0.1093   -0.0009 C.ar    1  LIG1       -0.0448
     12 C          -4.6635   -0.9660   -0.0008 C.ar    1  LIG1       -0.0433
     13 C          -4.3379   -2.2945    0.0002 C.ar    1  LIG1        0.0550
     14 S          -2.6106   -2.5019    0.0012 S.2     1  LIG1       -0.0837
     15 H          -3.6015    0.9712   -0.0019 H       1  LIG1        0.0630
     16 H          -5.6868   -0.6109   -0.0015 H       1  LIG1        0.0630
     17 C          -5.2198   -3.4379    0.0006 C.ar    1  LIG1        0.1413
     18 C          -6.5764   -3.5777    0.0004 C.ar    1  LIG1       -0.0154
     19 C          -6.8362   -4.9817    0.0010 C.ar    1  LIG1       -0.0233
     20 C          -5.6269   -5.5913    0.0016 C.ar    1  LIG1        0.0926
     21 O          -4.6326   -4.6663    0.0013 O.2     1  LIG1       -0.4624
     22 H          -5.3116   -6.6220    0.0022 H       1  LIG1        0.1029
     23 H          -7.3014   -2.7781   -0.0001 H       1  LIG1        0.0655
     24 H          -7.8001   -5.4679    0.0011 H       1  LIG1        0.0649
@<TRIPOS>BOND
     1    15    11    1
     2     6     5    1
     3    16    12    1
     4     7     1    1
     5    11    12   ar
     6    11    10   ar
     7    12    13   ar
     8     5     1   ar
     9     5     4   ar
    10     1     2   ar
    11    23    18    1
    12    10     4    1
    13    10    14   ar
    14     4     3   ar
    15    13    17    1
    16    13    14   ar
    17    18    17   ar
    18    18    19   ar
    19    17    21   ar
    20     3     2   ar
    21     3     9    1
    22     2     8    1
    23    19    24    1
    24    19    20   ar
    25    21    20   ar
    26    20    22    1
