@<TRIPOS>MOLECULE
mol_data/opt/cam/geoms/mol2/13513-13.out
 33 36 0 0 0
SMALL
GASTEIGER

@<TRIPOS>ATOM
      1 C           1.3425   -0.1927   -0.0001 C.ar    1  LIG1        0.0022
      2 C           0.9432    1.1202    0.0017 C.ar    1  LIG1       -0.0438
      3 C          -0.4722    1.1316    0.0019 C.ar    1  LIG1       -0.0359
      4 C          -0.9054   -0.1802    0.0003 C.ar    1  LIG1        0.0531
      5 N           0.2190   -0.9724   -0.0008 N.ar    1  LIG1       -0.3603
      6 H           0.2176   -1.9792   -0.0024 H       1  LIG1        0.1653
      7 H           2.3272   -0.6338   -0.0008 H       1  LIG1        0.0807
      8 H           1.5961    1.9804    0.0028 H       1  LIG1        0.0633
      9 H          -1.1113    2.0022    0.0032 H       1  LIG1        0.0639
     10 C          -2.2495   -0.7223   -0.0001 C.ar    1  LIG1        0.0361
     11 C          -3.4357   -0.0423   -0.0013 C.ar    1  LIG1       -0.0449
     12 C          -4.5748   -0.8893   -0.0015 C.ar    1  LIG1       -0.0449
     13 C          -4.2710   -2.2240   -0.0004 C.ar    1  LIG1        0.0361
     14 S          -2.5427   -2.4421    0.0010 S.2     1  LIG1       -0.0853
     15 H          -3.4938    1.0388   -0.0023 H       1  LIG1        0.0630
     16 H          -5.5888   -0.5064   -0.0026 H       1  LIG1        0.0630
     17 C          -5.1550   -3.3685   -0.0003 C.ar    1  LIG1        0.0536
     18 C          -4.8907   -4.7238   -0.0004 C.ar    1  LIG1       -0.0353
     19 C          -6.1275   -5.4058   -0.0002 C.ar    1  LIG1       -0.0344
     20 C          -7.1322   -4.4570    0.0000 C.ar    1  LIG1        0.0633
     21 N          -6.5234   -3.2292   -0.0000 N.ar    1  LIG1       -0.3526
     22 H          -7.0148   -2.3516    0.0006 H       1  LIG1        0.1660
     23 H          -3.9080   -5.1725   -0.0008 H       1  LIG1        0.0639
     24 H          -6.2624   -6.4781   -0.0003 H       1  LIG1        0.0639
     25 C          -8.5737   -4.5878    0.0004 C.ar    1  LIG1        0.0629
     26 C          -9.5772   -3.6395   -0.0007 C.ar    1  LIG1       -0.0350
     27 C         -10.8191   -4.3237    0.0002 C.ar    1  LIG1       -0.0438
     28 C         -10.5451   -5.6671    0.0021 C.ar    1  LIG1        0.0022
     29 N          -9.1845   -5.8171    0.0021 N.ar    1  LIG1       -0.3595
     30 H          -8.6966   -6.6967    0.0033 H       1  LIG1        0.1654
     31 H         -11.2010   -6.5237    0.0033 H       1  LIG1        0.0807
     32 H          -9.4405   -2.5671   -0.0022 H       1  LIG1        0.0639
     33 H         -11.8023   -3.8773   -0.0004 H       1  LIG1        0.0633
@<TRIPOS>BOND
     1    16    12    1
     2     6     5    1
     3    15    11    1
     4    32    26    1
     5    12    11   ar
     6    12    13   ar
     7    11    10   ar
     8     7     1    1
     9     5     1   ar
    10     5     4   ar
    11    23    18    1
    12    26    27   ar
    13    26    25   ar
    14    13    17    1
    15    13    14   ar
    16    18    17   ar
    17    18    19   ar
    18    33    27    1
    19    24    19    1
    20    17    21   ar
    21    19    20   ar
    22    10     4    1
    23    10    14   ar
    24     1     2   ar
    25    21    20   ar
    26    21    22    1
    27    20    25    1
    28    27    28   ar
    29     4     3   ar
    30    25    29   ar
    31     2     3   ar
    32     2     8    1
    33     3     9    1
    34    29    28   ar
    35    29    30    1
    36    28    31    1
