@<TRIPOS>MOLECULE
mol_data/opt/cam/geoms/mol2/13512-.out
 24 26 0 0 0
SMALL
GASTEIGER

@<TRIPOS>ATOM
      1 C           1.2455   -0.2309   -0.0007 C.ar    1  LIG1        0.0022
      2 C           0.8402    1.0805    0.0009 C.ar    1  LIG1       -0.0438
      3 C          -0.5750    1.0853    0.0009 C.ar    1  LIG1       -0.0359
      4 C          -1.0019   -0.2286    0.0001 C.ar    1  LIG1        0.0531
      5 N           0.1263   -1.0158   -0.0008 N.ar    1  LIG1       -0.3603
      6 H           0.1305   -2.0226   -0.0019 H       1  LIG1        0.1653
      7 H           2.2324   -0.6671   -0.0015 H       1  LIG1        0.0807
      8 H           1.4891    1.9437    0.0018 H       1  LIG1        0.0633
      9 H          -1.2184    1.9526    0.0018 H       1  LIG1        0.0639
     10 C          -2.3439   -0.7753   -0.0000 C.ar    1  LIG1        0.0361
     11 C          -3.5330   -0.0977   -0.0010 C.ar    1  LIG1       -0.0448
     12 C          -4.6697   -0.9465   -0.0008 C.ar    1  LIG1       -0.0433
     13 C          -4.3536   -2.2760    0.0003 C.ar    1  LIG1        0.0550
     14 S          -2.6279   -2.4964    0.0013 S.2     1  LIG1       -0.0837
     15 H          -3.5919    0.9833   -0.0021 H       1  LIG1        0.0630
     16 H          -5.6933   -0.5952   -0.0015 H       1  LIG1        0.0630
     17 C          -5.2524   -3.4065    0.0007 C.ar    1  LIG1        0.1413
     18 C          -5.0744   -4.7581    0.0016 C.ar    1  LIG1       -0.0154
     19 C          -6.3799   -5.3368    0.0015 C.ar    1  LIG1       -0.0233
     20 C          -7.2512   -4.3002    0.0007 C.ar    1  LIG1        0.0926
     21 O          -6.5832   -3.1182    0.0002 O.2     1  LIG1       -0.4624
     22 H          -8.3271   -4.2325    0.0003 H       1  LIG1        0.1029
     23 H          -4.1284   -5.2789    0.0022 H       1  LIG1        0.0655
     24 H          -6.6304   -6.3868    0.0021 H       1  LIG1        0.0649
@<TRIPOS>BOND
     1    15    11    1
     2     6     5    1
     3    16    12    1
     4     7     1    1
     5    11    12   ar
     6    11    10   ar
     7    12    13   ar
     8     5     1   ar
     9     5     4   ar
    10     1     2   ar
    11    10     4    1
    12    10    14   ar
    13     4     3   ar
    14    21    20   ar
    15    21    17   ar
    16    22    20    1
    17    13    17    1
    18    13    14   ar
    19    20    19   ar
    20    17    18   ar
    21     3     2   ar
    22     3     9    1
    23     2     8    1
    24    19    18   ar
    25    19    24    1
    26    18    23    1
