@<TRIPOS>MOLECULE
mol_data/opt/cam/geoms/mol2/1354.out
 27 29 0 0 0
SMALL
GASTEIGER

@<TRIPOS>ATOM
      1 C           1.2824   -0.1687    0.0003 C.ar    1  LIG1        0.0022
      2 C           0.8663    1.1395    0.0005 C.ar    1  LIG1       -0.0438
      3 C          -0.5488    1.1324   -0.0001 C.ar    1  LIG1       -0.0359
      4 C          -0.9648   -0.1850    0.0001 C.ar    1  LIG1        0.0531
      5 N           0.1698   -0.9627    0.0003 N.ar    1  LIG1       -0.3603
      6 H           0.1810   -1.9695    0.0001 H       1  LIG1        0.1653
      7 H           2.2729   -0.5966    0.0003 H       1  LIG1        0.0807
      8 H           1.5082    2.0079    0.0008 H       1  LIG1        0.0633
      9 H          -1.1994    1.9944   -0.0002 H       1  LIG1        0.0639
     10 C          -2.3020   -0.7436   -0.0001 C.ar    1  LIG1        0.0360
     11 C          -3.4961   -0.0758   -0.0020 C.ar    1  LIG1       -0.0449
     12 C          -4.6228   -0.9369   -0.0015 C.ar    1  LIG1       -0.0463
     13 C          -4.3110   -2.2686    0.0006 C.ar    1  LIG1        0.0200
     14 S          -2.5756   -2.4620    0.0024 S.2     1  LIG1       -0.0868
     15 H          -3.5669    1.0045   -0.0038 H       1  LIG1        0.0630
     16 H          -5.6405   -0.5677   -0.0031 H       1  LIG1        0.0629
     17 C          -6.5998   -3.2518    0.0034 C.ar    1  LIG1       -0.0535
     18 C          -7.4579   -4.3406    0.0042 C.ar    1  LIG1       -0.0612
     19 C          -5.2100   -3.4291    0.0016 C.ar    1  LIG1       -0.0113
     20 C          -6.9528   -5.6364    0.0034 C.ar    1  LIG1       -0.0617
     21 H          -8.5304   -4.1746    0.0056 H       1  LIG1        0.0618
     22 C          -4.7169   -4.7387    0.0008 C.ar    1  LIG1       -0.0535
     23 C          -5.5769   -5.8279    0.0017 C.ar    1  LIG1       -0.0612
     24 H          -3.6457   -4.9137   -0.0008 H       1  LIG1        0.0624
     25 H          -7.6255   -6.4874    0.0041 H       1  LIG1        0.0618
     26 H          -7.0162   -2.2509    0.0043 H       1  LIG1        0.0624
     27 H          -5.1664   -6.8325    0.0010 H       1  LIG1        0.0618
@<TRIPOS>BOND
     1    15    11    1
     2    16    12    1
     3    11    12   ar
     4    11    10   ar
     5    12    13   ar
     6    24    22    1
     7     9     3    1
     8    10     4    1
     9    10    14   ar
    10     3     4   ar
    11     3     2   ar
    12     4     5   ar
    13     6     5    1
    14     1     7    1
    15     1     5   ar
    16     1     2   ar
    17     2     8    1
    18    13    19    1
    19    13    14   ar
    20    22    19   ar
    21    22    23   ar
    22    27    23    1
    23    19    17   ar
    24    23    20   ar
    25    20    25    1
    26    20    18   ar
    27    17    18   ar
    28    17    26    1
    29    18    21    1
