@<TRIPOS>MOLECULE
mol_data/opt/cam/geoms/mol2/1358.out
 23 25 0 0 0
SMALL
GASTEIGER

@<TRIPOS>ATOM
      1 C           1.2304   -0.2266   -0.0002 C.ar    1  LIG1        0.0022
      2 C           0.8140    1.0831    0.0004 C.ar    1  LIG1       -0.0438
      3 C          -0.5988    1.0749    0.0005 C.ar    1  LIG1       -0.0359
      4 C          -1.0143   -0.2440    0.0000 C.ar    1  LIG1        0.0531
      5 N           0.1215   -1.0215   -0.0004 N.ar    1  LIG1       -0.3603
      6 H           0.1365   -2.0287   -0.0010 H       1  LIG1        0.1653
      7 H           2.2217   -0.6526   -0.0005 H       1  LIG1        0.0807
      8 H           1.4558    1.9513    0.0006 H       1  LIG1        0.0633
      9 H          -1.2497    1.9366    0.0011 H       1  LIG1        0.0639
     10 C          -2.3492   -0.7994   -0.0000 C.ar    1  LIG1        0.0361
     11 C          -3.5411   -0.1113   -0.0008 C.ar    1  LIG1       -0.0448
     12 C          -4.6691   -0.9580   -0.0006 C.ar    1  LIG1       -0.0432
     13 C          -4.3429   -2.2890    0.0003 C.ar    1  LIG1        0.0604
     14 S          -2.6202   -2.5146    0.0010 S.2     1  LIG1       -0.0836
     15 H          -3.5982    0.9693   -0.0015 H       1  LIG1        0.0630
     16 H          -5.6970   -0.6193   -0.0012 H       1  LIG1        0.0630
     17 C          -5.2412   -3.4209    0.0006 C.ar    1  LIG1        0.2098
     18 N          -6.5652   -3.1740    0.0001 N.ar    1  LIG1       -0.1253
     19 C          -6.8185   -5.4189    0.0012 C.ar    1  LIG1        0.1605
     20 N          -4.6985   -4.6509    0.0015 N.ar    1  LIG1       -0.1253
     21 N          -7.3706   -4.2041    0.0004 N.ar    1  LIG1       -0.1339
     22 N          -5.5122   -5.6766    0.0018 N.ar    1  LIG1       -0.1339
     23 H          -7.4919   -6.2680    0.0015 H       1  LIG1        0.1085
@<TRIPOS>BOND
     1    15    11    1
     2    16    12    1
     3     6     5    1
     4    11    12   ar
     5    11    10   ar
     6    12    13   ar
     7     7     1    1
     8     5     1   ar
     9     5     4   ar
    10     1     2   ar
    11    10     4    1
    12    10    14   ar
    13     4     3   ar
    14    18    21   ar
    15    18    17   ar
    16    13    17    1
    17    13    14   ar
    18     2     3   ar
    19     2     8    1
    20    21    19   ar
    21     3     9    1
    22    17    20   ar
    23    19    23    1
    24    19    22   ar
    25    20    22   ar
