@<TRIPOS>MOLECULE
mol_data/opt/cam/geoms/mol2/138-4.out
 26 28 0 0 0
SMALL
GASTEIGER

@<TRIPOS>ATOM
      1 C           1.1958   -0.2928   -0.0006 C.ar    1  LIG1        0.0023
      2 C           0.8179    1.0343   -0.0004 C.ar    1  LIG1       -0.0437
      3 C          -0.5920    1.0707    0.0000 C.ar    1  LIG1       -0.0333
      4 C          -1.0330   -0.2389    0.0001 C.ar    1  LIG1        0.0875
      5 N           0.0715   -1.0539   -0.0003 N.ar    1  LIG1       -0.3582
      6 H           0.0086   -2.0603   -0.0003 H       1  LIG1        0.1654
      7 H           2.1769   -0.7428   -0.0009 H       1  LIG1        0.0807
      8 H           1.4877    1.8812   -0.0006 H       1  LIG1        0.0633
      9 H          -1.2316    1.9400    0.0002 H       1  LIG1        0.0640
     10 C          -2.3599   -0.8028    0.0005 C.ar    1  LIG1        0.2194
     11 N          -2.4608   -2.1423    0.0005 N.ar    1  LIG1       -0.1237
     12 C          -4.7118   -1.8442    0.0012 C.ar    1  LIG1        0.2034
     13 N          -3.4168    0.0300    0.0009 N.ar    1  LIG1       -0.1237
     14 N          -3.6559   -2.6686    0.0008 N.ar    1  LIG1       -0.1252
     15 N          -4.6046   -0.5039    0.0012 N.ar    1  LIG1       -0.1252
     16 C          -7.1914   -1.6107    0.0020 C.ar    1  LIG1       -0.0509
     17 C          -8.4610   -2.1698    0.0024 C.ar    1  LIG1       -0.0611
     18 C          -6.0638   -2.4353    0.0016 C.ar    1  LIG1        0.0226
     19 C          -8.6174   -3.5518    0.0024 C.ar    1  LIG1       -0.0617
     20 H          -9.3325   -1.5235    0.0027 H       1  LIG1        0.0618
     21 C          -6.2243   -3.8232    0.0016 C.ar    1  LIG1       -0.0509
     22 C          -7.4967   -4.3756    0.0020 C.ar    1  LIG1       -0.0611
     23 H          -5.3451   -4.4560    0.0013 H       1  LIG1        0.0625
     24 H          -9.6117   -3.9865    0.0027 H       1  LIG1        0.0618
     25 H          -7.0585   -0.5357    0.0020 H       1  LIG1        0.0625
     26 H          -7.6141   -5.4542    0.0020 H       1  LIG1        0.0618
@<TRIPOS>BOND
     1     7     1    1
     2     1     2   ar
     3     1     5   ar
     4     8     2    1
     5     2     3   ar
     6     6     5    1
     7     5     4   ar
     8     3     4   ar
     9     3     9    1
    10     4    10    1
    11    11    10   ar
    12    11    14   ar
    13    10    13   ar
    14    14    12   ar
    15    13    15   ar
    16    12    15   ar
    17    12    18    1
    18    23    21    1
    19    21    18   ar
    20    21    22   ar
    21    18    16   ar
    22    26    22    1
    23    22    19   ar
    24    16    25    1
    25    16    17   ar
    26    19    17   ar
    27    19    24    1
    28    17    20    1
