@<TRIPOS>MOLECULE
mol_data/opt/cam/geoms/mol2/138-125.out
 30 33 0 0 0
SMALL
GASTEIGER

@<TRIPOS>ATOM
      1 C           1.2053   -0.1621   -0.0000 C.ar    1  LIG1        0.0023
      2 C           0.7828    1.1515    0.0000 C.ar    1  LIG1       -0.0437
      3 C          -0.6276    1.1402    0.0002 C.ar    1  LIG1       -0.0333
      4 C          -1.0243   -0.1837    0.0002 C.ar    1  LIG1        0.0875
      5 N           0.1071   -0.9607    0.0001 N.ar    1  LIG1       -0.3582
      6 H           0.0777   -1.9688    0.0001 H       1  LIG1        0.1654
      7 H           2.2009   -0.5789   -0.0001 H       1  LIG1        0.0807
      8 H           1.4236    2.0205   -0.0000 H       1  LIG1        0.0633
      9 H          -1.2961    1.9875    0.0003 H       1  LIG1        0.0640
     10 C          -2.3307   -0.7929    0.0002 C.ar    1  LIG1        0.2194
     11 N          -2.3859   -2.1343    0.0002 N.ar    1  LIG1       -0.1236
     12 C          -4.6348   -1.9084    0.0004 C.ar    1  LIG1        0.2381
     13 N          -3.4161    0.0077    0.0003 N.ar    1  LIG1       -0.1236
     14 N          -3.5608   -2.7083    0.0003 N.ar    1  LIG1       -0.1220
     15 N          -4.5842   -0.5617    0.0004 N.ar    1  LIG1       -0.1220
     16 C          -5.9560   -2.4986    0.0005 C.ar    1  LIG1        0.1760
     17 C          -7.1997   -1.9372    0.0006 C.ar    1  LIG1       -0.0120
     18 C          -8.1229   -3.0127    0.0006 C.ar    1  LIG1       -0.0146
     19 C          -7.3777   -4.1612    0.0005 C.ar    1  LIG1        0.1424
     20 O          -6.0579   -3.8543    0.0004 O.2     1  LIG1       -0.4511
     21 H          -7.4083   -0.8787    0.0006 H       1  LIG1        0.0657
     22 H          -9.2002   -2.9499    0.0007 H       1  LIG1        0.0656
     23 C          -7.7233   -5.5630    0.0005 C.ar    1  LIG1        0.0544
     24 C          -8.9761   -6.1175    0.0004 C.ar    1  LIG1       -0.0440
     25 C          -8.9512   -7.5377    0.0004 C.ar    1  LIG1       -0.0540
     26 C          -7.6844   -8.0378    0.0006 C.ar    1  LIG1       -0.0236
     27 S          -6.4965   -6.7915    0.0007 S.2     1  LIG1       -0.0936
     28 H          -7.3778   -9.0738    0.0007 H       1  LIG1        0.0693
     29 H          -9.8848   -5.5283    0.0002 H       1  LIG1        0.0630
     30 H          -9.8396   -8.1565    0.0003 H       1  LIG1        0.0623
@<TRIPOS>BOND
     1     7     1    1
     2     8     2    1
     3     1     2   ar
     4     1     5   ar
     5     2     3   ar
     6     6     5    1
     7     5     4   ar
     8     4     3   ar
     9     4    10    1
    10     3     9    1
    11    11    10   ar
    12    11    14   ar
    13    29    24    1
    14    10    13   ar
    15    14    12   ar
    16    30    25    1
    17    13    15   ar
    18    24    25   ar
    19    24    23   ar
    20    12    15   ar
    21    12    16    1
    22    25    26   ar
    23    20    16   ar
    24    20    19   ar
    25    16    17   ar
    26    23    19    1
    27    23    27   ar
    28    19    18   ar
    29    17    18   ar
    30    17    21    1
    31    26    28    1
    32    26    27   ar
    33    18    22    1
