@<TRIPOS>MOLECULE
mol_data/opt/cam/geoms/mol2/138-1312.out
 31 34 0 0 0
SMALL
GASTEIGER

@<TRIPOS>ATOM
      1 C           1.1897   -0.3342   -0.0002 C.ar    1  LIG1        0.0023
      2 C           0.8330    0.9981   -0.0005 C.ar    1  LIG1       -0.0437
      3 C          -0.5770    1.0570   -0.0003 C.ar    1  LIG1       -0.0333
      4 C          -1.0391   -0.2448    0.0000 C.ar    1  LIG1        0.0875
      5 N           0.0520   -1.0772    0.0001 N.ar    1  LIG1       -0.3582
      6 H          -0.0266   -2.0824    0.0004 H       1  LIG1        0.1654
      7 H           2.1631   -0.8004   -0.0002 H       1  LIG1        0.0807
      8 H           1.5160    1.8344   -0.0008 H       1  LIG1        0.0633
      9 H          -1.2026    1.9365   -0.0004 H       1  LIG1        0.0640
     10 C          -2.3764   -0.7871    0.0003 C.ar    1  LIG1        0.2194
     11 N          -2.5028   -2.1223    0.0006 N.ar    1  LIG1       -0.1237
     12 C          -4.7449   -1.7719    0.0008 C.ar    1  LIG1        0.2194
     13 N          -3.4184    0.0704    0.0002 N.ar    1  LIG1       -0.1237
     14 N          -3.7097   -2.6250    0.0009 N.ar    1  LIG1       -0.1237
     15 N          -4.6178   -0.4283    0.0005 N.ar    1  LIG1       -0.1237
     16 C          -6.0722   -2.3344    0.0011 C.ar    1  LIG1        0.0880
     17 C          -7.3199   -1.7360    0.0011 C.ar    1  LIG1       -0.0325
     18 C          -8.2775   -2.7655    0.0014 C.ar    1  LIG1       -0.0327
     19 C          -7.5915   -3.9723    0.0016 C.ar    1  LIG1        0.0826
     20 N          -6.2590   -3.6920    0.0014 N.ar    1  LIG1       -0.3492
     21 H          -5.5100   -4.3680    0.0015 H       1  LIG1        0.1661
     22 H          -7.4961   -0.6714    0.0008 H       1  LIG1        0.0640
     23 H          -9.3513   -2.6529    0.0015 H       1  LIG1        0.0640
     24 C          -8.0669   -5.3346    0.0020 C.ar    1  LIG1        0.1509
     25 C          -9.3029   -5.9060    0.0022 C.ar    1  LIG1       -0.0144
     26 C          -9.0916   -7.3187    0.0025 C.ar    1  LIG1       -0.0233
     27 C          -7.7503   -7.5031    0.0025 C.ar    1  LIG1        0.0926
     28 O          -7.1088   -6.3047    0.0022 O.2     1  LIG1       -0.4615
     29 H          -7.1181   -8.3762    0.0027 H       1  LIG1        0.1029
     30 H         -10.2476   -5.3841    0.0021 H       1  LIG1        0.0656
     31 H          -9.8451   -8.0917    0.0027 H       1  LIG1        0.0649
@<TRIPOS>BOND
     1     8     2    1
     2     2     3   ar
     3     2     1   ar
     4     9     3    1
     5     3     4   ar
     6     1     7    1
     7     1     5   ar
     8     4     5   ar
     9     4    10    1
    10     5     6    1
    11    13    10   ar
    12    13    15   ar
    13    10    11   ar
    14    15    12   ar
    15    11    14   ar
    16    12    14   ar
    17    12    16    1
    18    22    17    1
    19    16    17   ar
    20    16    20   ar
    21    17    18   ar
    22    20    21    1
    23    20    19   ar
    24    18    23    1
    25    18    19   ar
    26    19    24    1
    27    24    25   ar
    28    24    28   ar
    29    30    25    1
    30    25    26   ar
    31    28    27   ar
    32    27    26   ar
    33    27    29    1
    34    26    31    1
