@<TRIPOS>MOLECULE
mol_data/opt/cam/geoms/mol2/138-5-5-.out
 30 33 0 0 0
SMALL
GASTEIGER

@<TRIPOS>ATOM
      1 C           1.2448   -0.2912   -0.0002 C.ar    1  LIG1        0.0023
      2 C           0.8611    1.0342   -0.0005 C.ar    1  LIG1       -0.0437
      3 C          -0.5489    1.0646   -0.0004 C.ar    1  LIG1       -0.0333
      4 C          -0.9846   -0.2470   -0.0000 C.ar    1  LIG1        0.0875
      5 N           0.1235   -1.0572    0.0001 N.ar    1  LIG1       -0.3582
      6 H           0.0655   -2.0638    0.0004 H       1  LIG1        0.1654
      7 H           2.2277   -0.7372   -0.0002 H       1  LIG1        0.0807
      8 H           1.5271    1.8840   -0.0008 H       1  LIG1        0.0633
      9 H          -1.1921    1.9312   -0.0005 H       1  LIG1        0.0640
     10 C          -2.3091   -0.8157    0.0003 C.ar    1  LIG1        0.2194
     11 N          -2.4037   -2.1577    0.0006 N.ar    1  LIG1       -0.1237
     12 C          -4.6491   -1.8665    0.0008 C.ar    1  LIG1        0.2099
     13 N          -3.3692    0.0133    0.0002 N.ar    1  LIG1       -0.1237
     14 N          -3.5925   -2.6943    0.0009 N.ar    1  LIG1       -0.1246
     15 N          -4.5543   -0.5249    0.0004 N.ar    1  LIG1       -0.1246
     16 C          -5.9759   -2.4510    0.0011 C.ar    1  LIG1        0.0604
     17 C          -6.3023   -3.7810    0.0015 C.ar    1  LIG1       -0.0432
     18 C          -7.6966   -4.0031    0.0017 C.ar    1  LIG1       -0.0457
     19 C          -8.4301   -2.8403    0.0015 C.ar    1  LIG1        0.0266
     20 S          -7.3911   -1.4493    0.0010 S.2     1  LIG1       -0.0845
     21 H          -5.5513   -4.5601    0.0016 H       1  LIG1        0.0630
     22 H          -8.1457   -4.9879    0.0021 H       1  LIG1        0.0629
     23 C          -9.8793   -2.7194    0.0017 C.ar    1  LIG1        0.0259
     24 C         -10.7979   -3.7370    0.0008 C.ar    1  LIG1       -0.0464
     25 C         -12.1431   -3.2808    0.0013 C.ar    1  LIG1       -0.0541
     26 C         -12.2367   -1.9231    0.0024 C.ar    1  LIG1       -0.0237
     27 S         -10.6850   -1.1773    0.0030 S.2     1  LIG1       -0.0961
     28 H         -13.1283   -1.3132    0.0029 H       1  LIG1        0.0693
     29 H         -10.5204   -4.7835   -0.0002 H       1  LIG1        0.0629
     30 H         -13.0027   -3.9391    0.0007 H       1  LIG1        0.0623
@<TRIPOS>BOND
     1     8     2    1
     2     2     3   ar
     3     2     1   ar
     4     9     3    1
     5     3     4   ar
     6     1     7    1
     7     1     5   ar
     8    29    24    1
     9     4     5   ar
    10     4    10    1
    11     5     6    1
    12    13    10   ar
    13    13    15   ar
    14    10    11   ar
    15    15    12   ar
    16    11    14   ar
    17    30    25    1
    18    12    14   ar
    19    12    16    1
    20    24    25   ar
    21    24    23   ar
    22    20    16   ar
    23    20    19   ar
    24    16    17   ar
    25    25    26   ar
    26    17    21    1
    27    17    18   ar
    28    19    23    1
    29    19    18   ar
    30    23    27   ar
    31    18    22    1
    32    26    28    1
    33    26    27   ar
