@<TRIPOS>MOLECULE
mol_data/opt/cam/geoms/mol2/138-13-.out
 24 26 0 0 0
SMALL
GASTEIGER

@<TRIPOS>ATOM
      1 C           1.1724   -0.2935   -0.0001 C.ar    1  LIG1        0.0023
      2 C           0.7892    1.0315    0.0005 C.ar    1  LIG1       -0.0437
      3 C          -0.6217    1.0623   -0.0000 C.ar    1  LIG1       -0.0333
      4 C          -1.0575   -0.2486    0.0002 C.ar    1  LIG1        0.0875
      5 N           0.0500   -1.0590    0.0000 N.ar    1  LIG1       -0.3582
      6 H          -0.0096   -2.0656   -0.0000 H       1  LIG1        0.1654
      7 H           2.1550   -0.7402   -0.0003 H       1  LIG1        0.0807
      8 H           1.4554    1.8813    0.0008 H       1  LIG1        0.0633
      9 H          -1.2643    1.9295   -0.0000 H       1  LIG1        0.0640
     10 C          -2.3829   -0.8202    0.0002 C.ar    1  LIG1        0.2194
     11 N          -2.4725   -2.1634    0.0002 N.ar    1  LIG1       -0.1237
     12 C          -4.7178   -1.8838    0.0003 C.ar    1  LIG1        0.2194
     13 N          -3.4443    0.0041    0.0002 N.ar    1  LIG1       -0.1237
     14 N          -3.6565   -2.7081    0.0002 N.ar    1  LIG1       -0.1237
     15 N          -4.6283   -0.5406    0.0003 N.ar    1  LIG1       -0.1237
     16 C          -6.0433   -2.4554    0.0002 C.ar    1  LIG1        0.0875
     17 C          -6.4790   -3.7663    0.0001 C.ar    1  LIG1       -0.0333
     18 C          -7.8900   -3.7355    0.0007 C.ar    1  LIG1       -0.0437
     19 C          -8.2731   -2.4104    0.0000 C.ar    1  LIG1        0.0023
     20 N          -7.1507   -1.6450    0.0001 N.ar    1  LIG1       -0.3582
     21 H          -7.0911   -0.6384    0.0001 H       1  LIG1        0.1654
     22 H          -9.2557   -1.9637   -0.0001 H       1  LIG1        0.0807
     23 H          -5.8365   -4.6335    0.0001 H       1  LIG1        0.0640
     24 H          -8.5562   -4.5852    0.0011 H       1  LIG1        0.0633
@<TRIPOS>BOND
     1     7     1    1
     2     1     5   ar
     3     1     2   ar
     4    22    19    1
     5     9     3    1
     6     6     5    1
     7     3     4   ar
     8     3     2   ar
     9    19    20   ar
    10    19    18   ar
    11     5     4   ar
    12    23    17    1
    13    21    20    1
    14    17    16   ar
    15    17    18   ar
    16    20    16   ar
    17     4    10    1
    18    11    14   ar
    19    11    10   ar
    20    13    10   ar
    21    13    15   ar
    22    14    12   ar
    23    16    12    1
    24    15    12   ar
    25     2     8    1
    26    18    24    1
