@<TRIPOS>MOLECULE
mol_data/opt/cam/geoms/mol2/138-8-.out
 22 24 0 0 0
SMALL
GASTEIGER

@<TRIPOS>ATOM
      1 C           1.1624   -0.3167   -0.0001 C.ar    1  LIG1        0.0023
      2 C           0.7870    1.0136   -0.0000 C.ar    1  LIG1       -0.0437
      3 C          -0.6197    1.0526    0.0002 C.ar    1  LIG1       -0.0333
      4 C          -1.0642   -0.2586    0.0001 C.ar    1  LIG1        0.0875
      5 N           0.0403   -1.0760   -0.0000 N.ar    1  LIG1       -0.3582
      6 H          -0.0220   -2.0829   -0.0000 H       1  LIG1        0.1654
      7 H           2.1435   -0.7669   -0.0002 H       1  LIG1        0.0807
      8 H           1.4591    1.8584   -0.0001 H       1  LIG1        0.0633
      9 H          -1.2583    1.9227    0.0003 H       1  LIG1        0.0640
     10 C          -2.3872   -0.8142    0.0002 C.ar    1  LIG1        0.2194
     11 N          -2.4920   -2.1574    0.0002 N.ar    1  LIG1       -0.1236
     12 C          -4.7268   -1.8391    0.0004 C.ar    1  LIG1        0.2435
     13 N          -3.4423    0.0262    0.0004 N.ar    1  LIG1       -0.1236
     14 N          -3.6882   -2.6783    0.0003 N.ar    1  LIG1       -0.1218
     15 N          -4.6320   -0.5027    0.0005 N.ar    1  LIG1       -0.1218
     16 C          -6.0905   -2.4314    0.0006 C.ar    1  LIG1        0.2434
     17 N          -6.1809   -3.7659    0.0008 N.ar    1  LIG1       -0.1224
     18 C          -8.4140   -3.4423    0.0008 C.ar    1  LIG1        0.1605
     19 N          -7.1283   -1.5878    0.0005 N.ar    1  LIG1       -0.1224
     20 N          -7.3844   -4.2876    0.0009 N.ar    1  LIG1       -0.1338
     21 N          -8.3304   -2.1129    0.0006 N.ar    1  LIG1       -0.1338
     22 H          -9.4083   -3.8748    0.0009 H       1  LIG1        0.1085
@<TRIPOS>BOND
     1     7     1    1
     2     8     2    1
     3     1     2   ar
     4     1     5   ar
     5     6     5    1
     6     2     3   ar
     7     5     4   ar
     8     4     3   ar
     9     4    10    1
    10    11    10   ar
    11    11    14   ar
    12     3     9    1
    13    10    13   ar
    14    14    12   ar
    15    13    15   ar
    16    12    15   ar
    17    12    16    1
    18    19    21   ar
    19    19    16   ar
    20    21    18   ar
    21    16    17   ar
    22    18    22    1
    23    18    20   ar
    24    17    20   ar
