@<TRIPOS>MOLECULE
mol_data/opt/cam/geoms/mol2/138-5-4.out
 33 36 0 0 0
SMALL
GASTEIGER

@<TRIPOS>ATOM
      1 C           1.2693   -0.2920    0.0097 C.ar    1  LIG1        0.0023
      2 C           0.8925    1.0162   -0.2152 C.ar    1  LIG1       -0.0437
      3 C          -0.5164    1.0451   -0.2712 C.ar    1  LIG1       -0.0333
      4 C          -0.9583   -0.2500   -0.0784 C.ar    1  LIG1        0.0875
      5 N           0.1449   -1.0490    0.0907 N.ar    1  LIG1       -0.3582
      6 H           0.0817   -2.0429    0.2488 H       1  LIG1        0.1654
      7 H           2.2493   -0.7315    0.1164 H       1  LIG1        0.0807
      8 H           1.5625    1.8557   -0.3262 H       1  LIG1        0.0633
      9 H          -1.1550    1.9002   -0.4323 H       1  LIG1        0.0640
     10 C          -2.2850   -0.8127   -0.0355 C.ar    1  LIG1        0.2194
     11 N          -2.3860   -2.1376    0.1735 N.ar    1  LIG1       -0.1237
     12 C          -4.6290   -1.8515    0.0503 C.ar    1  LIG1        0.2099
     13 N          -3.3402    0.0052   -0.2039 N.ar    1  LIG1       -0.1237
     14 N          -3.5771   -2.6680    0.2168 N.ar    1  LIG1       -0.1246
     15 N          -4.5275   -0.5267   -0.1590 N.ar    1  LIG1       -0.1246
     16 C          -5.9587   -2.4302    0.0976 C.ar    1  LIG1        0.0604
     17 C          -6.2874   -3.7436    0.3025 C.ar    1  LIG1       -0.0432
     18 C          -7.6841   -3.9647    0.2919 C.ar    1  LIG1       -0.0462
     19 C          -8.4128   -2.8216    0.0795 C.ar    1  LIG1        0.0200
     20 S          -7.3707   -1.4483   -0.1202 S.2     1  LIG1       -0.0850
     21 H          -5.5392   -4.5086    0.4634 H       1  LIG1        0.0630
     22 H          -8.1407   -4.9311    0.4649 H       1  LIG1        0.0629
     23 C         -10.5157   -1.5053    0.3954 C.ar    1  LIG1       -0.0535
     24 C         -11.8977   -1.3965    0.3298 C.ar    1  LIG1       -0.0612
     25 C          -9.8741   -2.6867    0.0093 C.ar    1  LIG1       -0.0113
     26 C         -12.6645   -2.4670   -0.1153 C.ar    1  LIG1       -0.0617
     27 H         -12.3776   -0.4729    0.6363 H       1  LIG1        0.0618
     28 C         -10.6555   -3.7547   -0.4458 C.ar    1  LIG1       -0.0535
     29 C         -12.0374   -3.6467   -0.5014 C.ar    1  LIG1       -0.0612
     30 H         -10.1711   -4.6669   -0.7770 H       1  LIG1        0.0624
     31 H         -13.7450   -2.3820   -0.1637 H       1  LIG1        0.0618
     32 H          -9.9282   -0.6722    0.7677 H       1  LIG1        0.0624
     33 H         -12.6269   -4.4846   -0.8590 H       1  LIG1        0.0618
@<TRIPOS>BOND
     1    33    29    1
     2    30    28    1
     3    29    28   ar
     4    29    26   ar
     5    28    25   ar
     6     9     3    1
     7     8     2    1
     8     3     2   ar
     9     3     4   ar
    10     2     1   ar
    11    13    15   ar
    12    13    10   ar
    13    31    26    1
    14    15    12   ar
    15    20    19   ar
    16    20    16   ar
    17    26    24   ar
    18     4    10    1
    19     4     5   ar
    20    10    11   ar
    21    25    19    1
    22    25    23   ar
    23     1     5   ar
    24     1     7    1
    25    12    16    1
    26    12    14   ar
    27    19    18   ar
    28     5     6    1
    29    16    17   ar
    30    11    14   ar
    31    18    17   ar
    32    18    22    1
    33    17    21    1
    34    24    23   ar
    35    24    27    1
    36    23    32    1
