@<TRIPOS>MOLECULE
mol_data/opt/cam/geoms/mol2/138-13.out
 24 26 0 0 0
SMALL
GASTEIGER

@<TRIPOS>ATOM
      1 C           1.1751   -0.3289   -0.0005 C.ar    1  LIG1        0.0023
      2 C           0.8086    1.0007    0.0002 C.ar    1  LIG1       -0.0437
      3 C          -0.6019    1.0493   -0.0002 C.ar    1  LIG1       -0.0333
      4 C          -1.0542   -0.2558    0.0001 C.ar    1  LIG1        0.0875
      5 N           0.0429   -1.0804   -0.0002 N.ar    1  LIG1       -0.3582
      6 H          -0.0281   -2.0860   -0.0002 H       1  LIG1        0.1654
      7 H           2.1520   -0.7879   -0.0007 H       1  LIG1        0.0807
      8 H           1.4854    1.8420    0.0004 H       1  LIG1        0.0633
      9 H          -1.2339    1.9242   -0.0001 H       1  LIG1        0.0640
     10 C          -2.3879   -0.8078    0.0003 C.ar    1  LIG1        0.2194
     11 N          -2.5045   -2.1437    0.0004 N.ar    1  LIG1       -0.1237
     12 C          -4.7497   -1.8092    0.0006 C.ar    1  LIG1        0.2194
     13 N          -3.4357    0.0419    0.0004 N.ar    1  LIG1       -0.1237
     14 N          -3.7084   -2.6542    0.0005 N.ar    1  LIG1       -0.1237
     15 N          -4.6320   -0.4653    0.0006 N.ar    1  LIG1       -0.1237
     16 C          -6.0736   -2.3841    0.0009 C.ar    1  LIG1        0.0875
     17 C          -7.3262   -1.8018    0.0012 C.ar    1  LIG1       -0.0333
     18 C          -8.2719   -2.8495    0.0008 C.ar    1  LIG1       -0.0437
     19 C          -7.5710   -4.0373    0.0014 C.ar    1  LIG1        0.0023
     20 N          -6.2437   -3.7459    0.0011 N.ar    1  LIG1       -0.3582
     21 H          -5.4715   -4.3941    0.0010 H       1  LIG1        0.1654
     22 H          -7.9202   -5.0586    0.0016 H       1  LIG1        0.0807
     23 H          -7.5156   -0.7393    0.0013 H       1  LIG1        0.0640
     24 H          -9.3471   -2.7511    0.0006 H       1  LIG1        0.0633
@<TRIPOS>BOND
     1     7     1    1
     2     1     5   ar
     3     1     2   ar
     4     6     5    1
     5     3     9    1
     6     3     4   ar
     7     3     2   ar
     8     5     4   ar
     9     4    10    1
    10     2     8    1
    11    10    11   ar
    12    10    13   ar
    13    11    14   ar
    14    13    15   ar
    15    14    12   ar
    16    24    18    1
    17    12    15   ar
    18    12    16    1
    19    18    17   ar
    20    18    19   ar
    21    16    20   ar
    22    16    17   ar
    23    21    20    1
    24    20    19   ar
    25    17    23    1
    26    19    22    1
