@<TRIPOS>MOLECULE
mol_data/opt/cam/geoms/mol2/138.out
 16 17 0 0 0
SMALL
GASTEIGER

@<TRIPOS>ATOM
      1 C           1.1405   -0.3123    0.0000 C.ar    1  LIG1        0.0023
      2 C           0.7559    1.0138    0.0001 C.ar    1  LIG1       -0.0437
      3 C          -0.6532    1.0428    0.0002 C.ar    1  LIG1       -0.0333
      4 C          -1.0876   -0.2696    0.0001 C.ar    1  LIG1        0.0875
      5 N           0.0215   -1.0791    0.0001 N.ar    1  LIG1       -0.3582
      6 H          -0.0357   -2.0860   -0.0000 H       1  LIG1        0.1654
      7 H           2.1242   -0.7568   -0.0000 H       1  LIG1        0.0807
      8 H           1.4216    1.8639    0.0000 H       1  LIG1        0.0633
      9 H          -1.2977    1.9086    0.0002 H       1  LIG1        0.0640
     10 C          -2.4108   -0.8393    0.0001 C.ar    1  LIG1        0.2193
     11 N          -3.4694   -0.0061    0.0002 N.ar    1  LIG1       -0.1243
     12 C          -4.7332   -1.8808    0.0002 C.ar    1  LIG1        0.1605
     13 N          -2.4998   -2.1817    0.0001 N.ar    1  LIG1       -0.1243
     14 N          -4.6588   -0.5476    0.0002 N.ar    1  LIG1       -0.1338
     15 N          -3.6963   -2.7150    0.0001 N.ar    1  LIG1       -0.1338
     16 H          -5.7237   -2.3204    0.0003 H       1  LIG1        0.1085
@<TRIPOS>BOND
     1     6     5    1
     2     7     1    1
     3     8     2    1
     4     1     2   ar
     5     1     5   ar
     6     2     3   ar
     7     5     4   ar
     8    13    15   ar
     9    13    10   ar
    10    15    12   ar
    11     4    10    1
    12     4     3   ar
    13    10    11   ar
    14     3     9    1
    15    12    14   ar
    16    12    16    1
    17    11    14   ar
