@<TRIPOS>MOLECULE
mol_data/opt/cam/geoms/mol2/13812.out
 23 25 0 0 0
SMALL
GASTEIGER

@<TRIPOS>ATOM
      1 C           1.1624   -0.2702   -0.0001 C.ar    1  LIG1        0.0023
      2 C           0.7601    1.0498    0.0000 C.ar    1  LIG1       -0.0437
      3 C          -0.6502    1.0602    0.0001 C.ar    1  LIG1       -0.0333
      4 C          -1.0671   -0.2574    0.0001 C.ar    1  LIG1        0.0875
      5 N           0.0522   -1.0518    0.0000 N.ar    1  LIG1       -0.3582
      6 H           0.0075   -2.0593   -0.0000 H       1  LIG1        0.1654
      7 H           2.1515   -0.7022   -0.0002 H       1  LIG1        0.0807
      8 H           1.4142    1.9089   -0.0000 H       1  LIG1        0.0633
      9 H          -1.3056    1.9177    0.0002 H       1  LIG1        0.0640
     10 C          -2.3829   -0.8463    0.0002 C.ar    1  LIG1        0.2194
     11 N          -3.4556   -0.0296    0.0003 N.ar    1  LIG1       -0.1236
     12 C          -4.7035   -1.9267    0.0004 C.ar    1  LIG1        0.2381
     13 N          -2.4584   -2.1867    0.0002 N.ar    1  LIG1       -0.1236
     14 N          -4.6325   -0.5820    0.0004 N.ar    1  LIG1       -0.1220
     15 N          -3.6425   -2.7424    0.0003 N.ar    1  LIG1       -0.1220
     16 C          -6.0364   -2.4989    0.0005 C.ar    1  LIG1        0.1751
     17 C          -7.2687   -1.9160    0.0006 C.ar    1  LIG1       -0.0126
     18 C          -8.2098   -2.9841    0.0007 C.ar    1  LIG1       -0.0232
     19 C          -7.4770   -4.1277    0.0006 C.ar    1  LIG1        0.0927
     20 O          -6.1553   -3.8516    0.0005 O.2     1  LIG1       -0.4597
     21 H          -7.7384   -5.1740    0.0006 H       1  LIG1        0.1029
     22 H          -7.4609   -0.8545    0.0007 H       1  LIG1        0.0656
     23 H          -9.2866   -2.9104    0.0008 H       1  LIG1        0.0649
@<TRIPOS>BOND
     1     7     1    1
     2     1     5   ar
     3     1     2   ar
     4     6     5    1
     5     8     2    1
     6     5     4   ar
     7     2     3   ar
     8     3     4   ar
     9     3     9    1
    10     4    10    1
    11    13    10   ar
    12    13    15   ar
    13    10    11   ar
    14    15    12   ar
    15    11    14   ar
    16    12    14   ar
    17    12    16    1
    18    20    16   ar
    19    20    19   ar
    20    16    17   ar
    21    19    21    1
    22    19    18   ar
    23    17    22    1
    24    17    18   ar
    25    18    23    1
