@<TRIPOS>MOLECULE
mol_data/opt/cam/geoms/mol2/13812-13.out
 31 34 0 0 0
SMALL
GASTEIGER

@<TRIPOS>ATOM
      1 C           1.2665   -0.4381    0.0001 C.ar    1  LIG1        0.0023
      2 C           0.9517    0.9051   -0.0005 C.ar    1  LIG1       -0.0437
      3 C          -0.4553    1.0083    0.0003 C.ar    1  LIG1       -0.0333
      4 C          -0.9579   -0.2787    0.0001 C.ar    1  LIG1        0.0875
      5 N           0.1067   -1.1451   -0.0000 N.ar    1  LIG1       -0.3582
      6 H          -0.0041   -2.1473   -0.0000 H       1  LIG1        0.1654
      7 H           2.2250   -0.9344    0.0002 H       1  LIG1        0.0807
      8 H           1.6608    1.7195   -0.0010 H       1  LIG1        0.0633
      9 H          -1.0533    1.9068    0.0005 H       1  LIG1        0.0640
     10 C          -2.3107   -0.7794    0.0002 C.ar    1  LIG1        0.2194
     11 N          -3.3267    0.1013    0.0004 N.ar    1  LIG1       -0.1236
     12 C          -4.6981   -1.7053    0.0005 C.ar    1  LIG1        0.2381
     13 N          -2.4716   -2.1156    0.0001 N.ar    1  LIG1       -0.1236
     14 N          -4.5427   -0.3696    0.0006 N.ar    1  LIG1       -0.1220
     15 N          -3.6857   -2.5884    0.0002 N.ar    1  LIG1       -0.1220
     16 C          -6.0353   -2.2554    0.0006 C.ar    1  LIG1        0.1760
     17 C          -6.4873   -3.5425    0.0006 C.ar    1  LIG1       -0.0120
     18 C          -7.9032   -3.4673    0.0008 C.ar    1  LIG1       -0.0137
     19 C          -8.2191   -2.1334    0.0010 C.ar    1  LIG1        0.1519
     20 O          -7.0878   -1.3924    0.0008 O.2     1  LIG1       -0.4501
     21 H          -5.8663   -4.4248    0.0004 H       1  LIG1        0.0657
     22 H          -8.5946   -4.2969    0.0008 H       1  LIG1        0.0656
     23 C          -9.4606   -1.4042    0.0012 C.ar    1  LIG1        0.0821
     24 C          -9.6960   -0.0448    0.0013 C.ar    1  LIG1       -0.0334
     25 C         -11.0982    0.1429    0.0021 C.ar    1  LIG1       -0.0437
     26 C         -11.6801   -1.1016    0.0012 C.ar    1  LIG1        0.0023
     27 N         -10.6824   -2.0349    0.0012 N.ar    1  LIG1       -0.3583
     28 H         -10.8207   -3.0314    0.0009 H       1  LIG1        0.1654
     29 H         -12.7183   -1.3962    0.0011 H       1  LIG1        0.0807
     30 H          -8.9297    0.7155    0.0013 H       1  LIG1        0.0640
     31 H         -11.6237    1.0862    0.0027 H       1  LIG1        0.0633
@<TRIPOS>BOND
     1     8     2    1
     2     2     1   ar
     3     2     3   ar
     4     6     5    1
     5     5     4   ar
     6     5     1   ar
     7    13    10   ar
     8    13    15   ar
     9     4    10    1
    10     4     3   ar
    11     1     7    1
    12    10    11   ar
    13    15    12   ar
    14     3     9    1
    15    21    17    1
    16    11    14   ar
    17    12    14   ar
    18    12    16    1
    19    17    16   ar
    20    17    18   ar
    21    16    20   ar
    22    18    22    1
    23    18    19   ar
    24    20    19   ar
    25    28    27    1
    26    19    23    1
    27    29    26    1
    28    23    27   ar
    29    23    24   ar
    30    27    26   ar
    31    26    25   ar
    32    30    24    1
    33    24    25   ar
    34    25    31    1
