@<TRIPOS>MOLECULE
mol_data/opt/cam/geoms/mol2/13812-13-.out
 31 34 0 0 0
SMALL
GASTEIGER

@<TRIPOS>ATOM
      1 C           1.2500   -0.4106    0.0004 C.ar    1  LIG1        0.0023
      2 C           0.9222    0.9296   -0.0005 C.ar    1  LIG1       -0.0437
      3 C          -0.4857    1.0191    0.0002 C.ar    1  LIG1       -0.0333
      4 C          -0.9759   -0.2728    0.0001 C.ar    1  LIG1        0.0875
      5 N           0.0972   -1.1288    0.0002 N.ar    1  LIG1       -0.3582
      6 H          -0.0035   -2.1321    0.0003 H       1  LIG1        0.1654
      7 H           2.2133   -0.8975    0.0006 H       1  LIG1        0.0807
      8 H           1.6233    1.7508   -0.0010 H       1  LIG1        0.0633
      9 H          -1.0922    1.9118    0.0003 H       1  LIG1        0.0640
     10 C          -2.3236   -0.7867    0.0002 C.ar    1  LIG1        0.2194
     11 N          -3.3485    0.0832    0.0002 N.ar    1  LIG1       -0.1236
     12 C          -4.7016   -1.7384    0.0004 C.ar    1  LIG1        0.2381
     13 N          -2.4711   -2.1250    0.0002 N.ar    1  LIG1       -0.1236
     14 N          -4.5596   -0.4008    0.0003 N.ar    1  LIG1       -0.1220
     15 N          -3.6795   -2.6110    0.0004 N.ar    1  LIG1       -0.1220
     16 C          -6.0336   -2.2969    0.0005 C.ar    1  LIG1        0.1760
     17 C          -6.4897   -3.5829    0.0006 C.ar    1  LIG1       -0.0120
     18 C          -7.9059   -3.5099    0.0007 C.ar    1  LIG1       -0.0137
     19 C          -8.2225   -2.1781    0.0007 C.ar    1  LIG1        0.1519
     20 O          -7.0885   -1.4334    0.0005 O.2     1  LIG1       -0.4501
     21 H          -5.8693   -4.4657    0.0006 H       1  LIG1        0.0657
     22 H          -8.6052   -4.3316    0.0009 H       1  LIG1        0.0656
     23 C          -9.4561   -1.4362    0.0007 C.ar    1  LIG1        0.0821
     24 C         -10.7759   -1.8426    0.0010 C.ar    1  LIG1       -0.0334
     25 C         -11.5756   -0.6761    0.0003 C.ar    1  LIG1       -0.0437
     26 C         -10.7259    0.4057    0.0009 C.ar    1  LIG1        0.0023
     27 N          -9.4459   -0.0635    0.0006 N.ar    1  LIG1       -0.3583
     28 H          -8.6026    0.4884    0.0006 H       1  LIG1        0.1654
     29 H         -10.9328    1.4647    0.0010 H       1  LIG1        0.0807
     30 H         -11.1195   -2.8666    0.0011 H       1  LIG1        0.0640
     31 H         -12.6545   -0.6327   -0.0001 H       1  LIG1        0.0633
@<TRIPOS>BOND
     1     8     2    1
     2     2     3   ar
     3     2     1   ar
     4    31    25    1
     5     4    10    1
     6     4     5   ar
     7     4     3   ar
     8    10    11   ar
     9    10    13   ar
    10    11    14   ar
    11     5     6    1
    12     5     1   ar
    13     3     9    1
    14    13    15   ar
    15    25    26   ar
    16    25    24   ar
    17    14    12   ar
    18    15    12   ar
    19     1     7    1
    20    12    16    1
    21    16    20   ar
    22    16    17   ar
    23    20    19   ar
    24    21    17    1
    25    17    18   ar
    26    28    27    1
    27    27    23   ar
    28    27    26   ar
    29    19    23    1
    30    19    18   ar
    31    23    24   ar
    32    18    22    1
    33    26    29    1
    34    24    30    1
