@<TRIPOS>MOLECULE
mol_data/opt/cam/geoms/mol2/1381313-.out
 32 35 0 0 0
SMALL
GASTEIGER

@<TRIPOS>ATOM
      1 C           1.2012   -0.3317   -0.0008 C.ar    1  LIG1        0.0023
      2 C           0.8475    1.0012   -0.0006 C.ar    1  LIG1       -0.0437
      3 C          -0.5625    1.0634   -0.0002 C.ar    1  LIG1       -0.0333
      4 C          -1.0275   -0.2372   -0.0001 C.ar    1  LIG1        0.0875
      5 N           0.0616   -1.0721   -0.0005 N.ar    1  LIG1       -0.3582
      6 H          -0.0195   -2.0770   -0.0005 H       1  LIG1        0.1654
      7 H           2.1736   -0.8003   -0.0011 H       1  LIG1        0.0807
      8 H           1.5324    1.8360   -0.0007 H       1  LIG1        0.0633
      9 H          -1.1860    1.9443    0.0001 H       1  LIG1        0.0640
     10 C          -2.3663   -0.7768    0.0003 C.ar    1  LIG1        0.2194
     11 N          -3.4064    0.0834    0.0007 N.ar    1  LIG1       -0.1237
     12 C          -4.7383   -1.7554    0.0010 C.ar    1  LIG1        0.2194
     13 N          -2.4961   -2.1112    0.0003 N.ar    1  LIG1       -0.1237
     14 N          -4.6070   -0.4114    0.0010 N.ar    1  LIG1       -0.1237
     15 N          -3.7044   -2.6110    0.0006 N.ar    1  LIG1       -0.1237
     16 C          -6.0648   -2.3152    0.0014 C.ar    1  LIG1        0.0880
     17 C          -7.3118   -1.7203    0.0018 C.ar    1  LIG1       -0.0326
     18 C          -8.2657   -2.7541    0.0020 C.ar    1  LIG1       -0.0343
     19 C          -7.5825   -3.9649    0.0018 C.ar    1  LIG1        0.0634
     20 N          -6.2517   -3.6758    0.0014 N.ar    1  LIG1       -0.3505
     21 H          -5.4883   -4.3345    0.0009 H       1  LIG1        0.1660
     22 H          -7.4915   -0.6562    0.0019 H       1  LIG1        0.0640
     23 H          -9.3391   -2.6294    0.0026 H       1  LIG1        0.0639
     24 C          -8.0674   -5.3277    0.0019 C.ar    1  LIG1        0.0629
     25 C          -7.3957   -6.5341    0.0035 C.ar    1  LIG1       -0.0350
     26 C          -8.3646   -7.5672    0.0027 C.ar    1  LIG1       -0.0438
     27 C          -9.5995   -6.9690    0.0007 C.ar    1  LIG1        0.0022
     28 N          -9.4103   -5.6151    0.0002 N.ar    1  LIG1       -0.3595
     29 H         -10.1433   -4.9260   -0.0015 H       1  LIG1        0.1654
     30 H         -10.5913   -7.3939   -0.0005 H       1  LIG1        0.0807
     31 H          -6.3227   -6.6639    0.0052 H       1  LIG1        0.0639
     32 H          -8.1753   -8.6302    0.0036 H       1  LIG1        0.0633
@<TRIPOS>BOND
     1    29    28    1
     2     7     1    1
     3     1     2   ar
     4     1     5   ar
     5     8     2    1
     6     2     3   ar
     7     6     5    1
     8    30    27    1
     9     5     4   ar
    10     3     4   ar
    11     3     9    1
    12     4    10    1
    13    28    27   ar
    14    28    24   ar
    15    13    10   ar
    16    13    15   ar
    17    10    11   ar
    18    15    12   ar
    19    11    14   ar
    20    27    26   ar
    21    21    20    1
    22    12    14   ar
    23    12    16    1
    24    20    16   ar
    25    20    19   ar
    26    16    17   ar
    27    19    24    1
    28    19    18   ar
    29    17    22    1
    30    17    18   ar
    31    24    25   ar
    32    18    23    1
    33    26    25   ar
    34    26    32    1
    35    25    31    1
