@<TRIPOS>MOLECULE
mol_data/opt/cam/geoms/mol2/1384-5-.out
 33 36 0 0 0
SMALL
GASTEIGER

@<TRIPOS>ATOM
      1 C           1.2626   -0.2925    0.0006 C.ar    1  LIG1        0.0023
      2 C           0.8961    1.0378    0.0014 C.ar    1  LIG1       -0.0437
      3 C          -0.5134    1.0863    0.0013 C.ar    1  LIG1       -0.0333
      4 C          -0.9658   -0.2195    0.0005 C.ar    1  LIG1        0.0875
      5 N           0.1318   -1.0439    0.0001 N.ar    1  LIG1       -0.3582
      6 H           0.0602   -2.0498   -0.0005 H       1  LIG1        0.1654
      7 H           2.2398   -0.7510    0.0005 H       1  LIG1        0.0807
      8 H           1.5731    1.8789    0.0019 H       1  LIG1        0.0633
      9 H          -1.1456    1.9610    0.0017 H       1  LIG1        0.0640
     10 C          -2.2973   -0.7721    0.0000 C.ar    1  LIG1        0.2194
     11 N          -3.3473    0.0699    0.0004 N.ar    1  LIG1       -0.1237
     12 C          -4.6579   -1.7932   -0.0008 C.ar    1  LIG1        0.2034
     13 N          -2.4097   -2.1108   -0.0008 N.ar    1  LIG1       -0.1237
     14 N          -4.5394   -0.4532    0.0000 N.ar    1  LIG1       -0.1252
     15 N          -3.6088   -2.6271   -0.0012 N.ar    1  LIG1       -0.1252
     16 C          -6.1931   -3.7569   -0.0021 C.ar    1  LIG1       -0.0503
     17 C          -7.4653   -4.2979   -0.0025 C.ar    1  LIG1       -0.0529
     18 C          -6.0117   -2.3713   -0.0012 C.ar    1  LIG1        0.0227
     19 C          -8.6028   -3.4794   -0.0020 C.ar    1  LIG1       -0.0113
     20 H          -7.5748   -5.3760   -0.0033 H       1  LIG1        0.0624
     21 C          -7.1372   -1.5453   -0.0008 C.ar    1  LIG1       -0.0503
     22 C          -8.4079   -2.0930   -0.0012 C.ar    1  LIG1       -0.0529
     23 H          -7.0041   -0.4705   -0.0001 H       1  LIG1        0.0625
     24 H          -5.3238   -4.4033   -0.0024 H       1  LIG1        0.0625
     25 H          -9.2633   -1.4254   -0.0007 H       1  LIG1        0.0624
     26 C          -9.9482   -4.0674   -0.0024 C.ar    1  LIG1        0.0193
     27 C         -10.3003   -5.3910   -0.0013 C.ar    1  LIG1       -0.0469
     28 C         -11.7052   -5.6083   -0.0021 C.ar    1  LIG1       -0.0541
     29 C         -12.4133   -4.4470   -0.0039 C.ar    1  LIG1       -0.0237
     30 S         -11.3782   -3.0721   -0.0046 S.2     1  LIG1       -0.0967
     31 H         -13.4858   -4.3168   -0.0048 H       1  LIG1        0.0693
     32 H          -9.5795   -6.1984    0.0003 H       1  LIG1        0.0629
     33 H         -12.1634   -6.5893   -0.0013 H       1  LIG1        0.0623
@<TRIPOS>BOND
     1    31    29    1
     2    30    29   ar
     3    30    26   ar
     4    29    28   ar
     5    20    17    1
     6    17    16   ar
     7    17    19   ar
     8    24    16    1
     9    26    19    1
    10    26    27   ar
    11    28    33    1
    12    28    27   ar
    13    16    18   ar
    14    19    22   ar
    15    27    32    1
    16    18    21   ar
    17    18    12    1
    18    22    21   ar
    19    22    25    1
    20    15    12   ar
    21    15    13   ar
    22    21    23    1
    23    12    14   ar
    24    13    10   ar
    25     6     5    1
    26    14    11   ar
    27    10    11   ar
    28    10     4    1
    29     5     4   ar
    30     5     1   ar
    31     7     1    1
    32     4     3   ar
    33     1     2   ar
    34     3     2   ar
    35     3     9    1
    36     2     8    1
