@<TRIPOS>MOLECULE
mol_data/opt/cam/geoms/mol2/1384.out
 26 28 0 0 0
SMALL
GASTEIGER

@<TRIPOS>ATOM
      1 C           1.1958   -0.2928   -0.0006 C.ar    1  LIG1        0.0023
      2 C           0.8179    1.0343   -0.0004 C.ar    1  LIG1       -0.0437
      3 C          -0.5920    1.0707   -0.0000 C.ar    1  LIG1       -0.0333
      4 C          -1.0330   -0.2390    0.0001 C.ar    1  LIG1        0.0875
      5 N           0.0715   -1.0539   -0.0003 N.ar    1  LIG1       -0.3582
      6 H           0.0087   -2.0603   -0.0003 H       1  LIG1        0.1654
      7 H           2.1769   -0.7428   -0.0009 H       1  LIG1        0.0807
      8 H           1.4876    1.8812   -0.0006 H       1  LIG1        0.0633
      9 H          -1.2316    1.9399    0.0002 H       1  LIG1        0.0640
     10 C          -2.3599   -0.8029    0.0005 C.ar    1  LIG1        0.2194
     11 N          -3.4168    0.0299    0.0009 N.ar    1  LIG1       -0.1237
     12 C          -4.7118   -1.8443    0.0012 C.ar    1  LIG1        0.2034
     13 N          -2.4608   -2.1424    0.0005 N.ar    1  LIG1       -0.1237
     14 N          -4.6046   -0.5040    0.0012 N.ar    1  LIG1       -0.1252
     15 N          -3.6558   -2.6687    0.0008 N.ar    1  LIG1       -0.1252
     16 C          -7.1914   -1.6108    0.0020 C.ar    1  LIG1       -0.0509
     17 C          -8.4610   -2.1700    0.0024 C.ar    1  LIG1       -0.0611
     18 C          -6.0637   -2.4355    0.0016 C.ar    1  LIG1        0.0226
     19 C          -8.6173   -3.5520    0.0024 C.ar    1  LIG1       -0.0617
     20 H          -9.3324   -1.5237    0.0027 H       1  LIG1        0.0618
     21 C          -6.2242   -3.8234    0.0016 C.ar    1  LIG1       -0.0509
     22 C          -7.4966   -4.3757    0.0020 C.ar    1  LIG1       -0.0611
     23 H          -5.3450   -4.4561    0.0013 H       1  LIG1        0.0625
     24 H          -9.6117   -3.9867    0.0027 H       1  LIG1        0.0618
     25 H          -7.0585   -0.5359    0.0020 H       1  LIG1        0.0625
     26 H          -7.6140   -5.4543    0.0020 H       1  LIG1        0.0618
@<TRIPOS>BOND
     1     7     1    1
     2     1     2   ar
     3     1     5   ar
     4     8     2    1
     5     2     3   ar
     6     6     5    1
     7     5     4   ar
     8     3     4   ar
     9     3     9    1
    10     4    10    1
    11    13    10   ar
    12    13    15   ar
    13    10    11   ar
    14    15    12   ar
    15    11    14   ar
    16    12    14   ar
    17    12    18    1
    18    23    21    1
    19    21    18   ar
    20    21    22   ar
    21    18    16   ar
    22    26    22    1
    23    22    19   ar
    24    16    25    1
    25    16    17   ar
    26    19    17   ar
    27    19    24    1
    28    17    20    1
