@<TRIPOS>MOLECULE
mol_data/opt/cam/geoms/mol2/1385-.out
 23 25 0 0 0
SMALL
GASTEIGER

@<TRIPOS>ATOM
      1 C           1.1799   -0.2976   -0.0001 C.ar    1  LIG1        0.0023
      2 C           0.7958    1.0277   -0.0002 C.ar    1  LIG1       -0.0437
      3 C          -0.6143    1.0575   -0.0001 C.ar    1  LIG1       -0.0333
      4 C          -1.0493   -0.2542    0.0001 C.ar    1  LIG1        0.0875
      5 N           0.0591   -1.0640    0.0000 N.ar    1  LIG1       -0.3582
      6 H           0.0014   -2.0707    0.0001 H       1  LIG1        0.1654
      7 H           2.1630   -0.7431   -0.0002 H       1  LIG1        0.0807
      8 H           1.4615    1.8778   -0.0003 H       1  LIG1        0.0633
      9 H          -1.2579    1.9238   -0.0001 H       1  LIG1        0.0640
     10 C          -2.3735   -0.8239    0.0003 C.ar    1  LIG1        0.2194
     11 N          -3.4341    0.0044    0.0004 N.ar    1  LIG1       -0.1237
     12 C          -4.7128   -1.8762    0.0007 C.ar    1  LIG1        0.2099
     13 N          -2.4670   -2.1656    0.0004 N.ar    1  LIG1       -0.1237
     14 N          -4.6190   -0.5352    0.0005 N.ar    1  LIG1       -0.1246
     15 N          -3.6562   -2.7027    0.0006 N.ar    1  LIG1       -0.1246
     16 C          -6.0418   -2.4634    0.0008 C.ar    1  LIG1        0.0598
     17 C          -6.3615   -3.7945    0.0010 C.ar    1  LIG1       -0.0438
     18 C          -7.7625   -4.0191    0.0012 C.ar    1  LIG1       -0.0540
     19 C          -8.4742   -2.8555    0.0012 C.ar    1  LIG1       -0.0236
     20 S          -7.4607   -1.4666    0.0009 S.2     1  LIG1       -0.0934
     21 H          -9.5486   -2.7373    0.0013 H       1  LIG1        0.0693
     22 H          -5.6070   -4.5702    0.0010 H       1  LIG1        0.0630
     23 H          -8.2182   -5.0010    0.0013 H       1  LIG1        0.0623
@<TRIPOS>BOND
     1     8     2    1
     2     7     1    1
     3     2     1   ar
     4     2     3   ar
     5     1     5   ar
     6     9     3    1
     7     3     4   ar
     8     5     4   ar
     9     5     6    1
    10     4    10    1
    11    10    11   ar
    12    10    13   ar
    13    11    14   ar
    14    13    15   ar
    15    14    12   ar
    16    15    12   ar
    17    12    16    1
    18    16    20   ar
    19    16    17   ar
    20    20    19   ar
    21    22    17    1
    22    17    18   ar
    23    18    19   ar
    24    18    23    1
    25    19    21    1
