@<TRIPOS>MOLECULE
mol_data/opt/cam/geoms/mol2/1385-13-.out
 31 34 0 0 0
SMALL
GASTEIGER

@<TRIPOS>ATOM
      1 C           1.2524   -0.2978    0.0001 C.ar    1  LIG1        0.0023
      2 C           0.8718    1.0282   -0.0003 C.ar    1  LIG1       -0.0437
      3 C          -0.5384    1.0619   -0.0003 C.ar    1  LIG1       -0.0333
      4 C          -0.9772   -0.2484    0.0001 C.ar    1  LIG1        0.0875
      5 N           0.1289   -1.0611    0.0003 N.ar    1  LIG1       -0.3582
      6 H           0.0681   -2.0676    0.0006 H       1  LIG1        0.1654
      7 H           2.2341   -0.7463    0.0002 H       1  LIG1        0.0807
      8 H           1.5398    1.8765   -0.0006 H       1  LIG1        0.0633
      9 H          -1.1795    1.9301   -0.0005 H       1  LIG1        0.0640
     10 C          -2.3035   -0.8148    0.0002 C.ar    1  LIG1        0.2194
     11 N          -3.3619    0.0152    0.0000 N.ar    1  LIG1       -0.1237
     12 C          -4.6457   -1.8631    0.0006 C.ar    1  LIG1        0.2099
     13 N          -2.4001   -2.1568    0.0006 N.ar    1  LIG1       -0.1237
     14 N          -4.5483   -0.5210    0.0002 N.ar    1  LIG1       -0.1246
     15 N          -3.5889   -2.6925    0.0008 N.ar    1  LIG1       -0.1246
     16 C          -5.9712   -2.4440    0.0007 C.ar    1  LIG1        0.0604
     17 C          -6.3097   -3.7708    0.0011 C.ar    1  LIG1       -0.0432
     18 C          -7.7051   -3.9876    0.0012 C.ar    1  LIG1       -0.0448
     19 C          -8.4336   -2.8217    0.0009 C.ar    1  LIG1        0.0361
     20 S          -7.3858   -1.4352    0.0004 S.2     1  LIG1       -0.0836
     21 H          -5.5629   -4.5541    0.0013 H       1  LIG1        0.0630
     22 H          -8.1622   -4.9687    0.0016 H       1  LIG1        0.0630
     23 C          -9.8736   -2.6820    0.0009 C.ar    1  LIG1        0.0531
     24 C         -10.8630   -3.6476    0.0007 C.ar    1  LIG1       -0.0359
     25 C         -12.1124   -2.9867    0.0008 C.ar    1  LIG1       -0.0438
     26 C         -11.8606   -1.6361    0.0012 C.ar    1  LIG1        0.0022
     27 N         -10.5069   -1.4602    0.0013 N.ar    1  LIG1       -0.3603
     28 H         -10.0431   -0.5662    0.0016 H       1  LIG1        0.1653
     29 H         -12.5325   -0.7918    0.0014 H       1  LIG1        0.0807
     30 H         -10.6965   -4.7147    0.0004 H       1  LIG1        0.0639
     31 H         -13.0883   -3.4486    0.0007 H       1  LIG1        0.0633
@<TRIPOS>BOND
     1     8     2    1
     2     9     3    1
     3     2     3   ar
     4     2     1   ar
     5     3     4   ar
     6    11    14   ar
     7    11    10   ar
     8     4    10    1
     9     4     5   ar
    10     1     7    1
    11     1     5   ar
    12    14    12   ar
    13    10    13   ar
    14     5     6    1
    15    30    24    1
    16    20    16   ar
    17    20    19   ar
    18    12    16    1
    19    12    15   ar
    20    13    15   ar
    21    31    25    1
    22    24    25   ar
    23    24    23   ar
    24    16    17   ar
    25    25    26   ar
    26    19    23    1
    27    19    18   ar
    28    23    27   ar
    29    17    18   ar
    30    17    21    1
    31    26    27   ar
    32    26    29    1
    33    18    22    1
    34    27    28    1
