@<TRIPOS>MOLECULE
mol_data/opt/cam/geoms/mol2/1388-12-.out
 29 32 0 0 0
SMALL
GASTEIGER

@<TRIPOS>ATOM
      1 C           1.1876   -0.3665   -0.0001 C.ar    1  LIG1        0.0023
      2 C           0.8362    0.9698   -0.0002 C.ar    1  LIG1       -0.0437
      3 C          -0.5703    1.0342    0.0002 C.ar    1  LIG1       -0.0333
      4 C          -1.0380   -0.2683    0.0001 C.ar    1  LIG1        0.0875
      5 N           0.0512   -1.1054   -0.0001 N.ar    1  LIG1       -0.3582
      6 H          -0.0303   -2.1108   -0.0001 H       1  LIG1        0.1654
      7 H           2.1602   -0.8347   -0.0002 H       1  LIG1        0.0807
      8 H           1.5232    1.8026   -0.0003 H       1  LIG1        0.0633
      9 H          -1.1932    1.9155    0.0003 H       1  LIG1        0.0640
     10 C          -2.3718   -0.8016    0.0002 C.ar    1  LIG1        0.2194
     11 N          -3.4118    0.0564    0.0004 N.ar    1  LIG1       -0.1236
     12 C          -4.7303   -1.7864    0.0005 C.ar    1  LIG1        0.2435
     13 N          -2.4998   -2.1417    0.0002 N.ar    1  LIG1       -0.1236
     14 N          -4.6110   -0.4510    0.0006 N.ar    1  LIG1       -0.1218
     15 N          -3.7050   -2.6428    0.0003 N.ar    1  LIG1       -0.1218
     16 C          -6.1016   -2.3538    0.0007 C.ar    1  LIG1        0.2435
     17 N          -6.2192   -3.6885    0.0008 N.ar    1  LIG1       -0.1217
     18 C          -8.4574   -3.3302    0.0010 C.ar    1  LIG1        0.2381
     19 N          -7.1280   -1.4983    0.0007 N.ar    1  LIG1       -0.1217
     20 N          -7.4224   -4.1892    0.0010 N.ar    1  LIG1       -0.1219
     21 N          -8.3383   -1.9941    0.0008 N.ar    1  LIG1       -0.1219
     22 C          -9.7791   -3.9183    0.0011 C.ar    1  LIG1        0.1751
     23 C         -10.1863   -5.2207    0.0013 C.ar    1  LIG1       -0.0126
     24 C         -11.6075   -5.1885    0.0014 C.ar    1  LIG1       -0.0232
     25 C         -11.9507   -3.8728    0.0013 C.ar    1  LIG1        0.0927
     26 O         -10.8545   -3.0887    0.0011 O.2     1  LIG1       -0.4597
     27 H         -12.8977   -3.3567    0.0013 H       1  LIG1        0.1029
     28 H          -9.5356   -6.0813    0.0013 H       1  LIG1        0.0656
     29 H         -12.2838   -6.0295    0.0015 H       1  LIG1        0.0649
@<TRIPOS>BOND
     1     8     2    1
     2     7     1    1
     3     2     1   ar
     4     2     3   ar
     5     6     5    1
     6     1     5   ar
     7     5     4   ar
     8     4     3   ar
     9     4    10    1
    10    13    10   ar
    11    13    15   ar
    12     3     9    1
    13    10    11   ar
    14    15    12   ar
    15    11    14   ar
    16    12    14   ar
    17    12    16    1
    18    16    19   ar
    19    16    17   ar
    20    19    21   ar
    21    17    20   ar
    22    21    18   ar
    23    18    20   ar
    24    18    22    1
    25    22    26   ar
    26    22    23   ar
    27    26    25   ar
    28    23    28    1
    29    23    24   ar
    30    25    27    1
    31    25    24   ar
    32    24    29    1
