@<TRIPOS>MOLECULE
mol_data/opt/cam/geoms/mol2/1388.out
 22 24 0 0 0
SMALL
GASTEIGER

@<TRIPOS>ATOM
      1 C           1.1623   -0.3168   -0.0004 C.ar    1  LIG1        0.0023
      2 C           0.7870    1.0135    0.0004 C.ar    1  LIG1       -0.0437
      3 C          -0.6197    1.0527   -0.0002 C.ar    1  LIG1       -0.0333
      4 C          -1.0643   -0.2586    0.0001 C.ar    1  LIG1        0.0875
      5 N           0.0403   -1.0761   -0.0001 N.ar    1  LIG1       -0.3582
      6 H          -0.0222   -2.0829   -0.0000 H       1  LIG1        0.1654
      7 H           2.1434   -0.7670   -0.0007 H       1  LIG1        0.0807
      8 H           1.4591    1.8583    0.0008 H       1  LIG1        0.0633
      9 H          -1.2584    1.9227   -0.0002 H       1  LIG1        0.0640
     10 C          -2.3872   -0.8142    0.0003 C.ar    1  LIG1        0.2194
     11 N          -3.4424    0.0262    0.0003 N.ar    1  LIG1       -0.1236
     12 C          -4.7268   -1.8392    0.0005 C.ar    1  LIG1        0.2435
     13 N          -2.4920   -2.1574    0.0003 N.ar    1  LIG1       -0.1236
     14 N          -4.6320   -0.5028    0.0004 N.ar    1  LIG1       -0.1218
     15 N          -3.6881   -2.6783    0.0004 N.ar    1  LIG1       -0.1218
     16 C          -6.0903   -2.4316    0.0006 C.ar    1  LIG1        0.2434
     17 N          -7.1282   -1.5880    0.0004 N.ar    1  LIG1       -0.1224
     18 C          -8.4138   -3.4426    0.0006 C.ar    1  LIG1        0.1605
     19 N          -6.1806   -3.7661    0.0009 N.ar    1  LIG1       -0.1224
     20 N          -8.3302   -2.1132    0.0005 N.ar    1  LIG1       -0.1338
     21 N          -7.3841   -4.2878    0.0009 N.ar    1  LIG1       -0.1338
     22 H          -9.4080   -3.8752    0.0008 H       1  LIG1        0.1085
@<TRIPOS>BOND
     1     7     1    1
     2     1     5   ar
     3     1     2   ar
     4     9     3    1
     5     3     4   ar
     6     3     2   ar
     7     5     6    1
     8     5     4   ar
     9     4    10    1
    10    11    10   ar
    11    11    14   ar
    12    10    13   ar
    13    13    15   ar
    14    17    20   ar
    15    17    16   ar
    16    15    12   ar
    17    14    12   ar
    18     2     8    1
    19    20    18   ar
    20    12    16    1
    21    18    22    1
    22    18    21   ar
    23    16    19   ar
    24    19    21   ar
