@<TRIPOS>MOLECULE
mol_data/opt/cam/geoms/mol2/13aa13aa-13aa.out
 26 28 0 0 0
SMALL
GASTEIGER

@<TRIPOS>ATOM
      1 C           1.2615   -0.2906   -0.0012 C.ar    1  LIG1        0.0022
      2 C           0.8524    1.0177   -0.0006 C.ar    1  LIG1       -0.0438
      3 C          -0.5661    1.0171    0.0001 C.ar    1  LIG1       -0.0350
      4 C          -0.9867   -0.2976    0.0002 C.ar    1  LIG1        0.0629
      5 N           0.1418   -1.0790   -0.0006 N.ar    1  LIG1       -0.3595
      6 H           0.1387   -2.0848   -0.0009 H       1  LIG1        0.1654
      7 H           2.2495   -0.7241   -0.0019 H       1  LIG1        0.0807
      8 H           1.4977    1.8836   -0.0007 H       1  LIG1        0.0633
      9 H          -1.2040    1.8898    0.0006 H       1  LIG1        0.0639
     10 C          -2.3128   -0.8797    0.0009 C.ar    1  LIG1        0.0633
     11 C          -2.7359   -2.1933    0.0013 C.ar    1  LIG1       -0.0343
     12 C          -4.1513   -2.1910    0.0018 C.ar    1  LIG1       -0.0343
     13 C          -4.5702   -0.8761    0.0018 C.ar    1  LIG1        0.0633
     14 N          -3.4403   -0.0975    0.0012 N.ar    1  LIG1       -0.3519
     15 H          -3.4387    0.9086    0.0007 H       1  LIG1        0.1660
     16 H          -2.1017   -3.0685    0.0012 H       1  LIG1        0.0639
     17 H          -4.7883   -3.0642    0.0024 H       1  LIG1        0.0639
     18 C          -5.8944   -0.2898    0.0022 C.ar    1  LIG1        0.0629
     19 C          -6.3109    1.0262    0.0036 C.ar    1  LIG1       -0.0350
     20 C          -7.7294    1.0313    0.0032 C.ar    1  LIG1       -0.0438
     21 C          -8.1426   -0.2756    0.0020 C.ar    1  LIG1        0.0022
     22 N          -7.0254   -1.0676    0.0013 N.ar    1  LIG1       -0.3595
     23 H          -7.0256   -2.0734   -0.0000 H       1  LIG1        0.1654
     24 H          -9.1320   -0.7060    0.0015 H       1  LIG1        0.0807
     25 H          -5.6702    1.8969    0.0047 H       1  LIG1        0.0639
     26 H          -8.3719    1.8993    0.0039 H       1  LIG1        0.0633
@<TRIPOS>BOND
     1     7     1    1
     2     1     5   ar
     3     1     2   ar
     4     6     5    1
     5     8     2    1
     6     5     4   ar
     7     2     3   ar
     8    23    22    1
     9     3     4   ar
    10     3     9    1
    11     4    10    1
    12    15    14    1
    13    10    14   ar
    14    10    11   ar
    15    14    13   ar
    16    16    11    1
    17    11    12   ar
    18    22    21   ar
    19    22    18   ar
    20    24    21    1
    21    13    12   ar
    22    13    18    1
    23    12    17    1
    24    21    20   ar
    25    18    19   ar
    26    20    19   ar
    27    20    26    1
    28    19    25    1
