@<TRIPOS>MOLECULE
mol_data/opt/cam/geoms/mol2/13aa13aa13aa-13aa-.out
 34 37 0 0 0
SMALL
GASTEIGER

@<TRIPOS>ATOM
      1 C           1.1983   -0.1813   -0.7868 C.ar    1  LIG1        0.0022
      2 C           0.9816    0.9487   -0.0422 C.ar    1  LIG1       -0.0438
      3 C          -0.3716    0.9232    0.3860 C.ar    1  LIG1       -0.0350
      4 C          -0.9479   -0.2230   -0.1127 C.ar    1  LIG1        0.0629
      5 N           0.0286   -0.8956   -0.8160 N.ar    1  LIG1       -0.3595
      6 H          -0.1464   -1.6914   -1.4072 H       1  LIG1        0.1654
      7 H           2.0828   -0.5377   -1.2920 H       1  LIG1        0.0807
      8 H           1.7174    1.7058    0.1859 H       1  LIG1        0.0633
      9 H          -0.8694    1.6429    1.0188 H       1  LIG1        0.0639
     10 C          -2.2978   -0.7446    0.0098 C.ar    1  LIG1        0.0633
     11 C          -3.5204   -0.1107   -0.0194 C.ar    1  LIG1       -0.0343
     12 C          -4.5229   -1.0969    0.1476 C.ar    1  LIG1       -0.0343
     13 C          -3.8950   -2.3199    0.2686 C.ar    1  LIG1        0.0634
     14 N          -2.5445   -2.0894    0.1745 N.ar    1  LIG1       -0.3519
     15 H          -1.8382   -2.7957    0.3025 H       1  LIG1        0.1660
     16 H          -3.6665    0.9490   -0.1666 H       1  LIG1        0.0639
     17 H          -5.5895   -0.9300    0.1981 H       1  LIG1        0.0639
     18 C          -4.4245   -3.6542    0.4593 C.ar    1  LIG1        0.0634
     19 C          -3.8767   -4.7851    1.0271 C.ar    1  LIG1       -0.0343
     20 C          -4.8374   -5.8236    0.9364 C.ar    1  LIG1       -0.0343
     21 C          -5.9528   -5.3106    0.3145 C.ar    1  LIG1        0.0633
     22 N          -5.6931   -3.9837    0.0438 N.ar    1  LIG1       -0.3519
     23 H          -6.2381   -3.4145   -0.5838 H       1  LIG1        0.1660
     24 H          -2.9112   -4.8447    1.5097 H       1  LIG1        0.0639
     25 H          -4.7481   -6.8281    1.3224 H       1  LIG1        0.0639
     26 C          -7.2211   -5.9240   -0.0352 C.ar    1  LIG1        0.0629
     27 C          -7.5216   -7.1829   -0.5048 C.ar    1  LIG1       -0.0350
     28 C          -8.9289   -7.2559   -0.6751 C.ar    1  LIG1       -0.0438
     29 C          -9.4507   -6.0421   -0.3100 C.ar    1  LIG1        0.0022
     30 N          -8.4094   -5.2334    0.0650 N.ar    1  LIG1       -0.3595
     31 H          -8.5050   -4.3368    0.5127 H       1  LIG1        0.1654
     32 H         -10.4694   -5.6865   -0.2896 H       1  LIG1        0.0807
     33 H          -6.7964   -7.9509   -0.7299 H       1  LIG1        0.0639
     34 H          -9.4925   -8.1018   -1.0405 H       1  LIG1        0.0633
@<TRIPOS>BOND
     1     6     5    1
     2     7     1    1
     3    34    28    1
     4     5     1   ar
     5     5     4   ar
     6     1     2   ar
     7    33    27    1
     8    28    27   ar
     9    28    29   ar
    10    23    22    1
    11    27    26   ar
    12    29    32    1
    13    29    30   ar
    14    16    11    1
    15     4    10    1
    16     4     3   ar
    17     2     8    1
    18     2     3   ar
    19    26    30   ar
    20    26    21    1
    21    11    10   ar
    22    11    12   ar
    23    10    14   ar
    24    22    21   ar
    25    22    18   ar
    26    30    31    1
    27    12    17    1
    28    12    13   ar
    29    14    13   ar
    30    14    15    1
    31    13    18    1
    32    21    20   ar
    33     3     9    1
    34    18    19   ar
    35    20    19   ar
    36    20    25    1
    37    19    24    1
