@<TRIPOS>MOLECULE
mol_data/opt/cam/geoms/mol2/13aa6af13hi-12ea-.out
 42 45 0 0 0
SMALL
GASTEIGER

@<TRIPOS>ATOM
      1 C           1.3599   -0.5572   -0.5438 C.ar    1  LIG1        0.0022
      2 C           1.1245    0.7019   -0.0516 C.ar    1  LIG1       -0.0438
      3 C          -0.2671    0.8046    0.1948 C.ar    1  LIG1       -0.0364
      4 C          -0.8477   -0.3978   -0.1506 C.ar    1  LIG1        0.0480
      5 N           0.1646   -1.2196   -0.5900 N.ar    1  LIG1       -0.3606
      6 H           0.0236   -2.1319   -0.9906 H       1  LIG1        0.1653
      7 H           2.2743   -1.0319   -0.8650 H       1  LIG1        0.0807
      8 H           1.8704    1.4637    0.1205 H       1  LIG1        0.0633
      9 H          -0.7891    1.6527    0.6132 H       1  LIG1        0.0639
     10 C          -2.5761   -2.1939    0.0525 C.ar    1  LIG1        0.0377
     11 C          -2.2372   -0.8421   -0.0874 C.ar    1  LIG1        0.0199
     12 C          -3.2911    0.0609   -0.1579 C.ar    1  LIG1       -0.0074
     13 C          -4.6142   -0.3707   -0.0884 C.ar    1  LIG1        0.1448
     14 C          -4.8473   -1.7580    0.0389 C.ar    1  LIG1        0.1301
     15 N          -3.8246   -2.6241    0.1036 N.ar    1  LIG1       -0.2491
     16 H          -3.1130    1.1222   -0.2881 H       1  LIG1        0.0662
     17 H          -1.8042   -2.9540    0.1504 H       1  LIG1        0.0836
     18 O          -5.5640    0.5650   -0.1698 O.3     1  LIG1       -0.5045
     19 H          -6.4864    0.1839   -0.0871 H       1  LIG1        0.2922
     20 C          -6.1685   -2.4007    0.1052 C.ar    1  LIG1        0.0902
     21 C          -7.4944   -1.9840    0.1218 C.ar    1  LIG1        0.0555
     22 C          -8.3315   -3.1270    0.2032 C.ar    1  LIG1       -0.0008
     23 C          -7.4846   -4.2243    0.2226 C.ar    1  LIG1        0.0885
     24 N          -6.1982   -3.7590    0.1717 N.ar    1  LIG1       -0.3487
     25 H          -5.3446   -4.2988    0.1923 H       1  LIG1        0.1661
     26 N          -7.9264   -0.6189    0.0941 N.pl3   1  LIG1       -0.3561
     27 H          -8.5787   -0.4499   -0.6667 H       1  LIG1        0.1424
     28 H          -8.3949   -0.3566    0.9578 H       1  LIG1        0.1424
     29 C          -9.8220   -3.1052    0.3141 C.3     1  LIG1       -0.0358
     30 H         -10.1907   -3.9676    0.8717 H       1  LIG1        0.0279
     31 H         -10.3139   -3.1289   -0.6632 H       1  LIG1        0.0279
     32 H         -10.1562   -2.2012    0.8327 H       1  LIG1        0.0279
     33 C          -7.7344   -5.6428    0.3181 C.ar    1  LIG1        0.1665
     34 C          -8.7289   -6.4878   -0.1136 C.ar    1  LIG1        0.0718
     35 C          -8.3439   -7.8067    0.3155 C.ar    1  LIG1       -0.0078
     36 C          -7.1582   -7.6714    0.9434 C.ar    1  LIG1        0.0939
     37 O          -6.7739   -6.3668    0.9566 O.2     1  LIG1       -0.4602
     38 H          -6.4837   -8.3662    1.4171 H       1  LIG1        0.1030
     39 C          -9.8647   -6.1731   -0.9056 C.1     1  LIG1       -0.0658
     40 C         -10.8295   -5.9491   -1.5910 C.1     1  LIG1       -0.1138
     41 H         -11.6773   -5.7490   -2.2043 H       1  LIG1        0.1232
     42 H          -8.8951   -8.7186    0.1456 H       1  LIG1        0.0661
@<TRIPOS>BOND
     1    41    40    1
     2    40    39    3
     3     6     5    1
     4    39    34    1
     5     7     1    1
     6    27    26    1
     7    31    29    1
     8     5     1   ar
     9     5     4   ar
    10     1     2   ar
    11    16    12    1
    12    18    13    1
    13    18    19    1
    14    12    13   ar
    15    12    11   ar
    16     4    11    1
    17     4     3   ar
    18    34    35   ar
    19    34    33   ar
    20    13    14   ar
    21    11    10   ar
    22     2     8    1
    23     2     3   ar
    24    14    15   ar
    25    14    20    1
    26    10    15   ar
    27    10    17    1
    28    26    21    1
    29    26    28    1
    30    20    21   ar
    31    20    24   ar
    32    21    22   ar
    33    42    35    1
    34    24    25    1
    35    24    23   ar
    36     3     9    1
    37    22    23   ar
    38    22    29    1
    39    23    33    1
    40    29    32    1
    41    29    30    1
    42    35    36   ar
    43    33    37   ar
    44    36    37   ar
    45    36    38    1
