@<TRIPOS>MOLECULE
mol_data/opt/cam/geoms/mol2/13aa6if12aa13hi13eh-13ff-6ah6ee.out
 89 96 0 0 0
SMALL
GASTEIGER

@<TRIPOS>ATOM
      1 C           1.6051   -0.2474   -0.8505 C.ar    1  LIG1        0.0022
      2 C           1.1541    1.0142   -0.5464 C.ar    1  LIG1       -0.0438
      3 C          -0.2406    0.9183   -0.3219 C.ar    1  LIG1       -0.0364
      4 C          -0.6073   -0.4036   -0.4861 C.ar    1  LIG1        0.0483
      5 N           0.5382   -1.0977   -0.7997 N.ar    1  LIG1       -0.3606
      6 H           0.5840   -2.0695   -1.0637 H       1  LIG1        0.1653
      7 H           2.5901   -0.6221   -1.0876 H       1  LIG1        0.0807
      8 H           1.7607    1.9056   -0.4820 H       1  LIG1        0.0633
      9 H          -0.9097    1.7175   -0.0365 H       1  LIG1        0.0639
     10 C          -2.2015   -2.2832    0.1536 C.ar    1  LIG1        0.0483
     11 C          -1.9400   -1.0079   -0.3995 C.ar    1  LIG1        0.0228
     12 C          -3.0284   -0.2770   -0.8709 C.ar    1  LIG1       -0.0071
     13 C          -4.3114   -0.7876   -0.7752 C.ar    1  LIG1        0.1464
     14 C          -4.4807   -2.0529   -0.1984 C.ar    1  LIG1        0.1475
     15 N          -3.4369   -2.7685    0.2338 N.ar    1  LIG1       -0.2444
     16 H          -2.8817    0.6870   -1.3438 H       1  LIG1        0.0662
     17 C          -1.1191   -3.1605    0.7276 C.3     1  LIG1       -0.0217
     18 H          -0.3926   -2.5785    1.2997 H       1  LIG1        0.0293
     19 H          -0.5601   -3.7140   -0.0356 H       1  LIG1        0.0293
     20 H          -1.5830   -3.8959    1.3854 H       1  LIG1        0.0293
     21 O          -5.3431   -0.0504   -1.2663 O.3     1  LIG1       -0.5045
     22 H          -6.0989   -0.6385   -1.4098 H       1  LIG1        0.2922
     23 C          -5.8115   -2.6443   -0.0714 C.ar    1  LIG1        0.1575
     24 C          -7.0724   -2.1313    0.0666 C.ar    1  LIG1       -0.0135
     25 C          -7.9688   -3.2388    0.1405 C.ar    1  LIG1       -0.0137
     26 C          -7.1947   -4.3593    0.0368 C.ar    1  LIG1        0.1536
     27 O          -5.8854   -4.0045   -0.0956 O.2     1  LIG1       -0.4516
     28 H          -7.3260   -1.0881    0.1897 H       1  LIG1        0.0656
     29 H          -9.0346   -3.2135    0.3086 H       1  LIG1        0.0656
     30 C          -7.4503   -5.7697    0.0270 C.ar    1  LIG1        0.1037
     31 C          -8.6099   -6.4953   -0.1839 C.ar    1  LIG1        0.0568
     32 C          -8.2817   -7.8781   -0.1178 C.ar    1  LIG1       -0.0024
     33 C          -6.9215   -7.9534    0.1481 C.ar    1  LIG1        0.0694
     34 N          -6.4268   -6.6747    0.1990 N.ar    1  LIG1       -0.3489
     35 H          -5.5244   -6.4173    0.5654 H       1  LIG1        0.1661
     36 N          -9.8758   -5.9547   -0.4263 N.pl3   1  LIG1       -0.3560
     37 H          -9.8471   -5.1169   -0.9947 H       1  LIG1        0.1424
     38 H         -10.5227   -6.6240   -0.8215 H       1  LIG1        0.1424
     39 C          -9.2288   -9.0019   -0.3894 C.3     1  LIG1       -0.0359
     40 H          -8.6937   -9.9159   -0.6480 H       1  LIG1        0.0279
     41 H          -9.8936   -8.7595   -1.2272 H       1  LIG1        0.0279
     42 H          -9.8593   -9.2326    0.4754 H       1  LIG1        0.0279
     43 C          -5.9898   -9.0529    0.2644 C.ar    1  LIG1        0.0811
     44 C          -6.0849  -10.3528    0.7480 C.ar    1  LIG1        0.0726
     45 C          -4.7938  -10.9670    0.6012 C.ar    1  LIG1        0.0680
     46 C          -3.9529  -10.0263    0.0462 C.ar    1  LIG1        0.0893
     47 N          -4.6896   -8.8552   -0.1232 N.ar    1  LIG1       -0.3493
     48 H          -4.4489   -8.1633   -0.8172 H       1  LIG1        0.1661
     49 C          -7.1848  -10.9836    1.3831 C.1     1  LIG1       -0.0656
     50 C          -8.0806  -11.5781    1.9296 C.1     1  LIG1       -0.1138
     51 H          -8.8777  -12.0786    2.4285 H       1  LIG1        0.1232
     52 N          -4.4598  -12.2294    1.0520 N.pl3   1  LIG1       -0.3553
     53 H          -5.2592  -12.8280    1.2039 H       1  LIG1        0.1424
     54 H          -3.7132  -12.6769    0.5341 H       1  LIG1        0.1424
     55 C          -2.5435  -10.0554   -0.2370 C.ar    1  LIG1        0.1110
     56 C          -1.6923  -11.0797   -0.5911 C.ar    1  LIG1        0.1863
     57 C          -0.3950  -10.5415   -0.7244 C.ar    1  LIG1        0.1849
     58 C          -0.4480   -9.1866   -0.4542 C.ar    1  LIG1        0.0943
     59 N          -1.7775   -8.9057   -0.1987 N.ar    1  LIG1       -0.3470
     60 H          -2.0703   -8.0984    0.3285 H       1  LIG1        0.1662
     61 O          -2.0455  -12.3786   -0.8151 O.3     1  LIG1       -0.5019
     62 H          -1.2271  -12.8703   -0.9689 H       1  LIG1        0.2924
     63 O           0.6836  -11.3180   -1.0860 O.3     1  LIG1       -0.5019
     64 H           1.0119  -11.0181   -1.9433 H       1  LIG1        0.2924
     65 C           0.2520   -6.8007   -0.4165 C.ar    1  LIG1        0.0376
     66 C           0.5809   -8.1649   -0.4185 C.ar    1  LIG1        0.0219
     67 C           1.9370   -8.4858   -0.3689 C.ar    1  LIG1       -0.0283
     68 C           2.8990   -7.4797   -0.2985 C.ar    1  LIG1        0.0516
     69 C           2.4502   -6.1424   -0.2582 C.ar    1  LIG1        0.0942
     70 N           1.1536   -5.8385   -0.3293 N.ar    1  LIG1       -0.2524
     71 H           2.2442   -9.5268   -0.3604 H       1  LIG1        0.0644
     72 H          -0.7823   -6.4760   -0.4966 H       1  LIG1        0.0836
     73 N           4.2465   -7.8040   -0.2190 N.pl3   1  LIG1       -0.3563
     74 H           4.4813   -8.7373   -0.5225 H       1  LIG1        0.1424
     75 H           4.8908   -7.1078   -0.5638 H       1  LIG1        0.1424
     76 C           3.3027   -3.8475   -0.9116 C.ar    1  LIG1        0.1224
     77 C           3.3847   -4.9975   -0.1023 C.ar    1  LIG1        0.0371
     78 C           4.3457   -4.9963    0.9054 C.ar    1  LIG1       -0.0330
     79 C           5.1693   -3.8871    1.0929 C.ar    1  LIG1        0.0435
     80 C           4.9823   -2.7922    0.2411 C.ar    1  LIG1        0.0444
     81 N           4.0844   -2.7727   -0.7305 N.ar    1  LIG1       -0.2448
     82 H           4.4463   -5.8575    1.5561 H       1  LIG1        0.0638
     83 H           5.5926   -1.9016    0.3618 H       1  LIG1        0.0842
     84 C           2.3851   -3.7546   -2.0149 C.1     1  LIG1       -0.0491
     85 C           1.6548   -3.6289   -2.9633 C.1     1  LIG1       -0.1124
     86 H           1.0100   -3.5247   -3.8061 H       1  LIG1        0.1232
     87 C           6.1601   -3.8533    2.1215 C.1     1  LIG1       -0.0681
     88 C           6.9977   -3.8210    2.9851 C.1     1  LIG1       -0.1139
     89 H           7.7367   -3.7899    3.7527 H       1  LIG1        0.1232
@<TRIPOS>BOND
     1    86    85    1
     2    85    84    3
     3    84    76    1
     4    64    63    1
     5    22    21    1
     6    16    12    1
     7    21    13    1
     8    41    39    1
     9     7     1    1
    10    63    57    1
    11     6     5    1
    12    37    36    1
    13    62    61    1
    14    76    81   ar
    15    76    77   ar
    16    12    13   ar
    17    12    11   ar
    18     1     5   ar
    19     1     2   ar
    20    38    36    1
    21    48    47    1
    22    61    56    1
    23     5     4   ar
    24    13    14   ar
    25    81    80   ar
    26    57    56   ar
    27    57    58   ar
    28    40    39    1
    29    56    55   ar
    30    75    73    1
    31     2     8    1
    32     2     3   ar
    33    74    73    1
    34    72    65    1
    35     4    11    1
    36     4     3   ar
    37    58    66    1
    38    58    59   ar
    39    36    31    1
    40    66    65   ar
    41    66    67   ar
    42    65    70   ar
    43    11    10   ar
    44    39    32    1
    45    39    42    1
    46    67    71    1
    47    67    68   ar
    48    70    69   ar
    49     3     9    1
    50    68    69   ar
    51    68    73    1
    52    69    77    1
    53    55    59   ar
    54    55    46    1
    55    59    60    1
    56    14    23    1
    57    14    15   ar
    58    31    32   ar
    59    31    30   ar
    60    47    46   ar
    61    47    43   ar
    62    32    33   ar
    63    77    78   ar
    64    27    23   ar
    65    27    26   ar
    66    23    24   ar
    67    19    17    1
    68    30    26    1
    69    30    34   ar
    70    26    25   ar
    71    46    45   ar
    72    24    25   ar
    73    24    28    1
    74    25    29    1
    75    33    34   ar
    76    33    43    1
    77    10    15   ar
    78    10    17    1
    79    34    35    1
    80    80    83    1
    81    80    79   ar
    82    43    44   ar
    83    54    52    1
    84    45    44   ar
    85    45    52    1
    86    17    18    1
    87    17    20    1
    88    44    49    1
    89    78    79   ar
    90    78    82    1
    91    52    53    1
    92    79    87    1
    93    49    50    3
    94    50    51    1
    95    87    88    3
    96    88    89    1
