@<TRIPOS>MOLECULE
mol_data/opt/cam/geoms/mol2/13aa13aa-13aa13aa-.out
 34 37 0 0 0
SMALL
GASTEIGER

@<TRIPOS>ATOM
      1 C           1.3321   -0.2824   -0.0024 C.ar    1  LIG1        0.0022
      2 C           0.9244    1.0264   -0.0020 C.ar    1  LIG1       -0.0438
      3 C          -0.4935    1.0271   -0.0007 C.ar    1  LIG1       -0.0350
      4 C          -0.9160   -0.2873   -0.0003 C.ar    1  LIG1        0.0629
      5 N           0.2119   -1.0696   -0.0014 N.ar    1  LIG1       -0.3595
      6 H           0.2083   -2.0754   -0.0016 H       1  LIG1        0.1654
      7 H           2.3195   -0.7172   -0.0033 H       1  LIG1        0.0807
      8 H           1.5707    1.8916   -0.0026 H       1  LIG1        0.0633
      9 H          -1.1308    1.9003   -0.0000 H       1  LIG1        0.0639
     10 C          -2.2421   -0.8679    0.0009 C.ar    1  LIG1        0.0633
     11 C          -2.6669   -2.1815    0.0014 C.ar    1  LIG1       -0.0343
     12 C          -4.0810   -2.1785    0.0025 C.ar    1  LIG1       -0.0343
     13 C          -4.5000   -0.8628    0.0027 C.ar    1  LIG1        0.0634
     14 N          -3.3688   -0.0850    0.0017 N.ar    1  LIG1       -0.3519
     15 H          -3.3656    0.9210    0.0012 H       1  LIG1        0.1660
     16 H          -2.0330   -3.0569    0.0011 H       1  LIG1        0.0639
     17 H          -4.7187   -3.0511    0.0033 H       1  LIG1        0.0639
     18 C          -5.8221   -0.2785    0.0036 C.ar    1  LIG1        0.0634
     19 C          -6.2411    1.0372    0.0047 C.ar    1  LIG1       -0.0343
     20 C          -7.6553    1.0401    0.0053 C.ar    1  LIG1       -0.0343
     21 C          -8.0801   -0.2735    0.0045 C.ar    1  LIG1        0.0633
     22 N          -6.9533   -1.0564    0.0035 N.ar    1  LIG1       -0.3519
     23 H          -6.9566   -2.0624    0.0023 H       1  LIG1        0.1660
     24 H          -5.6035    1.9098    0.0053 H       1  LIG1        0.0639
     25 H          -8.2891    1.9156    0.0063 H       1  LIG1        0.0639
     26 C          -9.4061   -0.8540    0.0045 C.ar    1  LIG1        0.0629
     27 C          -9.8287   -2.1685    0.0053 C.ar    1  LIG1       -0.0350
     28 C         -11.2465   -2.1677    0.0049 C.ar    1  LIG1       -0.0438
     29 C         -11.6543   -0.8590    0.0039 C.ar    1  LIG1        0.0022
     30 N         -10.5340   -0.0718    0.0038 N.ar    1  LIG1       -0.3595
     31 H         -10.5304    0.9341    0.0027 H       1  LIG1        0.1654
     32 H         -12.6417   -0.4242    0.0033 H       1  LIG1        0.0807
     33 H          -9.1913   -3.0416    0.0062 H       1  LIG1        0.0639
     34 H         -11.8928   -3.0329    0.0054 H       1  LIG1        0.0633
@<TRIPOS>BOND
     1     7     1    1
     2     8     2    1
     3     1     2   ar
     4     1     5   ar
     5     2     3   ar
     6     6     5    1
     7     5     4   ar
     8     3     4   ar
     9     3     9    1
    10     4    10    1
    11    10    11   ar
    12    10    14   ar
    13    16    11    1
    14    15    14    1
    15    11    12   ar
    16    14    13   ar
    17    23    22    1
    18    12    13   ar
    19    12    17    1
    20    13    18    1
    21    31    30    1
    22    32    29    1
    23    22    18   ar
    24    22    21   ar
    25    18    19   ar
    26    30    29   ar
    27    30    26   ar
    28    29    28   ar
    29    21    26    1
    30    21    20   ar
    31    26    27   ar
    32    19    20   ar
    33    19    24    1
    34    28    27   ar
    35    28    34    1
    36    20    25    1
    37    27    33    1
