@<TRIPOS>MOLECULE
mol_data/opt/cam/geoms/mol2/13aa13aa-4aa13aa.out
 36 39 0 0 0
SMALL
GASTEIGER

@<TRIPOS>ATOM
      1 C           1.3004   -0.2902   -0.4890 C.ar    1  LIG1        0.0022
      2 C           0.9683    0.9660   -0.0500 C.ar    1  LIG1       -0.0438
      3 C          -0.4135    0.9509    0.2712 C.ar    1  LIG1       -0.0350
      4 C          -0.8885   -0.3189    0.0151 C.ar    1  LIG1        0.0629
      5 N           0.1706   -1.0619   -0.4438 N.ar    1  LIG1       -0.3595
      6 H           0.0920   -2.0096   -0.7731 H       1  LIG1        0.1654
      7 H           2.2411   -0.6957   -0.8278 H       1  LIG1        0.0807
      8 H           1.6447    1.8028    0.0436 H       1  LIG1        0.0633
      9 H          -0.9898    1.7659    0.6857 H       1  LIG1        0.0639
     10 C          -2.2111   -0.8944    0.1553 C.ar    1  LIG1        0.0633
     11 C          -2.6248   -2.1903    0.3895 C.ar    1  LIG1       -0.0344
     12 C          -4.0398   -2.1905    0.4096 C.ar    1  LIG1       -0.0358
     13 C          -4.4682   -0.8969    0.1939 C.ar    1  LIG1        0.0469
     14 N          -3.3396   -0.1223    0.0527 N.ar    1  LIG1       -0.3530
     15 H          -3.3350    0.8330   -0.2658 H       1  LIG1        0.1659
     16 H          -1.9767   -3.0344    0.5780 H       1  LIG1        0.0639
     17 H          -4.6804   -3.0365    0.6118 H       1  LIG1        0.0639
     18 C          -6.0616    1.0127    0.4312 C.ar    1  LIG1       -0.0520
     19 C          -7.3409    1.5382    0.3676 C.ar    1  LIG1       -0.0520
     20 C          -5.8131   -0.3311    0.1264 C.ar    1  LIG1       -0.0017
     21 C          -8.4302    0.7441   -0.0052 C.ar    1  LIG1       -0.0017
     22 H          -7.5100    2.5746    0.6400 H       1  LIG1        0.0624
     23 C          -6.9023   -1.1254   -0.2473 C.ar    1  LIG1       -0.0520
     24 C          -8.1813   -0.5992   -0.3113 C.ar    1  LIG1       -0.0520
     25 H          -6.7337   -2.1616   -0.5205 H       1  LIG1        0.0624
     26 H          -5.2474    1.6492    0.7648 H       1  LIG1        0.0624
     27 H          -8.9949   -1.2355   -0.6470 H       1  LIG1        0.0624
     28 C          -9.7764    1.3111   -0.0708 C.ar    1  LIG1        0.0465
     29 C         -10.2053    2.6002   -0.3097 C.ar    1  LIG1       -0.0364
     30 C         -11.6224    2.6022   -0.2721 C.ar    1  LIG1       -0.0438
     31 C         -12.0249    1.3175   -0.0082 C.ar    1  LIG1        0.0022
     32 N         -10.9036    0.5414    0.1001 N.ar    1  LIG1       -0.3607
     33 H         -10.8934   -0.4243    0.3831 H       1  LIG1        0.1653
     34 H         -13.0107    0.8952    0.1124 H       1  LIG1        0.0807
     35 H          -9.5642    3.4420   -0.5273 H       1  LIG1        0.0639
     36 H         -12.2732    3.4494   -0.4306 H       1  LIG1        0.0633
@<TRIPOS>BOND
     1     7     1    1
     2     6     5    1
     3    27    24    1
     4    35    29    1
     5    25    23    1
     6     1     5   ar
     7     1     2   ar
     8     5     4   ar
     9    36    30    1
    10    24    23   ar
    11    24    21   ar
    12    29    30   ar
    13    29    28   ar
    14    30    31   ar
    15    15    14    1
    16    23    20   ar
    17    28    21    1
    18    28    32   ar
    19     2     8    1
    20     2     3   ar
    21    31    32   ar
    22    31    34    1
    23    21    19   ar
    24     4    10    1
    25     4     3   ar
    26    14    10   ar
    27    14    13   ar
    28    32    33    1
    29    20    13    1
    30    20    18   ar
    31    10    11   ar
    32    13    12   ar
    33     3     9    1
    34    19    18   ar
    35    19    22    1
    36    11    12   ar
    37    11    16    1
    38    12    17    1
    39    18    26    1
