@<TRIPOS>MOLECULE
mol_data/opt/cam/geoms/mol2/13aa.out
 10 10 0 0 0
SMALL
GASTEIGER

@<TRIPOS>ATOM
      1 C           1.1194   -0.3101    0.0004 C.ar    1  LIG1        0.0016
      2 C           0.7125    0.9994   -0.0004 C.ar    1  LIG1       -0.0444
      3 C          -0.7093    1.0017    0.0007 C.ar    1  LIG1       -0.0444
      4 C          -1.1204   -0.3065   -0.0003 C.ar    1  LIG1        0.0016
      5 N          -0.0018   -1.0970    0.0001 N.ar    1  LIG1       -0.3670
      6 H          -0.0034   -2.1026   -0.0001 H       1  LIG1        0.1648
      7 H          -2.1096   -0.7381   -0.0005 H       1  LIG1        0.0807
      8 H           2.1072   -0.7449    0.0006 H       1  LIG1        0.0807
      9 H           1.3620    1.8625   -0.0007 H       1  LIG1        0.0632
     10 H          -1.3560    1.8669    0.0011 H       1  LIG1        0.0632
@<TRIPOS>BOND
     1     9     2    1
     2     7     4    1
     3     2     1   ar
     4     2     3   ar
     5     4     5   ar
     6     4     3   ar
     7     6     5    1
     8     5     1   ar
     9     1     8    1
    10     3    10    1
