@<TRIPOS>MOLECULE
mol_data/opt/cam/geoms/mol2/13aa13aa-13aa-13aa-.out
 34 37 0 0 0
SMALL
GASTEIGER

@<TRIPOS>ATOM
      1 C           1.2931   -0.5417   -0.5762 C.ar    1  LIG1        0.0022
      2 C           0.9833    0.7931   -0.5251 C.ar    1  LIG1       -0.0438
      3 C          -0.3971    0.8958   -0.2133 C.ar    1  LIG1       -0.0350
      4 C          -0.8934   -0.3852   -0.0846 C.ar    1  LIG1        0.0629
      5 N           0.1513   -1.2473   -0.3060 N.ar    1  LIG1       -0.3595
      6 H           0.0559   -2.2486   -0.3426 H       1  LIG1        0.1654
      7 H           2.2253   -1.0446   -0.7819 H       1  LIG1        0.0807
      8 H           1.6731    1.6091   -0.6824 H       1  LIG1        0.0633
      9 H          -0.9587    1.8060   -0.0580 H       1  LIG1        0.0639
     10 C          -2.2248   -0.8717    0.2172 C.ar    1  LIG1        0.0633
     11 C          -2.6613   -2.0334    0.8171 C.ar    1  LIG1       -0.0343
     12 C          -4.0785   -2.0009    0.8420 C.ar    1  LIG1       -0.0343
     13 C          -4.4822   -0.8225    0.2569 C.ar    1  LIG1        0.0634
     14 N          -3.3409   -0.1365   -0.1047 N.ar    1  LIG1       -0.3519
     15 H          -3.3224    0.6446   -0.7410 H       1  LIG1        0.1660
     16 H          -2.0275   -2.7972    1.2452 H       1  LIG1        0.0639
     17 H          -4.7387   -2.7346    1.2803 H       1  LIG1        0.0639
     18 C          -5.8067   -0.2790    0.0201 C.ar    1  LIG1        0.0634
     19 C          -6.9815   -0.8867   -0.3658 C.ar    1  LIG1       -0.0343
     20 C          -7.9808    0.1134   -0.4473 C.ar    1  LIG1       -0.0343
     21 C          -7.4005    1.3187   -0.1187 C.ar    1  LIG1        0.0633
     22 N          -6.0768    1.0639    0.1650 N.ar    1  LIG1       -0.3519
     23 H          -5.4022    1.7604    0.4364 H       1  LIG1        0.1660
     24 H          -7.0937   -1.9394   -0.5794 H       1  LIG1        0.0639
     25 H          -9.0209   -0.0234   -0.7036 H       1  LIG1        0.0639
     26 C          -7.9561    2.6592   -0.0398 C.ar    1  LIG1        0.0629
     27 C          -8.8347    3.3253   -0.8635 C.ar    1  LIG1       -0.0350
     28 C          -9.0484    4.6171   -0.3147 C.ar    1  LIG1       -0.0438
     29 C          -8.2938    4.7089    0.8256 C.ar    1  LIG1        0.0022
     30 N          -7.6220    3.5239    0.9811 N.ar    1  LIG1       -0.3595
     31 H          -7.1169    3.2526    1.8087 H       1  LIG1        0.1654
     32 H          -8.1757    5.5147    1.5336 H       1  LIG1        0.0807
     33 H          -9.2483    2.9286   -1.7789 H       1  LIG1        0.0639
     34 H          -9.6746    5.3971   -0.7223 H       1  LIG1        0.0633
@<TRIPOS>BOND
     1    33    27    1
     2    27    28   ar
     3    27    26   ar
     4     7     1    1
     5    15    14    1
     6    34    28    1
     7    25    20    1
     8     8     2    1
     9    24    19    1
    10     1     2   ar
    11     1     5   ar
    12     2     3   ar
    13    20    19   ar
    14    20    21   ar
    15    19    18   ar
    16     6     5    1
    17    28    29   ar
    18     5     4   ar
    19     3     4   ar
    20     3     9    1
    21    21    26    1
    22    21    22   ar
    23    14    10   ar
    24    14    13   ar
    25     4    10    1
    26    26    30   ar
    27    18    22   ar
    28    18    13    1
    29    22    23    1
    30    10    11   ar
    31    13    12   ar
    32    11    12   ar
    33    11    16    1
    34    29    30   ar
    35    29    32    1
    36    12    17    1
    37    30    31    1
