@<TRIPOS>MOLECULE
mol_data/opt/cam/geoms/mol2/13aa13aa13aa13aa.out
 34 37 0 0 0
SMALL
GASTEIGER

@<TRIPOS>ATOM
      1 C           0.8957    0.4045   -1.1928 C.ar    1  LIG1        0.0022
      2 C           0.9364    1.0761    0.0011 C.ar    1  LIG1       -0.0438
      3 C          -0.2515    0.7562    0.7098 C.ar    1  LIG1       -0.0350
      4 C          -0.9896   -0.1015   -0.0734 C.ar    1  LIG1        0.0629
      5 N          -0.2678   -0.3197   -1.2280 N.ar    1  LIG1       -0.3595
      6 H          -0.6331   -0.7831   -2.0437 H       1  LIG1        0.1654
      7 H           1.5949    0.3779   -2.0145 H       1  LIG1        0.0807
      8 H           1.7381    1.7164    0.3388 H       1  LIG1        0.0633
      9 H          -0.5302    1.0870    1.6993 H       1  LIG1        0.0639
     10 C          -2.2785   -0.7341    0.1536 C.ar    1  LIG1        0.0633
     11 C          -3.4513   -0.2407    0.6807 C.ar    1  LIG1       -0.0343
     12 C          -4.4049   -1.2880    0.6742 C.ar    1  LIG1       -0.0343
     13 C          -3.8036   -2.4041    0.1360 C.ar    1  LIG1        0.0634
     14 N          -2.5076   -2.0524   -0.1741 N.ar    1  LIG1       -0.3519
     15 H          -1.8271   -2.6659   -0.5917 H       1  LIG1        0.1660
     16 H          -3.5993    0.7743    1.0183 H       1  LIG1        0.0639
     17 H          -5.4216   -1.2467    1.0360 H       1  LIG1        0.0639
     18 C          -4.3147   -3.7429   -0.1052 C.ar    1  LIG1        0.0634
     19 C          -5.5145   -4.1747   -0.6257 C.ar    1  LIG1       -0.0343
     20 C          -5.4972   -5.5909   -0.6417 C.ar    1  LIG1       -0.0343
     21 C          -4.2838   -6.0042   -0.1382 C.ar    1  LIG1        0.0633
     22 N          -3.5741   -4.8685    0.1848 N.ar    1  LIG1       -0.3519
     23 H          -2.6508   -4.8643    0.5867 H       1  LIG1        0.1660
     24 H          -6.3082   -3.5282   -0.9697 H       1  LIG1        0.0639
     25 H          -6.2876   -6.2494   -0.9702 H       1  LIG1        0.0639
     26 C          -3.7364   -7.3345    0.0708 C.ar    1  LIG1        0.0629
     27 C          -3.7677   -8.4608   -0.7193 C.ar    1  LIG1       -0.0350
     28 C          -3.0799   -9.4934   -0.0291 C.ar    1  LIG1       -0.0438
     29 C          -2.6438   -8.9720    1.1610 C.ar    1  LIG1        0.0022
     30 N          -3.0321   -7.6582    1.2113 N.ar    1  LIG1       -0.3595
     31 H          -2.9835   -7.0744    2.0302 H       1  LIG1        0.1654
     32 H          -2.0894   -9.4217    1.9703 H       1  LIG1        0.0807
     33 H          -4.2126   -8.5166   -1.7018 H       1  LIG1        0.0639
     34 H          -2.9115  -10.5022   -0.3763 H       1  LIG1        0.0633
@<TRIPOS>BOND
     1     6     5    1
     2     7     1    1
     3    33    27    1
     4     5     1   ar
     5     5     4   ar
     6     1     2   ar
     7    25    20    1
     8    24    19    1
     9    27    28   ar
    10    27    26   ar
    11    20    19   ar
    12    20    21   ar
    13    19    18   ar
    14    15    14    1
    15    34    28    1
    16    14    13   ar
    17    14    10   ar
    18    21    26    1
    19    21    22   ar
    20    18    13    1
    21    18    22   ar
    22     4    10    1
    23     4     3   ar
    24    28    29   ar
    25     2     8    1
    26     2     3   ar
    27    26    30   ar
    28    13    12   ar
    29    10    11   ar
    30    22    23    1
    31    12    11   ar
    32    12    17    1
    33    11    16    1
    34     3     9    1
    35    29    30   ar
    36    29    32    1
    37    30    31    1
