@<TRIPOS>MOLECULE
mol_data/opt/cam/geoms/mol2/13aa13aa13aa13aa-.out
 34 37 0 0 0
SMALL
GASTEIGER

@<TRIPOS>ATOM
      1 C           1.0381    0.3026   -0.7727 C.ar    1  LIG1        0.0022
      2 C           0.8960    1.0542    0.3644 C.ar    1  LIG1       -0.0438
      3 C          -0.3933    0.7847    0.8942 C.ar    1  LIG1       -0.0350
      4 C          -1.0074   -0.1239    0.0627 C.ar    1  LIG1        0.0629
      5 N          -0.1135   -0.4211   -0.9444 N.ar    1  LIG1       -0.3595
      6 H          -0.3496   -0.9392   -1.7748 H       1  LIG1        0.1654
      7 H           1.8590    0.2191   -1.4683 H       1  LIG1        0.0807
      8 H           1.6414    1.7150    0.7822 H       1  LIG1        0.0633
      9 H          -0.8216    1.1819    1.8026 H       1  LIG1        0.0639
     10 C          -2.3232   -0.7378    0.1228 C.ar    1  LIG1        0.0633
     11 C          -3.5577   -0.2104    0.4313 C.ar    1  LIG1       -0.0343
     12 C          -4.5115   -1.2529    0.3377 C.ar    1  LIG1       -0.0343
     13 C          -3.8470   -2.4007   -0.0354 C.ar    1  LIG1        0.0634
     14 N          -2.5152   -2.0722   -0.1607 N.ar    1  LIG1       -0.3519
     15 H          -1.7855   -2.7160   -0.4195 H       1  LIG1        0.1660
     16 H          -3.7441    0.8233    0.6823 H       1  LIG1        0.0639
     17 H          -5.5712   -1.1867    0.5350 H       1  LIG1        0.0639
     18 C          -4.3280   -3.7484   -0.2765 C.ar    1  LIG1        0.0634
     19 C          -5.4785   -4.2050   -0.8780 C.ar    1  LIG1       -0.0343
     20 C          -5.4490   -5.6223   -0.8493 C.ar    1  LIG1       -0.0343
     21 C          -4.2784   -6.0057   -0.2308 C.ar    1  LIG1        0.0633
     22 N          -3.5979   -4.8576    0.0987 N.ar    1  LIG1       -0.3519
     23 H          -2.8266   -4.8403    0.7468 H       1  LIG1        0.1660
     24 H          -6.2337   -3.5788   -1.3293 H       1  LIG1        0.0639
     25 H          -6.1777   -6.2899   -1.2870 H       1  LIG1        0.0639
     26 C          -3.7385   -7.3138    0.0824 C.ar    1  LIG1        0.0629
     27 C          -2.4390   -7.7530    0.2314 C.ar    1  LIG1       -0.0350
     28 C          -2.4858   -9.1359    0.5460 C.ar    1  LIG1       -0.0438
     29 C          -3.8064   -9.5038    0.5785 C.ar    1  LIG1        0.0022
     30 N          -4.5572   -8.3946    0.2943 N.ar    1  LIG1       -0.3595
     31 H          -5.5621   -8.3432    0.3160 H       1  LIG1        0.1654
     32 H          -4.2709  -10.4567    0.7797 H       1  LIG1        0.0807
     33 H          -1.5521   -7.1525    0.0878 H       1  LIG1        0.0639
     34 H          -1.6427   -9.7889    0.7174 H       1  LIG1        0.0633
@<TRIPOS>BOND
     1     6     5    1
     2     7     1    1
     3    24    19    1
     4    25    20    1
     5     5     1   ar
     6     5     4   ar
     7    19    20   ar
     8    19    18   ar
     9    20    21   ar
    10     1     2   ar
    11    15    14    1
    12    18    13    1
    13    18    22   ar
    14    21    26    1
    15    21    22   ar
    16    14    13   ar
    17    14    10   ar
    18    13    12   ar
    19     4    10    1
    20     4     3   ar
    21    26    27   ar
    22    26    30   ar
    23    33    27    1
    24    22    23    1
    25    10    11   ar
    26    27    28   ar
    27    30    31    1
    28    30    29   ar
    29    12    11   ar
    30    12    17    1
    31     2     8    1
    32     2     3   ar
    33    11    16    1
    34    28    29   ar
    35    28    34    1
    36    29    32    1
    37     3     9    1
