@<TRIPOS>MOLECULE
mol_data/opt/cam/geoms/mol2/13aa13aa13aa-13aa.out
 34 37 0 0 0
SMALL
GASTEIGER

@<TRIPOS>ATOM
      1 C           1.1745   -0.1651   -0.8291 C.ar    1  LIG1        0.0022
      2 C           0.9750    0.9470   -0.0534 C.ar    1  LIG1       -0.0438
      3 C          -0.3685    0.9118    0.4036 C.ar    1  LIG1       -0.0350
      4 C          -0.9567   -0.2219   -0.1096 C.ar    1  LIG1        0.0629
      5 N           0.0037   -0.8781   -0.8496 N.ar    1  LIG1       -0.3595
      6 H          -0.1857   -1.6587   -1.4563 H       1  LIG1        0.1654
      7 H           2.0476   -0.5099   -1.3615 H       1  LIG1        0.0807
      8 H           1.7164    1.6982    0.1765 H       1  LIG1        0.0633
      9 H          -0.8519    1.6164    1.0640 H       1  LIG1        0.0639
     10 C          -2.3043   -0.7454    0.0296 C.ar    1  LIG1        0.0633
     11 C          -3.5265   -0.1104    0.0409 C.ar    1  LIG1       -0.0343
     12 C          -4.5264   -1.0993    0.2070 C.ar    1  LIG1       -0.0343
     13 C          -3.8974   -2.3249    0.2871 C.ar    1  LIG1        0.0634
     14 N          -2.5487   -2.0934    0.1689 N.ar    1  LIG1       -0.3519
     15 H          -1.8403   -2.8022    0.2678 H       1  LIG1        0.1660
     16 H          -3.6746    0.9525   -0.0790 H       1  LIG1        0.0639
     17 H          -5.5914   -0.9327    0.2846 H       1  LIG1        0.0639
     18 C          -4.4235   -3.6628    0.4621 C.ar    1  LIG1        0.0634
     19 C          -3.8633   -4.8032    1.0005 C.ar    1  LIG1       -0.0343
     20 C          -4.8279   -5.8376    0.9175 C.ar    1  LIG1       -0.0343
     21 C          -5.9587   -5.3095    0.3297 C.ar    1  LIG1        0.0633
     22 N          -5.6964   -3.9888    0.0640 N.ar    1  LIG1       -0.3519
     23 H          -6.2964   -3.3883   -0.4776 H       1  LIG1        0.1660
     24 H          -2.8859   -4.8721    1.4570 H       1  LIG1        0.0639
     25 H          -4.7269   -6.8441    1.2979 H       1  LIG1        0.0639
     26 C          -7.2365   -5.9064   -0.0048 C.ar    1  LIG1        0.0629
     27 C          -8.4994   -5.3610   -0.1084 C.ar    1  LIG1       -0.0350
     28 C          -9.3898   -6.4043   -0.4722 C.ar    1  LIG1       -0.0438
     29 C          -8.6512   -7.5548   -0.5784 C.ar    1  LIG1        0.0022
     30 N          -7.3489   -7.2442   -0.2912 N.ar    1  LIG1       -0.3595
     31 H          -6.5663   -7.8736   -0.3557 H       1  LIG1        0.1654
     32 H          -8.9425   -8.5620   -0.8329 H       1  LIG1        0.0807
     33 H          -8.7589   -4.3325    0.0982 H       1  LIG1        0.0639
     34 H         -10.4555   -6.3201   -0.6261 H       1  LIG1        0.0633
@<TRIPOS>BOND
     1     6     5    1
     2     7     1    1
     3     5     1   ar
     4     5     4   ar
     5    32    29    1
     6     1     2   ar
     7    34    28    1
     8    29    28   ar
     9    29    30   ar
    10    23    22    1
    11    28    27   ar
    12    31    30    1
    13    30    26   ar
    14     4    10    1
    15     4     3   ar
    16    27    26   ar
    17    27    33    1
    18    16    11    1
    19     2     8    1
    20     2     3   ar
    21    26    21    1
    22    10    11   ar
    23    10    14   ar
    24    11    12   ar
    25    22    21   ar
    26    22    18   ar
    27    14    15    1
    28    14    13   ar
    29    12    17    1
    30    12    13   ar
    31    13    18    1
    32    21    20   ar
    33     3     9    1
    34    18    19   ar
    35    20    19   ar
    36    20    25    1
    37    19    24    1
