@<TRIPOS>MOLECULE
mol_data/opt/cam/geoms/mol2/13aa13aa13aa.out
 26 28 0 0 0
SMALL
GASTEIGER

@<TRIPOS>ATOM
      1 C           1.1499   -0.0441   -0.6476 C.ar    1  LIG1        0.0022
      2 C           0.9070    0.9398    0.2748 C.ar    1  LIG1       -0.0438
      3 C          -0.4487    0.8189    0.6790 C.ar    1  LIG1       -0.0350
      4 C          -1.0004   -0.2358   -0.0117 C.ar    1  LIG1        0.0629
      5 N          -0.0060   -0.7639   -0.8080 N.ar    1  LIG1       -0.3595
      6 H          -0.1648   -1.4446   -1.5325 H       1  LIG1        0.1654
      7 H           2.0442   -0.2942   -1.1974 H       1  LIG1        0.0807
      8 H           1.6269    1.6603    0.6344 H       1  LIG1        0.0633
      9 H          -0.9650    1.4136    1.4180 H       1  LIG1        0.0639
     10 C          -2.3420   -0.7947    0.0068 C.ar    1  LIG1        0.0633
     11 C          -3.5780   -0.1876    0.0263 C.ar    1  LIG1       -0.0343
     12 C          -4.5623   -1.2062    0.0379 C.ar    1  LIG1       -0.0343
     13 C          -3.9136   -2.4208    0.0165 C.ar    1  LIG1        0.0633
     14 N          -2.5619   -2.1546   -0.0008 N.ar    1  LIG1       -0.3519
     15 H          -1.8380   -2.8543   -0.0158 H       1  LIG1        0.1660
     16 H          -3.7437    0.8796    0.0177 H       1  LIG1        0.0639
     17 H          -5.6340   -1.0774    0.0732 H       1  LIG1        0.0639
     18 C          -4.4262   -3.7809    0.0168 C.ar    1  LIG1        0.0629
     19 C          -5.4763   -4.3535   -0.6638 C.ar    1  LIG1       -0.0350
     20 C          -5.5426   -5.7209   -0.2874 C.ar    1  LIG1       -0.0438
     21 C          -4.5314   -5.9496    0.6089 C.ar    1  LIG1        0.0022
     22 N          -3.8478   -4.7735    0.7797 N.ar    1  LIG1       -0.3595
     23 H          -3.1574   -4.6070    1.4933 H       1  LIG1        0.1654
     24 H          -4.2395   -6.8464    1.1335 H       1  LIG1        0.0807
     25 H          -6.1039   -3.8423   -1.3788 H       1  LIG1        0.0639
     26 H          -6.2459   -6.4573   -0.6478 H       1  LIG1        0.0633
@<TRIPOS>BOND
     1     6     5    1
     2    25    19    1
     3     7     1    1
     4     5     1   ar
     5     5     4   ar
     6    19    20   ar
     7    19    18   ar
     8    26    20    1
     9     1     2   ar
    10    20    21   ar
    11    15    14    1
    12     4    10    1
    13     4     3   ar
    14    14    10   ar
    15    14    13   ar
    16    10    11   ar
    17    13    18    1
    18    13    12   ar
    19    18    22   ar
    20    16    11    1
    21    11    12   ar
    22    12    17    1
    23     2     8    1
    24     2     3   ar
    25    21    22   ar
    26    21    24    1
    27     3     9    1
    28    22    23    1
