@<TRIPOS>MOLECULE
mol_data/opt/cam/geoms/mol2/13ad13ad-13ad-13ad-.out
 38 41 0 0 0
SMALL
GASTEIGER

@<TRIPOS>ATOM
      1 C           1.0336    0.2779    0.1272 C.ar    1  LIG1        0.0035
      2 C           0.3587    1.4623    0.0807 C.ar    1  LIG1       -0.0263
      3 C          -1.0313    1.1433    0.0412 C.ar    1  LIG1        0.0784
      4 C          -1.1506   -0.2501    0.0697 C.ar    1  LIG1        0.0805
      5 N           0.1124   -0.7445    0.1212 N.ar    1  LIG1       -0.3585
      6 H           0.3340   -1.7257    0.1850 H       1  LIG1        0.1654
      7 H           2.0916    0.0731    0.1668 H       1  LIG1        0.0807
      8 H           0.7895    2.4513    0.0704 H       1  LIG1        0.0645
      9 N          -3.1255    2.6405   -0.0656 N.1     1  LIG1       -0.1908
     10 C          -2.1422    2.0231   -0.0316 C.1     1  LIG1        0.1013
     11 C          -2.3522   -1.0532    0.0221 C.ar    1  LIG1        0.0659
     12 C          -2.6467   -2.3378   -0.3790 C.ar    1  LIG1       -0.0169
     13 C          -4.0663   -2.4755   -0.3543 C.ar    1  LIG1        0.0790
     14 C          -4.6014   -1.2601    0.0603 C.ar    1  LIG1        0.0810
     15 N          -3.5469   -0.4401    0.3053 N.ar    1  LIG1       -0.3508
     16 H          -3.6356    0.4686    0.7312 H       1  LIG1        0.1660
     17 H          -1.9520   -3.0928   -0.7156 H       1  LIG1        0.0652
     18 N          -5.4295   -4.5497   -1.0499 N.1     1  LIG1       -0.1908
     19 C          -4.8163   -3.6174   -0.7422 C.1     1  LIG1        0.1013
     20 C          -5.9188   -0.6713    0.1470 C.ar    1  LIG1        0.0659
     21 C          -7.1803   -1.1206    0.4380 C.ar    1  LIG1       -0.0169
     22 C          -8.0406    0.0160    0.4366 C.ar    1  LIG1        0.0790
     23 C          -7.2744    1.1388    0.1371 C.ar    1  LIG1        0.0810
     24 N          -5.9955    0.7029   -0.0280 N.ar    1  LIG1       -0.3508
     25 H          -5.2643    1.2537   -0.4565 H       1  LIG1        0.1660
     26 H          -7.4647   -2.1372    0.6623 H       1  LIG1        0.0652
     27 N         -10.5677    0.0493    0.9438 N.1     1  LIG1       -0.1908
     28 C          -9.4319    0.0259    0.7207 C.1     1  LIG1        0.1013
     29 C          -7.6062    2.5396    0.0109 C.ar    1  LIG1        0.0654
     30 C          -8.8220    3.1694   -0.1183 C.ar    1  LIG1       -0.0175
     31 C          -8.5606    4.5633   -0.2161 C.ar    1  LIG1        0.0696
     32 C          -7.1929    4.7383   -0.1433 C.ar    1  LIG1        0.0197
     33 N          -6.6237    3.5154   -0.0089 N.ar    1  LIG1       -0.3583
     34 H          -5.6302    3.3695    0.1185 H       1  LIG1        0.1654
     35 H          -6.6046    5.6418   -0.1740 H       1  LIG1        0.0820
     36 H          -9.7888    2.6910   -0.1463 H       1  LIG1        0.0652
     37 N         -10.2884    6.4592   -0.4946 N.1     1  LIG1       -0.1908
     38 C          -9.5156    5.6072   -0.3690 C.1     1  LIG1        0.1007
@<TRIPOS>BOND
     1    18    19    3
     2    19    13    1
     3    17    12    1
     4    37    38    3
     5    25    24    1
     6    12    13   ar
     7    12    11   ar
     8    38    31    1
     9    13    14   ar
    10    31    32   ar
    11    31    30   ar
    12    35    32    1
    13    36    30    1
    14    32    33   ar
    15    30    29   ar
    16     9    10    3
    17    10     3    1
    18    24    23   ar
    19    24    20   ar
    20    33    29   ar
    21    33    34    1
    22    29    23    1
    23    11     4    1
    24    11    15   ar
    25     3     4   ar
    26     3     2   ar
    27    14    20    1
    28    14    15   ar
    29     4     5   ar
    30     8     2    1
    31     2     1   ar
    32     5     1   ar
    33     5     6    1
    34     1     7    1
    35    23    22   ar
    36    20    21   ar
    37    15    16    1
    38    22    21   ar
    39    22    28    1
    40    21    26    1
    41    28    27    3
