@<TRIPOS>MOLECULE
mol_data/opt/cam/geoms/mol2/13ad13ad13ad13ad.out
 38 41 0 0 0
SMALL
GASTEIGER

@<TRIPOS>ATOM
      1 C           0.9153    0.3803   -1.4258 C.ar    1  LIG1        0.0035
      2 C           0.8993    1.1536   -0.3009 C.ar    1  LIG1       -0.0263
      3 C          -0.3251    0.8803    0.3765 C.ar    1  LIG1        0.0784
      4 C          -1.0223   -0.0579   -0.3681 C.ar    1  LIG1        0.0805
      5 N          -0.2436   -0.3566   -1.4541 N.ar    1  LIG1       -0.3585
      6 H          -0.5557   -0.9006   -2.2428 H       1  LIG1        0.1654
      7 H           1.6517    0.2920   -2.2090 H       1  LIG1        0.0807
      8 H           1.6680    1.8365    0.0257 H       1  LIG1        0.0645
      9 N          -1.1155    1.8888    2.6147 N.1     1  LIG1       -0.1908
     10 C          -0.7603    1.4338    1.6114 C.1     1  LIG1        0.1013
     11 C          -2.3133   -0.6771   -0.1338 C.ar    1  LIG1        0.0659
     12 C          -3.4930   -0.1439    0.3214 C.ar    1  LIG1       -0.0169
     13 C          -4.4472   -1.1967    0.3581 C.ar    1  LIG1        0.0790
     14 C          -3.8244   -2.3563   -0.0793 C.ar    1  LIG1        0.0810
     15 N          -2.5309   -2.0207   -0.3716 N.ar    1  LIG1       -0.3508
     16 H          -1.8381   -2.6623   -0.7233 H       1  LIG1        0.1660
     17 H          -3.6608    0.8853    0.5985 H       1  LIG1        0.0652
     18 N          -6.9126   -1.0328    1.0975 N.1     1  LIG1       -0.1908
     19 C          -5.8048   -1.1061    0.7715 C.1     1  LIG1        0.1013
     20 C          -4.3355   -3.7064   -0.2233 C.ar    1  LIG1        0.0659
     21 C          -5.5183   -4.1645   -0.7459 C.ar    1  LIG1       -0.0169
     22 C          -5.5026   -5.5826   -0.6504 C.ar    1  LIG1        0.0790
     23 C          -4.3021   -5.9604   -0.0660 C.ar    1  LIG1        0.0810
     24 N          -3.6074   -4.8098    0.1827 N.ar    1  LIG1       -0.3508
     25 H          -2.7012   -4.7747    0.6220 H       1  LIG1        0.1660
     26 H          -6.3107   -3.5571   -1.1552 H       1  LIG1        0.0652
     27 N          -7.3457   -7.2074   -1.4337 N.1     1  LIG1       -0.1908
     28 C          -6.5230   -6.4771   -1.0746 C.1     1  LIG1        0.1013
     29 C          -3.7862   -7.2731    0.2707 C.ar    1  LIG1        0.0654
     30 C          -3.8548   -8.4613   -0.4122 C.ar    1  LIG1       -0.0175
     31 C          -3.1691   -9.4343    0.3693 C.ar    1  LIG1        0.0696
     32 C          -2.7073   -8.8074    1.5071 C.ar    1  LIG1        0.0197
     33 N          -3.0725   -7.5003    1.4340 N.ar    1  LIG1       -0.3583
     34 H          -3.0011   -6.8487    2.1996 H       1  LIG1        0.1654
     35 H          -2.1589   -9.2044    2.3467 H       1  LIG1        0.0820
     36 H          -4.3277   -8.6203   -1.3689 H       1  LIG1        0.0652
     37 N          -2.7912  -11.9170   -0.2231 N.1     1  LIG1       -0.1908
     38 C          -2.9642  -10.8046    0.0437 C.1     1  LIG1        0.1007
@<TRIPOS>BOND
     1     6     5    1
     2     7     1    1
     3     5     1   ar
     4     5     4   ar
     5    27    28    3
     6     1     2   ar
     7    36    30    1
     8    26    21    1
     9    28    22    1
    10    21    22   ar
    11    21    20   ar
    12    16    15    1
    13    22    23   ar
    14    30    29   ar
    15    30    31   ar
    16    15    11   ar
    17    15    14   ar
    18     4    11    1
    19     4     3   ar
    20     2     8    1
    21     2     3   ar
    22    20    14    1
    23    20    24   ar
    24    37    38    3
    25    11    12   ar
    26    14    13   ar
    27    23    24   ar
    28    23    29    1
    29    38    31    1
    30    24    25    1
    31    29    33   ar
    32    12    13   ar
    33    12    17    1
    34    13    19    1
    35    31    32   ar
    36     3    10    1
    37    19    18    3
    38    33    32   ar
    39    33    34    1
    40    32    35    1
    41    10     9    3
