@<TRIPOS>MOLECULE
mol_data/opt/cam/geoms/mol2/13ad13ad-13ad13ad-.out
 38 41 0 0 0
SMALL
GASTEIGER

@<TRIPOS>ATOM
      1 C           1.3709   -0.2860   -0.0014 C.ar    1  LIG1        0.0035
      2 C           0.9706    1.0184   -0.0015 C.ar    1  LIG1       -0.0263
      3 C          -0.4545    1.0109   -0.0003 C.ar    1  LIG1        0.0784
      4 C          -0.8786   -0.3153   -0.0001 C.ar    1  LIG1        0.0805
      5 N           0.2494   -1.0793   -0.0007 N.ar    1  LIG1       -0.3585
      6 H           0.2562   -2.0864   -0.0007 H       1  LIG1        0.1654
      7 H           2.3586   -0.7190   -0.0019 H       1  LIG1        0.0807
      8 H           1.6044    1.8913   -0.0020 H       1  LIG1        0.0645
      9 N          -2.1406    2.9565    0.0006 N.1     1  LIG1       -0.1908
     10 C          -1.3387    2.1185    0.0003 C.1     1  LIG1        0.1013
     11 C          -2.2083   -0.8849    0.0007 C.ar    1  LIG1        0.0659
     12 C          -2.6244   -2.1959    0.0009 C.ar    1  LIG1       -0.0169
     13 C          -4.0441   -2.1837    0.0018 C.ar    1  LIG1        0.0790
     14 C          -4.4614   -0.8533    0.0021 C.ar    1  LIG1        0.0810
     15 N          -3.3367   -0.0925    0.0014 N.ar    1  LIG1       -0.3508
     16 H          -3.3240    0.9192    0.0014 H       1  LIG1        0.1660
     17 H          -2.0059   -3.0806    0.0005 H       1  LIG1        0.0652
     18 N          -5.7194   -4.1386    0.0028 N.1     1  LIG1       -0.1908
     19 C          -4.9266   -3.2923    0.0023 C.1     1  LIG1        0.1013
     20 C          -5.7832   -0.2721    0.0029 C.ar    1  LIG1        0.0659
     21 C          -6.1763    1.0463    0.0032 C.ar    1  LIG1       -0.0169
     22 C          -7.5951    1.0551    0.0041 C.ar    1  LIG1        0.0790
     23 C          -8.0352   -0.2688    0.0042 C.ar    1  LIG1        0.0810
     24 N          -6.9243   -1.0481    0.0035 N.ar    1  LIG1       -0.3508
     25 H          -6.9308   -2.0594    0.0034 H       1  LIG1        0.1660
     26 H          -5.5393    1.9188    0.0029 H       1  LIG1        0.0652
     27 N          -9.2311    3.0437    0.0052 N.1     1  LIG1       -0.1908
     28 C          -8.4580    2.1795    0.0047 C.1     1  LIG1        0.1013
     29 C          -9.3663   -0.8324    0.0049 C.ar    1  LIG1        0.0654
     30 C          -9.7722   -2.1490    0.0052 C.ar    1  LIG1       -0.0175
     31 C         -11.1926   -2.1474    0.0062 C.ar    1  LIG1        0.0696
     32 C         -11.6054   -0.8285    0.0061 C.ar    1  LIG1        0.0197
     33 N         -10.5002   -0.0482    0.0055 N.ar    1  LIG1       -0.3583
     34 H         -10.5025    0.9631    0.0055 H       1  LIG1        0.1654
     35 H         -12.6000   -0.4114    0.0066 H       1  LIG1        0.0820
     36 H          -9.1428   -3.0271    0.0048 H       1  LIG1        0.0652
     37 N         -12.7430   -4.2093    0.0074 N.1     1  LIG1       -0.1908
     38 C         -12.0486   -3.2836    0.0069 C.1     1  LIG1        0.1007
@<TRIPOS>BOND
     1     8     2    1
     2     7     1    1
     3     2     1   ar
     4     2     3   ar
     5     1     5   ar
     6     5     6    1
     7     5     4   ar
     8     3     4   ar
     9     3    10    1
    10     4    11    1
    11    10     9    3
    12    17    12    1
    13    11    12   ar
    14    11    15   ar
    15    12    13   ar
    16    15    16    1
    17    15    14   ar
    18    13    14   ar
    19    13    19    1
    20    14    20    1
    21    19    18    3
    22    20    21   ar
    23    20    24   ar
    24    26    21    1
    25    21    22   ar
    26    25    24    1
    27    24    23   ar
    28    22    23   ar
    29    22    28    1
    30    23    29    1
    31    28    27    3
    32    36    30    1
    33    29    30   ar
    34    29    33   ar
    35    30    31   ar
    36    34    33    1
    37    33    32   ar
    38    32    31   ar
    39    32    35    1
    40    31    38    1
    41    38    37    3
