@<TRIPOS>MOLECULE
mol_data/opt/cam/geoms/mol2/13ad13ad-13ad-13ad.out
 38 41 0 0 0
SMALL
GASTEIGER

@<TRIPOS>ATOM
      1 C           1.3135   -0.2256   -0.0016 C.ar    1  LIG1        0.0035
      2 C           0.8573    1.0599   -0.0008 C.ar    1  LIG1       -0.0263
      3 C          -0.5665    0.9896    0.0002 C.ar    1  LIG1        0.0784
      4 C          -0.9324   -0.3567   -0.0001 C.ar    1  LIG1        0.0805
      5 N           0.2271   -1.0684   -0.0012 N.ar    1  LIG1       -0.3585
      6 H           0.2774   -2.0745   -0.0017 H       1  LIG1        0.1654
      7 H           2.3191   -0.6149   -0.0025 H       1  LIG1        0.0807
      8 H           1.4533    1.9589   -0.0008 H       1  LIG1        0.0645
      9 N          -2.3892    2.8049    0.0023 N.1     1  LIG1       -0.1908
     10 C          -1.5117    2.0449    0.0013 C.1     1  LIG1        0.1013
     11 C          -2.2419   -0.9701    0.0006 C.ar    1  LIG1        0.0659
     12 C          -2.6466   -2.2852    0.0012 C.ar    1  LIG1       -0.0169
     13 C          -4.0670   -2.2906    0.0020 C.ar    1  LIG1        0.0790
     14 C          -4.4988   -0.9652    0.0017 C.ar    1  LIG1        0.0810
     15 N          -3.3798   -0.1941    0.0008 N.ar    1  LIG1       -0.3508
     16 H          -3.3558    0.8153   -0.0001 H       1  LIG1        0.1660
     17 H          -2.0200   -3.1645    0.0014 H       1  LIG1        0.0652
     18 N          -5.6035   -4.3591    0.0036 N.1     1  LIG1       -0.1908
     19 C          -4.9063   -3.4344    0.0029 C.1     1  LIG1        0.1013
     20 C          -5.8245   -0.3926    0.0022 C.ar    1  LIG1        0.0659
     21 C          -7.0596   -0.9955    0.0015 C.ar    1  LIG1       -0.0169
     22 C          -8.0290    0.0410    0.0025 C.ar    1  LIG1        0.0790
     23 C          -7.3602    1.2634    0.0038 C.ar    1  LIG1        0.0810
     24 N          -6.0306    0.9769    0.0036 N.ar    1  LIG1       -0.3508
     25 H          -5.3159    1.6888    0.0049 H       1  LIG1        0.1660
     26 H          -7.2538   -2.0567    0.0003 H       1  LIG1        0.0652
     27 N         -10.6004   -0.0991    0.0022 N.1     1  LIG1       -0.1908
     28 C          -9.4412   -0.0870    0.0023 C.1     1  LIG1        0.1013
     29 C          -7.8509    2.6230    0.0053 C.ar    1  LIG1        0.0654
     30 C          -7.1630    3.8172    0.0064 C.ar    1  LIG1       -0.0175
     31 C          -8.1309    4.8568    0.0076 C.ar    1  LIG1        0.0696
     32 C          -9.3778    4.2612    0.0072 C.ar    1  LIG1        0.0197
     33 N          -9.1969    2.9205    0.0058 N.ar    1  LIG1       -0.3583
     34 H          -9.9390    2.2332    0.0052 H       1  LIG1        0.1654
     35 H         -10.3604    4.7057    0.0078 H       1  LIG1        0.0820
     36 H          -6.0917    3.9579    0.0063 H       1  LIG1        0.0652
     37 N          -7.6702    7.3950    0.0101 N.1     1  LIG1       -0.1908
     38 C          -7.8793    6.2569    0.0089 C.1     1  LIG1        0.1007
@<TRIPOS>BOND
     1     7     1    1
     2     6     5    1
     3     1     5   ar
     4     1     2   ar
     5     5     4   ar
     6     8     2    1
     7     2     3   ar
     8     4     3   ar
     9     4    11    1
    10    16    15    1
    11     3    10    1
    12    26    21    1
    13    11    15   ar
    14    11    12   ar
    15    15    14   ar
    16    12    17    1
    17    12    13   ar
    18    10     9    3
    19    21    20   ar
    20    21    22   ar
    21    14    13   ar
    22    14    20    1
    23    13    19    1
    24    27    28    3
    25    20    24   ar
    26    28    22    1
    27    22    23   ar
    28    19    18    3
    29    24    23   ar
    30    24    25    1
    31    23    29    1
    32    34    33    1
    33    29    33   ar
    34    29    30   ar
    35    33    32   ar
    36    36    30    1
    37    30    31   ar
    38    32    31   ar
    39    32    35    1
    40    31    38    1
    41    38    37    3
