@<TRIPOS>MOLECULE
mol_data/opt/cam/geoms/mol2/13ad13ad-.out
 20 21 0 0 0
SMALL
GASTEIGER

@<TRIPOS>ATOM
      1 C           1.2275   -0.3008   -0.0001 C.ar    1  LIG1        0.0035
      2 C           0.8468    1.0091   -0.0003 C.ar    1  LIG1       -0.0263
      3 C          -0.5792    1.0235    0.0003 C.ar    1  LIG1        0.0784
      4 C          -1.0233   -0.2953    0.0003 C.ar    1  LIG1        0.0805
      5 N           0.0929   -1.0760    0.0001 N.ar    1  LIG1       -0.3585
      6 H           0.0818   -2.0830    0.0001 H       1  LIG1        0.1654
      7 H           2.2081   -0.7495   -0.0003 H       1  LIG1        0.0807
      8 H           1.4934    1.8726   -0.0007 H       1  LIG1        0.0645
      9 N          -2.2091    3.0174    0.0006 N.1     1  LIG1       -0.1908
     10 C          -1.4396    2.1496    0.0005 C.1     1  LIG1        0.1013
     11 C          -2.3591   -0.8542    0.0006 C.ar    1  LIG1        0.0654
     12 C          -2.7773   -2.1659    0.0006 C.ar    1  LIG1       -0.0175
     13 C          -4.1989   -2.1545    0.0012 C.ar    1  LIG1        0.0696
     14 C          -4.6004   -0.8332    0.0011 C.ar    1  LIG1        0.0197
     15 N          -3.4870   -0.0626    0.0009 N.ar    1  LIG1       -0.3583
     16 H          -3.4795    0.9489    0.0009 H       1  LIG1        0.1654
     17 H          -5.5910   -0.4069    0.0013 H       1  LIG1        0.0820
     18 H          -2.1583   -3.0507    0.0004 H       1  LIG1        0.0652
     19 N          -5.7488   -4.2164    0.0017 N.1     1  LIG1       -0.1908
     20 C          -5.0581   -3.2877    0.0015 C.1     1  LIG1        0.1007
@<TRIPOS>BOND
     1     8     2    1
     2     2     1   ar
     3     2     3   ar
     4     7     1    1
     5     1     5   ar
     6     5     6    1
     7     5     4   ar
     8     3     4   ar
     9     3    10    1
    10     4    11    1
    11    18    12    1
    12    10     9    3
    13    12    11   ar
    14    12    13   ar
    15    11    15   ar
    16    15    16    1
    17    15    14   ar
    18    14    13   ar
    19    14    17    1
    20    13    20    1
    21    20    19    3
