@<TRIPOS>MOLECULE
mol_data/opt/cam/geoms/mol2/13ad13ad13ad-13ad.out
 38 41 0 0 0
SMALL
GASTEIGER

@<TRIPOS>ATOM
      1 C           1.3070   -0.0660   -0.3444 C.ar    1  LIG1        0.0035
      2 C           0.9188    1.1083    0.2332 C.ar    1  LIG1       -0.0263
      3 C          -0.4955    1.0450    0.3996 C.ar    1  LIG1        0.0784
      4 C          -0.9262   -0.1788   -0.0905 C.ar    1  LIG1        0.0805
      5 N           0.1882   -0.8422   -0.5280 N.ar    1  LIG1       -0.3585
      6 H           0.1675   -1.6977   -1.0597 H       1  LIG1        0.1654
      7 H           2.2832   -0.4162   -0.6409 H       1  LIG1        0.0807
      8 H           1.5566    1.9291    0.5219 H       1  LIG1        0.0645
      9 N          -2.0246    2.8441    1.4357 N.1     1  LIG1       -0.1908
     10 C          -1.3344    2.0356    0.9774 C.1     1  LIG1        0.1013
     11 C          -2.2559   -0.7476   -0.1621 C.ar    1  LIG1        0.0659
     12 C          -3.4746   -0.1490   -0.3535 C.ar    1  LIG1       -0.0169
     13 C          -4.4523   -1.1806   -0.3372 C.ar    1  LIG1        0.0790
     14 C          -3.8022   -2.3945   -0.1345 C.ar    1  LIG1        0.0810
     15 N          -2.4715   -2.1097   -0.0415 N.ar    1  LIG1       -0.3508
     16 H          -1.7771   -2.7694    0.2718 H       1  LIG1        0.1660
     17 H          -3.6523    0.9049   -0.5004 H       1  LIG1        0.0652
     18 N          -7.0092   -1.0704   -0.6208 N.1     1  LIG1       -0.1908
     19 C          -5.8558   -1.0618   -0.5035 C.1     1  LIG1        0.1013
     20 C          -4.3162   -3.7399   -0.0244 C.ar    1  LIG1        0.0659
     21 C          -3.6593   -4.9404    0.1149 C.ar    1  LIG1       -0.0169
     22 C          -4.6501   -5.9548    0.1774 C.ar    1  LIG1        0.0790
     23 C          -5.8984   -5.3419    0.0708 C.ar    1  LIG1        0.0810
     24 N          -5.6689   -4.0094   -0.0475 N.ar    1  LIG1       -0.3508
     25 H          -6.3906   -3.3073   -0.1474 H       1  LIG1        0.1660
     26 H          -2.5930   -5.1033    0.1603 H       1  LIG1        0.0652
     27 N          -4.3652   -8.5011    0.4337 N.1     1  LIG1       -0.1908
     28 C          -4.4519   -7.3507    0.3185 C.1     1  LIG1        0.1013
     29 C          -7.2348   -5.8919    0.0684 C.ar    1  LIG1        0.0654
     30 C          -8.4526   -5.2620   -0.0680 C.ar    1  LIG1       -0.0175
     31 C          -9.4520   -6.2687   -0.0009 C.ar    1  LIG1        0.0696
     32 C          -8.8096   -7.4797    0.1738 C.ar    1  LIG1        0.0197
     33 N          -7.4784   -7.2412    0.2141 N.ar    1  LIG1       -0.3583
     34 H          -6.7652   -7.9483    0.3303 H       1  LIG1        0.1654
     35 H          -9.2157   -8.4743    0.2694 H       1  LIG1        0.0820
     36 H          -8.6296   -4.2049   -0.2049 H       1  LIG1        0.0652
     37 N         -12.0043   -5.9345   -0.1724 N.1     1  LIG1       -0.1908
     38 C         -10.8596   -6.0846   -0.0954 C.1     1  LIG1        0.1007
@<TRIPOS>BOND
     1     6     5    1
     2     7     1    1
     3    18    19    3
     4     5     1   ar
     5     5     4   ar
     6    19    13    1
     7    17    12    1
     8    12    13   ar
     9    12    11   ar
    10     1     2   ar
    11    13    14   ar
    12    36    30    1
    13    37    38    3
    14    11     4    1
    15    11    15   ar
    16    25    24    1
    17    14    15   ar
    18    14    20    1
    19    38    31    1
    20     4     3   ar
    21    30    31   ar
    22    30    29   ar
    23    24    20   ar
    24    24    23   ar
    25    15    16    1
    26    20    21   ar
    27    31    32   ar
    28    29    23    1
    29    29    33   ar
    30    23    22   ar
    31    21    26    1
    32    21    22   ar
    33    32    33   ar
    34    32    35    1
    35    22    28    1
    36    33    34    1
    37     2     3   ar
    38     2     8    1
    39    28    27    3
    40     3    10    1
    41    10     9    3
