@<TRIPOS>MOLECULE
mol_data/opt/cam/geoms/mol2/13ad12hh12ih12ea.out
 43 46 0 0 0
SMALL
GASTEIGER

@<TRIPOS>ATOM
      1 C           1.0938    0.0034    0.7212 C.ar    1  LIG1        0.0035
      2 C           0.7197    1.3027    0.5422 C.ar    1  LIG1       -0.0263
      3 C          -0.6660    1.2961    0.1953 C.ar    1  LIG1        0.0800
      4 C          -1.0903   -0.0325    0.1718 C.ar    1  LIG1        0.1016
      5 N          -0.0033   -0.7886    0.4946 N.ar    1  LIG1       -0.3572
      6 H          -0.0440   -1.7948    0.5505 H       1  LIG1        0.1655
      7 H           2.0460   -0.4252    0.9903 H       1  LIG1        0.0807
      8 H           1.3420    2.1781    0.6441 H       1  LIG1        0.0645
      9 N          -2.1343    3.3599   -0.2691 N.1     1  LIG1       -0.1908
     10 C          -1.4650    2.4364   -0.0569 C.1     1  LIG1        0.1014
     11 C          -2.3445   -0.6926   -0.0949 C.ar    1  LIG1        0.1755
     12 C          -3.5852   -0.3423   -0.5633 C.ar    1  LIG1        0.0942
     13 C          -4.3448   -1.5568   -0.6193 C.ar    1  LIG1        0.0958
     14 C          -3.5361   -2.5566   -0.1625 C.ar    1  LIG1        0.1933
     15 O          -2.3081   -2.0419    0.1488 O.2     1  LIG1       -0.4464
     16 N          -4.1196    0.8525   -1.0316 N.pl3   1  LIG1       -0.3535
     17 H          -3.5230    1.6664   -0.9547 H       1  LIG1        0.1425
     18 H          -5.0317    1.0466   -0.6353 H       1  LIG1        0.1425
     19 N          -5.6620   -1.5927   -1.0745 N.pl3   1  LIG1       -0.3535
     20 H          -5.7961   -0.9377   -1.8382 H       1  LIG1        0.1425
     21 H          -5.9588   -2.5197   -1.3521 H       1  LIG1        0.1425
     22 C          -3.7328   -3.9726    0.0109 C.ar    1  LIG1        0.1773
     23 C          -4.8178   -4.7098    0.3990 C.ar    1  LIG1        0.0199
     24 C          -4.3979   -6.0799    0.3477 C.ar    1  LIG1        0.0778
     25 C          -3.0850   -6.0706   -0.0602 C.ar    1  LIG1        0.1927
     26 O          -2.6784   -4.7742   -0.2673 O.2     1  LIG1       -0.4463
     27 C          -6.1450   -4.2387    0.8997 C.3     1  LIG1       -0.0342
     28 H          -6.3493   -4.6562    1.8911 H       1  LIG1        0.0279
     29 H          -6.9681   -4.5482    0.2440 H       1  LIG1        0.0279
     30 H          -6.1801   -3.1515    0.9798 H       1  LIG1        0.0279
     31 N          -5.1745   -7.1408    0.7706 N.pl3   1  LIG1       -0.3547
     32 H          -6.1683   -6.9755    0.7085 H       1  LIG1        0.1424
     33 H          -4.9146   -8.0490    0.4079 H       1  LIG1        0.1424
     34 C          -2.0935   -7.0895   -0.2534 C.ar    1  LIG1        0.1868
     35 C          -2.1499   -8.4348   -0.5487 C.ar    1  LIG1        0.0735
     36 C          -0.7869   -8.8953   -0.5621 C.ar    1  LIG1       -0.0077
     37 C          -0.0221   -7.8164   -0.3002 C.ar    1  LIG1        0.0939
     38 O          -0.7984   -6.7153   -0.1059 O.2     1  LIG1       -0.4585
     39 H           1.0417   -7.6604   -0.2244 H       1  LIG1        0.1030
     40 C          -3.2986   -9.2070   -0.8550 C.1     1  LIG1       -0.0658
     41 C          -4.2656   -9.8778   -1.1210 C.1     1  LIG1       -0.1138
     42 H          -5.1054  -10.4756   -1.3912 H       1  LIG1        0.1232
     43 H          -0.4544   -9.9021   -0.7619 H       1  LIG1        0.0661
@<TRIPOS>BOND
     1    20    19    1
     2    42    41    1
     3    21    19    1
     4    41    40    3
     5    19    13    1
     6    16    17    1
     7    16    18    1
     8    16    12    1
     9    40    35    1
    10    43    36    1
    11    13    12   ar
    12    13    14   ar
    13    12    11   ar
    14    36    35   ar
    15    36    37   ar
    16    35    34   ar
    17    37    39    1
    18    37    38   ar
    19     9    10    3
    20    26    25   ar
    21    26    22   ar
    22    34    38   ar
    23    34    25    1
    24    14    22    1
    25    14    15   ar
    26    11    15   ar
    27    11     4    1
    28    25    24   ar
    29    10     3    1
    30    22    23   ar
    31     4     3   ar
    32     4     5   ar
    33     3     2   ar
    34    29    27    1
    35    24    23   ar
    36    24    31    1
    37    23    27    1
    38    33    31    1
    39     5     6    1
    40     5     1   ar
    41     2     8    1
    42     2     1   ar
    43    32    31    1
    44     1     7    1
    45    27    30    1
    46    27    28    1
