@<TRIPOS>MOLECULE
mol_data/opt/cam/geoms/mol2/13ad13ad13ad13ad-.out
 38 41 0 0 0
SMALL
GASTEIGER

@<TRIPOS>ATOM
      1 C           1.2794   -0.0251   -0.0588 C.ar    1  LIG1        0.0035
      2 C           0.8175    1.2091   -0.4141 C.ar    1  LIG1       -0.0263
      3 C          -0.6064    1.1503   -0.3757 C.ar    1  LIG1        0.0784
      4 C          -0.9681   -0.1322    0.0092 C.ar    1  LIG1        0.0805
      5 N           0.1947   -0.8326    0.1852 N.ar    1  LIG1       -0.3585
      6 H           0.2461   -1.7505    0.5966 H       1  LIG1        0.1654
      7 H           2.2864   -0.3984    0.0411 H       1  LIG1        0.0807
      8 H           1.4107    2.0687   -0.6847 H       1  LIG1        0.0645
      9 N          -2.2554    3.0521   -0.9344 N.1     1  LIG1       -0.1908
     10 C          -1.5132    2.1979   -0.6902 C.1     1  LIG1        0.1013
     11 C          -2.2754   -0.7238    0.2007 C.ar    1  LIG1        0.0659
     12 C          -3.4552   -0.1684    0.6219 C.ar    1  LIG1       -0.0169
     13 C          -4.4347   -1.2009    0.6164 C.ar    1  LIG1        0.0790
     14 C          -3.8253   -2.3684    0.1854 C.ar    1  LIG1        0.0810
     15 N          -2.5049   -2.0704   -0.0409 N.ar    1  LIG1       -0.3508
     16 H          -1.9115   -2.6306   -0.6343 H       1  LIG1        0.1660
     17 H          -3.6062    0.8568    0.9227 H       1  LIG1        0.0652
     18 N          -6.9079   -1.0140    1.3217 N.1     1  LIG1       -0.1908
     19 C          -5.7952   -1.0907    1.0123 C.1     1  LIG1        0.1013
     20 C          -4.3684   -3.6925   -0.0152 C.ar    1  LIG1        0.0659
     21 C          -5.6348   -4.0982   -0.3530 C.ar    1  LIG1       -0.0169
     22 C          -5.6119   -5.5174   -0.4236 C.ar    1  LIG1        0.0790
     23 C          -4.3231   -5.9487   -0.1248 C.ar    1  LIG1        0.0810
     24 N          -3.5838   -4.8268    0.1078 N.ar    1  LIG1       -0.3508
     25 H          -2.6618   -4.8405    0.5134 H       1  LIG1        0.1660
     26 H          -6.4821   -3.4575   -0.5419 H       1  LIG1        0.0652
     27 N          -7.4935   -7.1825   -0.9888 N.1     1  LIG1       -0.1908
     28 C          -6.6798   -6.3936   -0.7458 C.1     1  LIG1        0.1013
     29 C          -3.7531   -7.2743   -0.0399 C.ar    1  LIG1        0.0654
     30 C          -2.4506   -7.6686    0.1733 C.ar    1  LIG1       -0.0175
     31 C          -2.4349   -9.0889    0.1710 C.ar    1  LIG1        0.0696
     32 C          -3.7310   -9.5144   -0.0473 C.ar    1  LIG1        0.0197
     33 N          -4.5126   -8.4165   -0.1708 N.ar    1  LIG1       -0.3583
     34 H          -5.5084   -8.4283   -0.3495 H       1  LIG1        0.1654
     35 H          -4.1321  -10.5129   -0.1209 H       1  LIG1        0.0820
     36 H          -1.5878   -7.0332    0.3067 H       1  LIG1        0.0652
     37 N          -0.3633  -10.5890    0.5044 N.1     1  LIG1       -0.1908
     38 C          -1.2979   -9.9235    0.3540 C.1     1  LIG1        0.1007
@<TRIPOS>BOND
     1    27    28    3
     2     9    10    3
     3    28    22    1
     4    10     3    1
     5     8     2    1
     6    16    15    1
     7    26    21    1
     8    22    21   ar
     9    22    23   ar
    10     2     3   ar
    11     2     1   ar
    12     3     4   ar
    13    21    20   ar
    14    34    33    1
    15    33    32   ar
    16    33    29   ar
    17    23    29    1
    18    23    24   ar
    19    35    32    1
    20     1     7    1
    21     1     5   ar
    22    32    31   ar
    23    15    14   ar
    24    15    11   ar
    25    29    30   ar
    26    20    24   ar
    27    20    14    1
    28     4     5   ar
    29     4    11    1
    30    24    25    1
    31    31    30   ar
    32    31    38    1
    33    30    36    1
    34     5     6    1
    35    14    13   ar
    36    11    12   ar
    37    38    37    3
    38    13    12   ar
    39    13    19    1
    40    12    17    1
    41    19    18    3
