@<TRIPOS>MOLECULE
mol_data/opt/cam/geoms/mol2/13ad13ad.out
 20 21 0 0 0
SMALL
GASTEIGER

@<TRIPOS>ATOM
      1 C           1.2108   -0.2902   -0.3036 C.ar    1  LIG1        0.0035
      2 C           0.8458    0.9835    0.0229 C.ar    1  LIG1       -0.0263
      3 C          -0.5705    0.9828    0.1925 C.ar    1  LIG1        0.0784
      4 C          -1.0256   -0.3054   -0.0426 C.ar    1  LIG1        0.0805
      5 N           0.0757   -1.0645   -0.3320 N.ar    1  LIG1       -0.3585
      6 H           0.0351   -2.0101   -0.6770 H       1  LIG1        0.1654
      7 H           2.1798   -0.7127   -0.5179 H       1  LIG1        0.0807
      8 H           1.4995    1.8334    0.1431 H       1  LIG1        0.0645
      9 N          -2.0459    2.9939    0.8467 N.1     1  LIG1       -0.1908
     10 C          -1.3847    2.0885    0.5581 C.1     1  LIG1        0.1013
     11 C          -2.3659   -0.8576   -0.0074 C.ar    1  LIG1        0.0654
     12 C          -3.5706   -0.3122   -0.3739 C.ar    1  LIG1       -0.0175
     13 C          -4.5686   -1.2999   -0.1343 C.ar    1  LIG1        0.0696
     14 C          -3.9392   -2.4171    0.3723 C.ar    1  LIG1        0.0197
     15 N          -2.6091   -2.1448    0.4356 N.ar    1  LIG1       -0.3583
     16 H          -1.9292   -2.7295    0.8947 H       1  LIG1        0.1654
     17 H          -4.3480   -3.3642    0.6871 H       1  LIG1        0.0820
     18 H          -3.7260    0.6752   -0.7802 H       1  LIG1        0.0652
     19 N          -7.1003   -1.0986   -0.5897 N.1     1  LIG1       -0.1908
     20 C          -5.9651   -1.1864   -0.3840 C.1     1  LIG1        0.1007
@<TRIPOS>BOND
     1    18    12    1
     2     6     5    1
     3    19    20    3
     4     7     1    1
     5    20    13    1
     6    12    13   ar
     7    12    11   ar
     8     5     1   ar
     9     5     4   ar
    10     1     2   ar
    11    13    14   ar
    12     4    11    1
    13     4     3   ar
    14    11    15   ar
    15     2     8    1
    16     2     3   ar
    17     3    10    1
    18    14    15   ar
    19    14    17    1
    20    15    16    1
    21    10     9    3
