@<TRIPOS>MOLECULE
mol_data/opt/cam/geoms/mol2/13ad13ad-4ad13ad.out
 40 43 0 0 0
SMALL
GASTEIGER

@<TRIPOS>ATOM
      1 C           1.3373   -0.1509   -0.2599 C.ar    1  LIG1        0.0035
      2 C           0.8757    1.1327   -0.2206 C.ar    1  LIG1       -0.0263
      3 C          -0.5424    1.0559   -0.0998 C.ar    1  LIG1        0.0784
      4 C          -0.8994   -0.2896   -0.0699 C.ar    1  LIG1        0.0805
      5 N           0.2595   -0.9979   -0.1687 N.ar    1  LIG1       -0.3585
      6 H           0.3104   -2.0033   -0.2018 H       1  LIG1        0.1654
      7 H           2.3412   -0.5351   -0.3467 H       1  LIG1        0.0807
      8 H           1.4647    2.0351   -0.2691 H       1  LIG1        0.0645
      9 N          -2.3217    2.9114    0.0406 N.1     1  LIG1       -0.1908
     10 C          -1.4793    2.1163   -0.0190 C.1     1  LIG1        0.1013
     11 C          -2.1954   -0.9208    0.0492 C.ar    1  LIG1        0.0658
     12 C          -2.5434   -2.2365    0.2536 C.ar    1  LIG1       -0.0169
     13 C          -3.9608   -2.2953    0.2948 C.ar    1  LIG1        0.0776
     14 C          -4.4496   -1.0025    0.1174 C.ar    1  LIG1        0.0646
     15 N          -3.3618   -0.1973   -0.0284 N.ar    1  LIG1       -0.3520
     16 H          -3.4027    0.7949   -0.2184 H       1  LIG1        0.1660
     17 H          -1.8792   -3.0771    0.3876 H       1  LIG1        0.0652
     18 N          -5.3518   -4.4294    0.6928 N.1     1  LIG1       -0.1908
     19 C          -4.7297   -3.4683    0.5193 C.1     1  LIG1        0.1013
     20 C          -6.0468    0.8891    0.3931 C.ar    1  LIG1       -0.0519
     21 C          -7.3231    1.4119    0.3657 C.ar    1  LIG1       -0.0508
     22 C          -5.8076   -0.4608    0.0963 C.ar    1  LIG1        0.0008
     23 C          -8.4419    0.6331    0.0395 C.ar    1  LIG1        0.0157
     24 H          -7.4641    2.4527    0.6282 H       1  LIG1        0.0625
     25 C          -6.9031   -1.2585   -0.2179 C.ar    1  LIG1       -0.0346
     26 C          -8.1940   -0.7267   -0.2452 C.ar    1  LIG1        0.0615
     27 H          -6.7724   -2.3075   -0.4529 H       1  LIG1        0.0637
     28 H          -5.2287    1.5427    0.6795 H       1  LIG1        0.0624
     29 N         -10.1415   -2.3299   -0.8394 N.1     1  LIG1       -0.1908
     30 C          -9.2589   -1.6248   -0.5857 C.1     1  LIG1        0.0998
     31 C          -9.7567    1.2750    0.0113 C.ar    1  LIG1        0.0490
     32 C         -10.0484    2.6243    0.0172 C.ar    1  LIG1       -0.0190
     33 C         -11.4591    2.7605   -0.0076 C.ar    1  LIG1        0.0696
     34 C         -11.9924    1.4856   -0.0294 C.ar    1  LIG1        0.0196
     35 N         -10.9658    0.6072   -0.0182 N.ar    1  LIG1       -0.3594
     36 H         -11.0769   -0.3958   -0.0565 H       1  LIG1        0.1654
     37 H         -13.0208    1.1613   -0.0543 H       1  LIG1        0.0820
     38 H          -9.3423    3.4396    0.0180 H       1  LIG1        0.0652
     39 N         -12.7970    4.9660   -0.0194 N.1     1  LIG1       -0.1908
     40 C         -12.2001    3.9746   -0.0145 C.1     1  LIG1        0.1007
@<TRIPOS>BOND
     1    29    30    3
     2    30    26    1
     3    27    25    1
     4     7     1    1
     5     8     2    1
     6     1     2   ar
     7     1     5   ar
     8    26    25   ar
     9    26    23   ar
    10     2     3   ar
    11    16    15    1
    12    25    22   ar
    13     6     5    1
    14     5     4   ar
    15     3     4   ar
    16     3    10    1
    17     4    11    1
    18    36    35    1
    19    37    34    1
    20    34    35   ar
    21    34    33   ar
    22    15    11   ar
    23    15    14   ar
    24    39    40    3
    25    10     9    3
    26    35    31   ar
    27    40    33    1
    28    33    32   ar
    29    31    32   ar
    30    31    23    1
    31    32    38    1
    32    23    21   ar
    33    11    12   ar
    34    22    14    1
    35    22    20   ar
    36    14    13   ar
    37    12    13   ar
    38    12    17    1
    39    13    19    1
    40    21    20   ar
    41    21    24    1
    42    20    28    1
    43    19    18    3
