@<TRIPOS>MOLECULE
mol_data/opt/cam/geoms/mol2/13ad13ad13ad-13ad-.out
 38 41 0 0 0
SMALL
GASTEIGER

@<TRIPOS>ATOM
      1 C           1.2932   -0.0502   -0.5129 C.ar    1  LIG1        0.0035
      2 C           0.9234    1.1237    0.0774 C.ar    1  LIG1       -0.0263
      3 C          -0.4812    1.0509    0.3088 C.ar    1  LIG1        0.0784
      4 C          -0.9251   -0.1781   -0.1560 C.ar    1  LIG1        0.0805
      5 N           0.1728   -0.8352   -0.6422 N.ar    1  LIG1       -0.3585
      6 H           0.1359   -1.6932   -1.1689 H       1  LIG1        0.1654
      7 H           2.2572   -0.3950   -0.8521 H       1  LIG1        0.0807
      8 H           1.5679    1.9502    0.3333 H       1  LIG1        0.0645
      9 N          -1.9791    2.8418    1.4030 N.1     1  LIG1       -0.1908
     10 C          -1.3014    2.0376    0.9191 C.1     1  LIG1        0.1013
     11 C          -2.2538   -0.7539   -0.1621 C.ar    1  LIG1        0.0659
     12 C          -3.4821   -0.1592   -0.2960 C.ar    1  LIG1       -0.0169
     13 C          -4.4544   -1.1938   -0.2272 C.ar    1  LIG1        0.0790
     14 C          -3.7902   -2.4066   -0.0521 C.ar    1  LIG1        0.0810
     15 N          -2.4596   -2.1164   -0.0253 N.ar    1  LIG1       -0.3508
     16 H          -1.7426   -2.7834    0.2126 H       1  LIG1        0.1660
     17 H          -3.6688    0.8942   -0.4343 H       1  LIG1        0.0652
     18 N          -7.0223   -1.1447   -0.3887 N.1     1  LIG1       -0.1908
     19 C          -5.8655   -1.0932   -0.3194 C.1     1  LIG1        0.1013
     20 C          -4.3065   -3.7466    0.0973 C.ar    1  LIG1        0.0659
     21 C          -3.6885   -4.9315    0.4254 C.ar    1  LIG1       -0.0169
     22 C          -4.6893   -5.9382    0.4533 C.ar    1  LIG1        0.0790
     23 C          -5.9051   -5.3378    0.1368 C.ar    1  LIG1        0.0810
     24 N          -5.6473   -4.0194   -0.0747 N.ar    1  LIG1       -0.3508
     25 H          -6.3196   -3.3390   -0.4004 H       1  LIG1        0.1660
     26 H          -2.6437   -5.0857    0.6509 H       1  LIG1        0.0652
     27 N          -4.3367   -8.4301    1.0085 N.1     1  LIG1       -0.1908
     28 C          -4.4960   -7.3094    0.7653 C.1     1  LIG1        0.1013
     29 C          -7.2397   -5.8841    0.0383 C.ar    1  LIG1        0.0654
     30 C          -7.6663   -7.1807   -0.1281 C.ar    1  LIG1       -0.0175
     31 C          -9.0870   -7.1500   -0.1747 C.ar    1  LIG1        0.0696
     32 C          -9.4822   -5.8351   -0.0342 C.ar    1  LIG1        0.0197
     33 N          -8.3629   -5.0787    0.0889 N.ar    1  LIG1       -0.3583
     34 H          -8.3708   -4.0882    0.2810 H       1  LIG1        0.1654
     35 H         -10.4702   -5.4033   -0.0101 H       1  LIG1        0.0820
     36 H          -7.0386   -8.0539   -0.2161 H       1  LIG1        0.0652
     37 N         -10.6743   -9.1601   -0.4862 N.1     1  LIG1       -0.1908
     38 C          -9.9620   -8.2593   -0.3455 C.1     1  LIG1        0.1007
@<TRIPOS>BOND
     1     6     5    1
     2     7     1    1
     3     5     1   ar
     4     5     4   ar
     5     1     2   ar
     6    37    38    3
     7    17    12    1
     8    25    24    1
     9    18    19    3
    10    38    31    1
    11    19    13    1
    12    12    13   ar
    13    12    11   ar
    14    13    14   ar
    15    36    30    1
    16    31    30   ar
    17    31    32   ar
    18    11     4    1
    19    11    15   ar
    20     4     3   ar
    21    30    29   ar
    22    24    20   ar
    23    24    23   ar
    24    14    15   ar
    25    14    20    1
    26    32    35    1
    27    32    33   ar
    28    15    16    1
    29    29    33   ar
    30    29    23    1
    31     2     3   ar
    32     2     8    1
    33    33    34    1
    34    20    21   ar
    35    23    22   ar
    36     3    10    1
    37    21    22   ar
    38    21    26    1
    39    22    28    1
    40    28    27    3
    41    10     9    3
