@<TRIPOS>MOLECULE
mol_data/opt/cam/geoms/mol2/13ae13ae-13ae-13ae-.out
 42 45 0 0 0
SMALL
GASTEIGER

@<TRIPOS>ATOM
      1 C           1.3270   -0.2564   -0.1867 C.ar    1  LIG1        0.0034
      2 C           0.8916    1.0074   -0.4631 C.ar    1  LIG1       -0.0283
      3 C          -0.5363    0.9808   -0.4365 C.ar    1  LIG1        0.0513
      4 C          -0.9209   -0.3242   -0.1386 C.ar    1  LIG1        0.0785
      5 N           0.2254   -1.0518    0.0073 N.ar    1  LIG1       -0.3585
      6 H           0.2494   -2.0343    0.2242 H       1  LIG1        0.1654
      7 H           2.3251   -0.6583   -0.1118 H       1  LIG1        0.0807
      8 H           1.5046    1.8717   -0.6669 H       1  LIG1        0.0645
      9 C          -1.4074    2.0764   -0.6791 C.1     1  LIG1       -0.0675
     10 C          -2.1538    3.0022   -0.8889 C.1     1  LIG1       -0.1138
     11 H          -2.7760    3.8423   -1.0976 H       1  LIG1        0.1232
     12 C          -2.2313   -0.9138    0.0138 C.ar    1  LIG1        0.0657
     13 C          -2.6281   -2.1987    0.3093 C.ar    1  LIG1       -0.0189
     14 C          -4.0504   -2.2207    0.3306 C.ar    1  LIG1        0.0520
     15 C          -4.4858   -0.9314    0.0421 C.ar    1  LIG1        0.0790
     16 N          -3.3709   -0.1599   -0.1395 N.ar    1  LIG1       -0.3509
     17 H          -3.3525    0.7900   -0.4844 H       1  LIG1        0.1660
     18 H          -1.9918   -3.0489    0.5069 H       1  LIG1        0.0652
     19 C          -4.8727   -3.3420    0.6200 C.1     1  LIG1       -0.0675
     20 C          -5.5598   -4.3013    0.8628 C.1     1  LIG1       -0.1138
     21 H          -6.1699   -5.1467    1.0825 H       1  LIG1        0.1232
     22 C          -5.8187   -0.3777   -0.0429 C.ar    1  LIG1        0.0658
     23 C          -7.0208   -0.9549   -0.3738 C.ar    1  LIG1       -0.0189
     24 C          -8.0210    0.0559   -0.3170 C.ar    1  LIG1        0.0520
     25 C          -7.3956    1.2400    0.0528 C.ar    1  LIG1        0.0790
     26 N          -6.0641    0.9567    0.2154 N.ar    1  LIG1       -0.3509
     27 H          -5.3630    1.6378    0.4576 H       1  LIG1        0.1660
     28 H          -7.1710   -1.9911   -0.6320 H       1  LIG1        0.0652
     29 C          -9.4084   -0.1096   -0.5772 C.1     1  LIG1       -0.0675
     30 C         -10.5816   -0.2595   -0.8045 C.1     1  LIG1       -0.1138
     31 H         -11.6204   -0.3920   -0.9997 H       1  LIG1        0.1232
     32 C          -7.9300    2.5668    0.2801 C.ar    1  LIG1        0.0653
     33 C          -8.9508    3.2460   -0.3378 C.ar    1  LIG1       -0.0195
     34 C          -9.0488    4.5313    0.2742 C.ar    1  LIG1        0.0426
     35 C          -8.0779    4.5899    1.2515 C.ar    1  LIG1        0.0177
     36 N          -7.3964    3.4079    1.2393 N.ar    1  LIG1       -0.3584
     37 H          -6.7534    3.1164    1.9575 H       1  LIG1        0.1654
     38 H          -7.8346    5.3813    1.9427 H       1  LIG1        0.0819
     39 H          -9.5529    2.8736   -1.1514 H       1  LIG1        0.0651
     40 C          -9.9602    5.5716   -0.0603 C.1     1  LIG1       -0.0682
     41 C         -10.7340    6.4482   -0.3478 C.1     1  LIG1       -0.1139
     42 H         -11.4200    7.2226   -0.6017 H       1  LIG1        0.1232
@<TRIPOS>BOND
     1    39    33    1
     2    11    10    1
     3    31    30    1
     4    10     9    3
     5    30    29    3
     6     9     3    1
     7     8     2    1
     8    28    23    1
     9    42    41    1
    10    29    24    1
    11    17    16    1
    12     2     3   ar
    13     2     1   ar
    14     3     4   ar
    15    23    24   ar
    16    23    22   ar
    17    41    40    3
    18    33    34   ar
    19    33    32   ar
    20    24    25   ar
    21     1     7    1
    22     1     5   ar
    23    16    12   ar
    24    16    15   ar
    25     4     5   ar
    26     4    12    1
    27    40    34    1
    28    22    15    1
    29    22    26   ar
    30     5     6    1
    31    12    13   ar
    32    15    14   ar
    33    25    26   ar
    34    25    32    1
    35    26    27    1
    36    34    35   ar
    37    32    36   ar
    38    13    14   ar
    39    13    18    1
    40    14    19    1
    41    19    20    3
    42    20    21    1
    43    36    35   ar
    44    36    37    1
    45    35    38    1
