@<TRIPOS>MOLECULE
mol_data/opt/cam/geoms/mol2/13ae13ae13ae-13ae.out
 42 45 0 0 0
SMALL
GASTEIGER

@<TRIPOS>ATOM
      1 C           1.2892   -0.1031   -0.3935 C.ar    1  LIG1        0.0034
      2 C           0.9084    1.0969    0.1350 C.ar    1  LIG1       -0.0283
      3 C          -0.5114    1.0698    0.2887 C.ar    1  LIG1        0.0513
      4 C          -0.9489   -0.1680   -0.1611 C.ar    1  LIG1        0.0785
      5 N           0.1622   -0.8701   -0.5584 N.ar    1  LIG1       -0.3585
      6 H           0.1275   -1.7353   -1.0722 H       1  LIG1        0.1654
      7 H           2.2638   -0.4779   -0.6647 H       1  LIG1        0.0807
      8 H           1.5559    1.9178    0.4023 H       1  LIG1        0.0645
      9 C          -1.3266    2.1029    0.8242 C.1     1  LIG1       -0.0675
     10 C          -2.0075    2.9886    1.2751 C.1     1  LIG1       -0.1138
     11 H          -2.6097    3.7684    1.6802 H       1  LIG1        0.1232
     12 C          -2.2781   -0.7361   -0.2314 C.ar    1  LIG1        0.0657
     13 C          -3.5002   -0.1499   -0.4412 C.ar    1  LIG1       -0.0189
     14 C          -4.4830   -1.1813   -0.4254 C.ar    1  LIG1        0.0520
     15 C          -3.8225   -2.3858   -0.2040 C.ar    1  LIG1        0.0790
     16 N          -2.4884   -2.0970   -0.1039 N.ar    1  LIG1       -0.3509
     17 H          -1.8036   -2.7452    0.2504 H       1  LIG1        0.1660
     18 H          -3.6758    0.9013   -0.6057 H       1  LIG1        0.0652
     19 C          -5.8817   -1.0195   -0.6165 C.1     1  LIG1       -0.0675
     20 C          -7.0714   -0.8903   -0.7718 C.1     1  LIG1       -0.1138
     21 H          -8.1166   -0.7443   -0.9220 H       1  LIG1        0.1232
     22 C          -4.3208   -3.7344   -0.0781 C.ar    1  LIG1        0.0658
     23 C          -3.6611   -4.9356    0.0563 C.ar    1  LIG1       -0.0189
     24 C          -4.6448   -5.9588    0.1469 C.ar    1  LIG1        0.0520
     25 C          -5.8928   -5.3419    0.0607 C.ar    1  LIG1        0.0790
     26 N          -5.6688   -4.0054   -0.0721 N.ar    1  LIG1       -0.3509
     27 H          -6.3798   -3.2939   -0.1719 H       1  LIG1        0.1660
     28 H          -2.5931   -5.0945    0.0779 H       1  LIG1        0.0652
     29 C          -4.4039   -7.3506    0.2937 C.1     1  LIG1       -0.0675
     30 C          -4.2050   -8.5345    0.4186 C.1     1  LIG1       -0.1138
     31 H          -4.0004   -9.5745    0.5294 H       1  LIG1        0.1232
     32 C          -7.2297   -5.8893    0.0913 C.ar    1  LIG1        0.0653
     33 C          -8.4589   -5.2718    0.0058 C.ar    1  LIG1       -0.0195
     34 C          -9.4555   -6.2851    0.0893 C.ar    1  LIG1        0.0426
     35 C          -8.7915   -7.4898    0.2237 C.ar    1  LIG1        0.0177
     36 N          -7.4567   -7.2388    0.2235 N.ar    1  LIG1       -0.3584
     37 H          -6.7182   -7.9229    0.3063 H       1  LIG1        0.1654
     38 H          -9.1839   -8.4899    0.3175 H       1  LIG1        0.0819
     39 H          -8.6474   -4.2140   -0.1043 H       1  LIG1        0.0651
     40 C         -10.8656   -6.1043    0.0444 C.1     1  LIG1       -0.0682
     41 C         -12.0586   -5.9443    0.0055 C.1     1  LIG1       -0.1139
     42 H         -13.1140   -5.8048   -0.0285 H       1  LIG1        0.1232
@<TRIPOS>BOND
     1     6     5    1
     2    21    20    1
     3    20    19    3
     4     7     1    1
     5    19    14    1
     6    18    13    1
     7     5     1   ar
     8     5     4   ar
     9    13    14   ar
    10    13    12   ar
    11    14    15   ar
    12     1     2   ar
    13    12     4    1
    14    12    16   ar
    15    15    16   ar
    16    15    22    1
    17    27    26    1
    18     4     3   ar
    19    39    33    1
    20    16    17    1
    21    22    26   ar
    22    22    23   ar
    23    26    25   ar
    24    42    41    1
    25    41    40    3
    26    33    34   ar
    27    33    32   ar
    28    40    34    1
    29    23    28    1
    30    23    24   ar
    31    25    32    1
    32    25    24   ar
    33    34    35   ar
    34    32    36   ar
    35     2     3   ar
    36     2     8    1
    37    24    29    1
    38    36    35   ar
    39    36    37    1
    40    35    38    1
    41     3     9    1
    42    29    30    3
    43    30    31    1
    44     9    10    3
    45    10    11    1
