@<TRIPOS>MOLECULE
mol_data/opt/cam/geoms/mol2/13ae13ae13ae13ae.out
 42 45 0 0 0
SMALL
GASTEIGER

@<TRIPOS>ATOM
      1 C           0.9696    0.1415   -1.5175 C.ar    1  LIG1        0.0034
      2 C           0.8696    1.0959   -0.5464 C.ar    1  LIG1       -0.0283
      3 C          -0.4133    0.9551    0.0662 C.ar    1  LIG1        0.0513
      4 C          -1.0577   -0.0972   -0.5672 C.ar    1  LIG1        0.0785
      5 N          -0.1943   -0.5878   -1.5166 N.ar    1  LIG1       -0.3585
      6 H          -0.4606   -1.2383   -2.2378 H       1  LIG1        0.1654
      7 H           1.7679   -0.0828   -2.2077 H       1  LIG1        0.0807
      8 H           1.6216    1.8210   -0.2756 H       1  LIG1        0.0645
      9 C          -0.9297    1.7270    1.1420 C.1     1  LIG1       -0.0675
     10 C          -1.3579    2.3913    2.0510 C.1     1  LIG1       -0.1138
     11 H          -1.7380    2.9751    2.8569 H       1  LIG1        0.1232
     12 C          -2.3688   -0.6750   -0.3494 C.ar    1  LIG1        0.0657
     13 C          -3.5689   -0.0946   -0.0215 C.ar    1  LIG1       -0.0189
     14 C          -4.5485   -1.1253    0.0511 C.ar    1  LIG1        0.0520
     15 C          -3.9122   -2.3253   -0.2382 C.ar    1  LIG1        0.0790
     16 N          -2.5932   -2.0317   -0.4774 N.ar    1  LIG1       -0.3509
     17 H          -1.8907   -2.7089   -0.7255 H       1  LIG1        0.1660
     18 H          -3.7330    0.9580    0.1470 H       1  LIG1        0.0652
     19 C          -5.9246   -0.9675    0.3700 C.1     1  LIG1       -0.0675
     20 C          -7.0900   -0.8226    0.6366 C.1     1  LIG1       -0.1138
     21 H          -8.1201   -0.6962    0.8772 H       1  LIG1        0.1232
     22 C          -4.4213   -3.6807   -0.2867 C.ar    1  LIG1        0.0658
     23 C          -5.6152   -4.1796   -0.7454 C.ar    1  LIG1       -0.0189
     24 C          -5.5933   -5.5932   -0.5770 C.ar    1  LIG1        0.0520
     25 C          -4.3694   -5.9255   -0.0111 C.ar    1  LIG1        0.0790
     26 N          -3.6732   -4.7554    0.1543 N.ar    1  LIG1       -0.3509
     27 H          -2.7549   -4.6927    0.5624 H       1  LIG1        0.1660
     28 H          -6.4213   -3.5967   -1.1624 H       1  LIG1        0.0652
     29 C          -6.6308   -6.5036   -0.9161 C.1     1  LIG1       -0.0675
     30 C          -7.5143   -7.2666   -1.2120 C.1     1  LIG1       -0.1138
     31 H          -8.2976   -7.9421   -1.4669 H       1  LIG1        0.1232
     32 C          -3.8242   -7.2067    0.3907 C.ar    1  LIG1        0.0653
     33 C          -3.9357   -8.4513   -0.1773 C.ar    1  LIG1       -0.0195
     34 C          -3.1853   -9.3626    0.6244 C.ar    1  LIG1        0.0426
     35 C          -2.6403   -8.6353    1.6614 C.ar    1  LIG1        0.0177
     36 N          -3.0159   -7.3329    1.5057 N.ar    1  LIG1       -0.3584
     37 H          -2.9065   -6.6232    2.2119 H       1  LIG1        0.1654
     38 H          -2.0226   -8.9560    2.4854 H       1  LIG1        0.0819
     39 H          -4.4803   -8.6859   -1.0782 H       1  LIG1        0.0651
     40 C          -3.0104  -10.7568    0.3998 C.1     1  LIG1       -0.0682
     41 C          -2.8662  -11.9361    0.2042 C.1     1  LIG1       -0.1139
     42 H          -2.7408  -12.9798    0.0321 H       1  LIG1        0.1232
@<TRIPOS>BOND
     1     6     5    1
     2     7     1    1
     3     1     5   ar
     4     1     2   ar
     5     5     4   ar
     6    31    30    1
     7    30    29    3
     8    28    23    1
     9    39    33    1
    10    29    24    1
    11    23    24   ar
    12    23    22   ar
    13    17    16    1
    14    24    25   ar
    15     4    12    1
    16     4     3   ar
    17     2     8    1
    18     2     3   ar
    19    16    12   ar
    20    16    15   ar
    21    12    13   ar
    22    22    15    1
    23    22    26   ar
    24    15    14   ar
    25    33    32   ar
    26    33    34   ar
    27    13    14   ar
    28    13    18    1
    29    25    26   ar
    30    25    32    1
    31    42    41    1
    32    14    19    1
    33     3     9    1
    34    26    27    1
    35    41    40    3
    36    19    20    3
    37    32    36   ar
    38    40    34    1
    39    34    35   ar
    40    20    21    1
    41     9    10    3
    42    36    35   ar
    43    36    37    1
    44    35    38    1
    45    10    11    1
