@<TRIPOS>MOLECULE
mol_data/opt/cam/geoms/mol2/13ae13ae-.out
 22 23 0 0 0
SMALL
GASTEIGER

@<TRIPOS>ATOM
      1 C           1.2205   -0.2909   -0.0003 C.ar    1  LIG1        0.0034
      2 C           0.8263    1.0158   -0.0003 C.ar    1  LIG1       -0.0283
      3 C          -0.6022    1.0297    0.0002 C.ar    1  LIG1        0.0513
      4 C          -1.0296   -0.2948    0.0004 C.ar    1  LIG1        0.0785
      5 N           0.0927   -1.0732    0.0001 N.ar    1  LIG1       -0.3585
      6 H           0.0834   -2.0795    0.0001 H       1  LIG1        0.1654
      7 H           2.2050   -0.7317   -0.0007 H       1  LIG1        0.0807
      8 H           1.4670    1.8841   -0.0005 H       1  LIG1        0.0645
      9 C          -1.4369    2.1791    0.0004 C.1     1  LIG1       -0.0675
     10 C          -2.1515    3.1518    0.0006 C.1     1  LIG1       -0.1138
     11 H          -2.7560    4.0294    0.0008 H       1  LIG1        0.1232
     12 C          -2.3575   -0.8701    0.0009 C.ar    1  LIG1        0.0653
     13 C          -2.7761   -2.1830    0.0010 C.ar    1  LIG1       -0.0195
     14 C          -4.2006   -2.1809    0.0015 C.ar    1  LIG1        0.0426
     15 C          -4.5984   -0.8578    0.0016 C.ar    1  LIG1        0.0177
     16 N          -3.4831   -0.0820    0.0013 N.ar    1  LIG1       -0.3584
     17 H          -3.4543    0.9280    0.0012 H       1  LIG1        0.1654
     18 H          -5.5894   -0.4325    0.0020 H       1  LIG1        0.0819
     19 H          -2.1541   -3.0661    0.0008 H       1  LIG1        0.0651
     20 C          -5.0572   -3.3163    0.0018 C.1     1  LIG1       -0.0682
     21 C          -5.7761   -4.2825    0.0021 C.1     1  LIG1       -0.1139
     22 H          -6.4141   -5.1354    0.0023 H       1  LIG1        0.1232
@<TRIPOS>BOND
     1     7     1    1
     2     8     2    1
     3     1     2   ar
     4     1     5   ar
     5     2     3   ar
     6     5     6    1
     7     5     4   ar
     8     3     4   ar
     9     3     9    1
    10     4    12    1
    11     9    10    3
    12    10    11    1
    13    19    13    1
    14    12    13   ar
    15    12    16   ar
    16    13    14   ar
    17    17    16    1
    18    16    15   ar
    19    14    15   ar
    20    14    20    1
    21    15    18    1
    22    20    21    3
    23    21    22    1
