@<TRIPOS>MOLECULE
mol_data/opt/cam/geoms/mol2/13ae13fi-12ia6fl.out
 48 51 0 0 0
SMALL
GASTEIGER

@<TRIPOS>ATOM
      1 C           1.1862   -0.0256   -0.2021 C.ar    1  LIG1        0.0034
      2 C           0.7556    1.2248   -0.5366 C.ar    1  LIG1       -0.0283
      3 C          -0.6738    1.2002   -0.5286 C.ar    1  LIG1        0.0514
      4 C          -1.0664   -0.0859   -0.1736 C.ar    1  LIG1        0.0821
      5 N           0.0796   -0.8144    0.0074 N.ar    1  LIG1       -0.3584
      6 H           0.0953   -1.7430    0.3977 H       1  LIG1        0.1654
      7 H           2.1829   -0.4248   -0.0985 H       1  LIG1        0.0807
      8 H           1.3727    2.0763   -0.7789 H       1  LIG1        0.0645
      9 C          -1.5533    2.2667   -0.8459 C.1     1  LIG1       -0.0675
     10 C          -2.3200    3.1658   -1.0954 C.1     1  LIG1       -0.1138
     11 H          -2.9827    3.9585   -1.3567 H       1  LIG1        0.1232
     12 C          -2.3727   -0.6725    0.0093 C.ar    1  LIG1        0.1068
     13 C          -3.5656   -0.1437    0.4670 C.ar    1  LIG1        0.1471
     14 C          -4.5235   -1.1900    0.5658 C.ar    1  LIG1        0.0199
     15 C          -3.8915   -2.3400    0.1378 C.ar    1  LIG1        0.0894
     16 N          -2.5800   -2.0343   -0.1593 N.ar    1  LIG1       -0.3474
     17 H          -2.0283   -2.5988   -0.7867 H       1  LIG1        0.1662
     18 O          -3.8459    1.1115    0.8823 O.3     1  LIG1       -0.5043
     19 H          -3.2398    1.7461    0.4660 H       1  LIG1        0.2922
     20 C          -5.8931   -1.0288    1.1406 C.3     1  LIG1       -0.0341
     21 H          -6.3000   -1.9882    1.4662 H       1  LIG1        0.0279
     22 H          -6.5929   -0.5903    0.4217 H       1  LIG1        0.0279
     23 H          -5.8620   -0.3575    2.0023 H       1  LIG1        0.0279
     24 C          -4.3655   -3.6972   -0.0062 C.ar    1  LIG1        0.1550
     25 C          -5.5258   -4.2788   -0.4271 C.ar    1  LIG1       -0.0026
     26 C          -5.3163   -5.6914   -0.3393 C.ar    1  LIG1       -0.0121
     27 C          -4.0444   -5.8968    0.0994 C.ar    1  LIG1        0.1412
     28 O          -3.4537   -4.6803    0.3073 O.2     1  LIG1       -0.4529
     29 C          -6.7519   -3.5965   -0.9430 C.3     1  LIG1       -0.0360
     30 H          -7.1409   -4.1192   -1.8209 H       1  LIG1        0.0279
     31 H          -6.5337   -2.5666   -1.2302 H       1  LIG1        0.0279
     32 H          -7.5515   -3.5725   -0.1960 H       1  LIG1        0.0279
     33 H          -6.0392   -6.4531   -0.5919 H       1  LIG1        0.0658
     34 C          -1.9667   -7.0545    0.9556 C.ar    1  LIG1        0.2234
     35 C          -3.2457   -7.0879    0.3620 C.ar    1  LIG1        0.0820
     36 C          -3.7626   -8.3438    0.0180 C.ar    1  LIG1       -0.0027
     37 C          -3.0224   -9.4858    0.2665 C.ar    1  LIG1        0.1390
     38 C          -1.7650   -9.3296    0.8541 C.ar    1  LIG1        0.0730
     39 N          -1.2602   -8.1538    1.1842 N.ar    1  LIG1       -0.2172
     40 H          -4.7378   -8.4011   -0.4482 H       1  LIG1        0.0663
     41 H          -1.1629  -10.2126    1.0533 H       1  LIG1        0.0868
     42 O          -1.3523   -5.9161    1.3370 O.3     1  LIG1       -0.4919
     43 H          -1.9364   -5.1626    1.1675 H       1  LIG1        0.2937
     44 O          -3.4052  -10.7597   -0.0173 O.3     1  LIG1       -0.4936
     45 C          -4.6709  -10.9468   -0.6089 C.3     1  LIG1        0.0789
     46 H          -4.7889  -12.0213   -0.7468 H       1  LIG1        0.0660
     47 H          -5.4777  -10.5776    0.0363 H       1  LIG1        0.0660
     48 H          -4.7388  -10.4510   -1.5852 H       1  LIG1        0.0660
@<TRIPOS>BOND
     1    30    29    1
     2    48    45    1
     3    11    10    1
     4    31    29    1
     5    10     9    3
     6    29    25    1
     7    29    32    1
     8     9     3    1
     9    17    16    1
    10     8     2    1
    11    46    45    1
    12    45    44    1
    13    45    47    1
    14    33    26    1
    15     2     3   ar
    16     2     1   ar
    17     3     4   ar
    18    40    36    1
    19    25    26   ar
    20    25    24   ar
    21    26    27   ar
    22     1     7    1
    23     1     5   ar
    24     4     5   ar
    25     4    12    1
    26    16    12   ar
    27    16    15   ar
    28    44    37    1
    29    24    15    1
    30    24    28   ar
    31     5     6    1
    32    12    13   ar
    33    36    37   ar
    34    36    35   ar
    35    27    28   ar
    36    27    35    1
    37    15    14   ar
    38    37    38   ar
    39    35    34   ar
    40    22    20    1
    41    19    18    1
    42    13    14   ar
    43    13    18    1
    44    14    20    1
    45    38    41    1
    46    38    39   ar
    47    34    39   ar
    48    34    42    1
    49    20    21    1
    50    20    23    1
    51    43    42    1
