@<TRIPOS>MOLECULE
mol_data/opt/cam/geoms/mol2/13ae13ae-13ae13ae-.out
 42 45 0 0 0
SMALL
GASTEIGER

@<TRIPOS>ATOM
      1 C           1.3541   -0.2902   -0.0016 C.ar    1  LIG1        0.0034
      2 C           0.9531    1.0148   -0.0013 C.ar    1  LIG1       -0.0283
      3 C          -0.4748    1.0215   -0.0004 C.ar    1  LIG1        0.0513
      4 C          -0.8952   -0.3055   -0.0001 C.ar    1  LIG1        0.0785
      5 N           0.2313   -1.0788   -0.0009 N.ar    1  LIG1       -0.3585
      6 H           0.2290   -2.0851   -0.0009 H       1  LIG1        0.1654
      7 H           2.3411   -0.7253   -0.0023 H       1  LIG1        0.0807
      8 H           1.5895    1.8862   -0.0017 H       1  LIG1        0.0645
      9 C          -1.3155    2.1666    0.0001 C.1     1  LIG1       -0.0675
     10 C          -2.0348    3.1360    0.0006 C.1     1  LIG1       -0.1138
     11 H          -2.6419    4.0120    0.0011 H       1  LIG1        0.1232
     12 C          -2.2204   -0.8824    0.0008 C.ar    1  LIG1        0.0657
     13 C          -2.6396   -2.1939    0.0010 C.ar    1  LIG1       -0.0189
     14 C          -4.0618   -2.1909    0.0020 C.ar    1  LIG1        0.0520
     15 C          -4.4725   -0.8582    0.0023 C.ar    1  LIG1        0.0790
     16 N          -3.3452   -0.0929    0.0015 N.ar    1  LIG1       -0.3509
     17 H          -3.3150    0.9174    0.0015 H       1  LIG1        0.1660
     18 H          -2.0199   -3.0783    0.0006 H       1  LIG1        0.0652
     19 C          -4.9088   -3.3311    0.0025 C.1     1  LIG1       -0.0675
     20 C          -5.6341   -4.2957    0.0030 C.1     1  LIG1       -0.1138
     21 H          -6.2508   -5.1652    0.0032 H       1  LIG1        0.1232
     22 C          -5.7917   -0.2727    0.0032 C.ar    1  LIG1        0.0658
     23 C          -6.1963    1.0433    0.0035 C.ar    1  LIG1       -0.0189
     24 C          -7.6183    1.0549    0.0044 C.ar    1  LIG1        0.0520
     25 C          -8.0439   -0.2735    0.0047 C.ar    1  LIG1        0.0790
     26 N          -6.9260   -1.0505    0.0039 N.ar    1  LIG1       -0.3509
     27 H          -6.9092   -2.0609    0.0038 H       1  LIG1        0.1660
     28 H          -5.5630    1.9179    0.0031 H       1  LIG1        0.0652
     29 C          -8.4533    2.2037    0.0050 C.1     1  LIG1       -0.0675
     30 C          -9.1683    3.1761    0.0054 C.1     1  LIG1       -0.1138
     31 H          -9.7747    4.0524    0.0057 H       1  LIG1        0.1232
     32 C          -9.3698   -0.8483    0.0055 C.ar    1  LIG1        0.0653
     33 C          -9.7830   -2.1633    0.0059 C.ar    1  LIG1       -0.0195
     34 C         -11.2068   -2.1663    0.0067 C.ar    1  LIG1        0.0426
     35 C         -11.6101   -0.8444    0.0070 C.ar    1  LIG1        0.0177
     36 N         -10.4987   -0.0638    0.0062 N.ar    1  LIG1       -0.3584
     37 H         -10.4752    0.9460    0.0061 H       1  LIG1        0.1654
     38 H         -12.6030   -0.4233    0.0076 H       1  LIG1        0.0819
     39 H          -9.1540   -3.0412    0.0055 H       1  LIG1        0.0651
     40 C         -12.0601   -3.3043    0.0073 C.1     1  LIG1       -0.0682
     41 C         -12.7766   -4.2723    0.0078 C.1     1  LIG1       -0.1139
     42 H         -13.4129   -5.1265    0.0082 H       1  LIG1        0.1232
@<TRIPOS>BOND
     1     7     1    1
     2     8     2    1
     3     1     2   ar
     4     1     5   ar
     5     2     3   ar
     6     5     6    1
     7     5     4   ar
     8     3     4   ar
     9     3     9    1
    10     4    12    1
    11     9    10    3
    12    10    11    1
    13    18    13    1
    14    12    13   ar
    15    12    16   ar
    16    13    14   ar
    17    17    16    1
    18    16    15   ar
    19    14    15   ar
    20    14    19    1
    21    15    22    1
    22    19    20    3
    23    20    21    1
    24    28    23    1
    25    22    23   ar
    26    22    26   ar
    27    23    24   ar
    28    27    26    1
    29    26    25   ar
    30    24    25   ar
    31    24    29    1
    32    25    32    1
    33    29    30    3
    34    30    31    1
    35    32    33   ar
    36    32    36   ar
    37    39    33    1
    38    33    34   ar
    39    37    36    1
    40    36    35   ar
    41    34    35   ar
    42    34    40    1
    43    35    38    1
    44    40    41    3
    45    41    42    1
