@<TRIPOS>MOLECULE
mol_data/opt/cam/geoms/mol2/13ae13ae.out
 22 23 0 0 0
SMALL
GASTEIGER

@<TRIPOS>ATOM
      1 C           1.1984   -0.3179   -0.3628 C.ar    1  LIG1        0.0034
      2 C           0.8414    0.9768   -0.1173 C.ar    1  LIG1       -0.0283
      3 C          -0.5753    1.0064    0.0669 C.ar    1  LIG1        0.0513
      4 C          -1.0352   -0.2942   -0.0775 C.ar    1  LIG1        0.0785
      5 N           0.0597   -1.0850   -0.3242 N.ar    1  LIG1       -0.3585
      6 H           0.0032   -2.0445   -0.6241 H       1  LIG1        0.1654
      7 H           2.1629   -0.7596   -0.5590 H       1  LIG1        0.0807
      8 H           1.5027    1.8277   -0.0590 H       1  LIG1        0.0645
      9 C          -1.3676    2.1472    0.3671 C.1     1  LIG1       -0.0675
     10 C          -2.0282    3.1232    0.6165 C.1     1  LIG1       -0.1138
     11 H          -2.6148    3.9831    0.8428 H       1  LIG1        0.1232
     12 C          -2.3724   -0.8468    0.0098 C.ar    1  LIG1        0.0653
     13 C          -3.5909   -0.3272   -0.3504 C.ar    1  LIG1       -0.0195
     14 C          -4.5846   -1.3076   -0.0535 C.ar    1  LIG1        0.0426
     15 C          -3.9312   -2.3978    0.4814 C.ar    1  LIG1        0.0177
     16 N          -2.5960   -2.1184    0.5029 N.ar    1  LIG1       -0.3584
     17 H          -1.9053   -2.6688    0.9864 H       1  LIG1        0.1654
     18 H          -4.3240   -3.3356    0.8414 H       1  LIG1        0.0819
     19 H          -3.7563    0.6423   -0.7931 H       1  LIG1        0.0651
     20 C          -5.9860   -1.2012   -0.2759 C.1     1  LIG1       -0.0682
     21 C          -7.1711   -1.1054   -0.4663 C.1     1  LIG1       -0.1139
     22 H          -8.2194   -1.0195   -0.6343 H       1  LIG1        0.1232
@<TRIPOS>BOND
     1    19    13    1
     2    22    21    1
     3     6     5    1
     4     7     1    1
     5    21    20    3
     6     1     5   ar
     7     1     2   ar
     8    13    14   ar
     9    13    12   ar
    10     5     4   ar
    11    20    14    1
    12     2     8    1
    13     2     3   ar
    14     4    12    1
    15     4     3   ar
    16    14    15   ar
    17    12    16   ar
    18     3     9    1
    19     9    10    3
    20    15    16   ar
    21    15    18    1
    22    16    17    1
    23    10    11    1
