@<TRIPOS>MOLECULE
mol_data/opt/cam/geoms/mol2/13ae13ae13ae-13ae-.out
 42 45 0 0 0
SMALL
GASTEIGER

@<TRIPOS>ATOM
      1 C           1.2883   -0.0933   -0.3685 C.ar    1  LIG1        0.0034
      2 C           0.8915    1.1234    0.1074 C.ar    1  LIG1       -0.0283
      3 C          -0.5311    1.0951    0.2315 C.ar    1  LIG1        0.0513
      4 C          -0.9539   -0.1604   -0.1819 C.ar    1  LIG1        0.0785
      5 N           0.1683   -0.8711   -0.5295 N.ar    1  LIG1       -0.3585
      6 H           0.1490   -1.7558   -1.0101 H       1  LIG1        0.1654
      7 H           2.2700   -0.4732   -0.6047 H       1  LIG1        0.0807
      8 H           1.5298    1.9567    0.3580 H       1  LIG1        0.0645
      9 C          -1.3616    2.1434    0.7110 C.1     1  LIG1       -0.0675
     10 C          -2.0550    3.0423    1.1143 C.1     1  LIG1       -0.1138
     11 H          -2.6673    3.8348    1.4774 H       1  LIG1        0.1232
     12 C          -2.2791   -0.7368   -0.2590 C.ar    1  LIG1        0.0657
     13 C          -3.4986   -0.1639   -0.5144 C.ar    1  LIG1       -0.0189
     14 C          -4.4777   -1.1989   -0.4806 C.ar    1  LIG1        0.0520
     15 C          -3.8171   -2.3921   -0.2019 C.ar    1  LIG1        0.0790
     16 N          -2.4875   -2.0931   -0.0854 N.ar    1  LIG1       -0.3509
     17 H          -1.8058   -2.7276    0.2986 H       1  LIG1        0.1660
     18 H          -3.6743    0.8798   -0.7210 H       1  LIG1        0.0652
     19 C          -5.8716   -1.0514   -0.7122 C.1     1  LIG1       -0.0675
     20 C          -7.0575   -0.9341   -0.9051 C.1     1  LIG1       -0.1138
     21 H          -8.0956   -0.7923   -1.1006 H       1  LIG1        0.1232
     22 C          -4.3134   -3.7370   -0.0371 C.ar    1  LIG1        0.0658
     23 C          -3.6564   -4.9325    0.1518 C.ar    1  LIG1       -0.0189
     24 C          -4.6375   -5.9573    0.2526 C.ar    1  LIG1        0.0520
     25 C          -5.8814   -5.3494    0.1159 C.ar    1  LIG1        0.0790
     26 N          -5.6617   -4.0101   -0.0499 N.ar    1  LIG1       -0.3509
     27 H          -6.3567   -3.3219   -0.3058 H       1  LIG1        0.1660
     28 H          -2.5891   -5.0861    0.2150 H       1  LIG1        0.0652
     29 C          -4.3937   -7.3391    0.4727 C.1     1  LIG1       -0.0675
     30 C          -4.1723   -8.5091    0.6553 C.1     1  LIG1       -0.1138
     31 H          -3.9813   -9.5437    0.8228 H       1  LIG1        0.1232
     32 C          -7.2169   -5.9046    0.1526 C.ar    1  LIG1        0.0653
     33 C          -7.6872   -7.1539   -0.1731 C.ar    1  LIG1       -0.0195
     34 C          -9.0969   -7.1544    0.0416 C.ar    1  LIG1        0.0426
     35 C          -9.4383   -5.8969    0.4950 C.ar    1  LIG1        0.0177
     36 N          -8.3018   -5.1462    0.5481 N.ar    1  LIG1       -0.3584
     37 H          -8.2389   -4.2330    0.9680 H       1  LIG1        0.1654
     38 H         -10.3990   -5.4984    0.7804 H       1  LIG1        0.0819
     39 H          -7.0924   -7.9752   -0.5401 H       1  LIG1        0.0651
     40 C          -9.9960   -8.2353   -0.1771 C.1     1  LIG1       -0.0682
     41 C         -10.7522   -9.1536   -0.3636 C.1     1  LIG1       -0.1139
     42 H         -11.4207   -9.9665   -0.5282 H       1  LIG1        0.1232
@<TRIPOS>BOND
     1    21    20    1
     2     6     5    1
     3    20    19    3
     4    18    13    1
     5    19    14    1
     6     7     1    1
     7    39    33    1
     8     5     1   ar
     9     5     4   ar
    10    42    41    1
    11    13    14   ar
    12    13    12   ar
    13    14    15   ar
    14     1     2   ar
    15    41    40    3
    16    27    26    1
    17    12     4    1
    18    12    16   ar
    19    15    16   ar
    20    15    22    1
    21     4     3   ar
    22    40    34    1
    23    33    34   ar
    24    33    32   ar
    25    16    17    1
    26    26    22   ar
    27    26    25   ar
    28    22    23   ar
    29    34    35   ar
    30     2     3   ar
    31     2     8    1
    32    25    32    1
    33    25    24   ar
    34    23    28    1
    35    23    24   ar
    36    32    36   ar
    37     3     9    1
    38    24    29    1
    39    29    30    3
    40    35    36   ar
    41    35    38    1
    42    36    37    1
    43    30    31    1
    44     9    10    3
    45    10    11    1
