@<TRIPOS>MOLECULE
mol_data/opt/cam/geoms/mol2/13ae13ae13ae13ae-.out
 42 45 0 0 0
SMALL
GASTEIGER

@<TRIPOS>ATOM
      1 C           1.2545   -0.0994   -0.0241 C.ar    1  LIG1        0.0034
      2 C           0.8210    1.1572   -0.3358 C.ar    1  LIG1       -0.0283
      3 C          -0.6067    1.1443   -0.2945 C.ar    1  LIG1        0.0513
      4 C          -0.9955   -0.1433    0.0483 C.ar    1  LIG1        0.0785
      5 N           0.1501   -0.8858    0.1944 N.ar    1  LIG1       -0.3585
      6 H           0.1729   -1.8123    0.5873 H       1  LIG1        0.1654
      7 H           2.2518   -0.5022    0.0592 H       1  LIG1        0.0807
      8 H           1.4368    2.0088   -0.5814 H       1  LIG1        0.0645
      9 C          -1.4725    2.2353   -0.5747 C.1     1  LIG1       -0.0675
     10 C          -2.1955    3.1698   -0.8098 C.1     1  LIG1       -0.1138
     11 H          -2.8363    3.9935   -1.0238 H       1  LIG1        0.1232
     12 C          -2.3093   -0.7225    0.2260 C.ar    1  LIG1        0.0657
     13 C          -3.4917   -0.1677    0.6400 C.ar    1  LIG1       -0.0189
     14 C          -4.4839   -1.1927    0.6295 C.ar    1  LIG1        0.0520
     15 C          -3.8698   -2.3597    0.2024 C.ar    1  LIG1        0.0790
     16 N          -2.5399   -2.0693   -0.0122 N.ar    1  LIG1       -0.3509
     17 H          -1.9605   -2.6187   -0.6287 H       1  LIG1        0.1660
     18 H          -3.6347    0.8573    0.9437 H       1  LIG1        0.0652
     19 C          -5.8430   -1.0559    1.0205 C.1     1  LIG1       -0.0675
     20 C          -6.9946   -0.9268    1.3493 C.1     1  LIG1       -0.1138
     21 H          -8.0112   -0.8119    1.6466 H       1  LIG1        0.1232
     22 C          -4.3973   -3.6884   -0.0036 C.ar    1  LIG1        0.0658
     23 C          -5.6580   -4.1207   -0.3320 C.ar    1  LIG1       -0.0189
     24 C          -5.6169   -5.5416   -0.4234 C.ar    1  LIG1        0.0520
     25 C          -4.3137   -5.9427   -0.1451 C.ar    1  LIG1        0.0790
     26 N          -3.5895   -4.8071    0.0914 N.ar    1  LIG1       -0.3509
     27 H          -2.6689   -4.8087    0.4994 H       1  LIG1        0.1660
     28 H          -6.5155   -3.4906   -0.5058 H       1  LIG1        0.0652
     29 C          -6.7007   -6.3995   -0.7526 C.1     1  LIG1       -0.0675
     30 C          -7.6172   -7.1355   -1.0251 C.1     1  LIG1       -0.1138
     31 H          -8.4450   -7.7574   -1.2779 H       1  LIG1        0.1232
     32 C          -3.7110   -7.2539   -0.0776 C.ar    1  LIG1        0.0653
     33 C          -2.4006   -7.6373    0.1142 C.ar    1  LIG1       -0.0195
     34 C          -2.3622   -9.0606    0.1039 C.ar    1  LIG1        0.0426
     35 C          -3.6589   -9.4936   -0.0980 C.ar    1  LIG1        0.0177
     36 N          -4.4581   -8.4004   -0.2034 N.ar    1  LIG1       -0.3584
     37 H          -5.4550   -8.3990   -0.3679 H       1  LIG1        0.1654
     38 H          -4.0506  -10.4957   -0.1716 H       1  LIG1        0.0819
     39 H          -1.5444   -6.9904    0.2377 H       1  LIG1        0.0651
     40 C          -1.2153   -9.8860    0.2651 C.1     1  LIG1       -0.0682
     41 C          -0.2395  -10.5783    0.4026 C.1     1  LIG1       -0.1139
     42 H           0.6213  -11.1940    0.5237 H       1  LIG1        0.1232
@<TRIPOS>BOND
     1    31    30    1
     2    30    29    3
     3    11    10    1
     4    10     9    3
     5    29    24    1
     6    17    16    1
     7     8     2    1
     8     9     3    1
     9    28    23    1
    10    24    23   ar
    11    24    25   ar
    12    37    36    1
    13     2     3   ar
    14     2     1   ar
    15    23    22   ar
    16     3     4   ar
    17    36    35   ar
    18    36    32   ar
    19    38    35    1
    20    25    32    1
    21    25    26   ar
    22    35    34   ar
    23    32    33   ar
    24     1     7    1
    25     1     5   ar
    26    16    15   ar
    27    16    12   ar
    28    22    26   ar
    29    22    15    1
    30     4     5   ar
    31     4    12    1
    32    26    27    1
    33    34    33   ar
    34    34    40    1
    35    33    39    1
    36     5     6    1
    37    15    14   ar
    38    12    13   ar
    39    40    41    3
    40    41    42    1
    41    14    13   ar
    42    14    19    1
    43    13    18    1
    44    19    20    3
    45    20    21    1
