@<TRIPOS>MOLECULE
mol_data/opt/cam/geoms/mol2/13ae13ae13ae.out
 32 34 0 0 0
SMALL
GASTEIGER

@<TRIPOS>ATOM
      1 C           1.2584   -0.1961    0.1312 C.ar    1  LIG1        0.0034
      2 C           0.8530    1.0371   -0.2915 C.ar    1  LIG1       -0.0283
      3 C          -0.5750    1.0336   -0.3281 C.ar    1  LIG1        0.0513
      4 C          -0.9929   -0.2245    0.0828 C.ar    1  LIG1        0.0785
      5 N           0.1369   -0.9600    0.3434 N.ar    1  LIG1       -0.3585
      6 H           0.1293   -1.8564    0.8012 H       1  LIG1        0.1654
      7 H           2.2464   -0.5964    0.2971 H       1  LIG1        0.0807
      8 H           1.4883    1.8665   -0.5623 H       1  LIG1        0.0645
      9 C          -1.4149    2.1060   -0.7319 C.1     1  LIG1       -0.0675
     10 C          -2.1159    3.0248   -1.0722 C.1     1  LIG1       -0.1138
     11 H          -2.7375    3.8338   -1.3787 H       1  LIG1        0.1232
     12 C          -2.3187   -0.7853    0.2285 C.ar    1  LIG1        0.0657
     13 C          -3.5174   -0.2003    0.5409 C.ar    1  LIG1       -0.0189
     14 C          -4.5148   -1.2210    0.5462 C.ar    1  LIG1        0.0520
     15 C          -3.8874   -2.4155    0.2312 C.ar    1  LIG1        0.0790
     16 N          -2.5460   -2.1446    0.0694 N.ar    1  LIG1       -0.3509
     17 H          -1.9404   -2.7359   -0.4795 H       1  LIG1        0.1660
     18 H          -3.6696    0.8432    0.7675 H       1  LIG1        0.0652
     19 C          -5.8920   -1.0537    0.8543 C.1     1  LIG1       -0.0675
     20 C          -7.0582   -0.8984    1.1121 C.1     1  LIG1       -0.1138
     21 H          -8.0889   -0.7630    1.3447 H       1  LIG1        0.1232
     22 C          -4.4126   -3.7553    0.0832 C.ar    1  LIG1        0.0653
     23 C          -5.6443   -4.2046   -0.3272 C.ar    1  LIG1       -0.0195
     24 C          -5.6157   -5.6305   -0.2999 C.ar    1  LIG1        0.0426
     25 C          -4.3592   -6.0031    0.1297 C.ar    1  LIG1        0.0177
     26 N          -3.6347   -4.8674    0.3443 N.ar    1  LIG1       -0.3584
     27 H          -2.7413   -4.8377    0.8069 H       1  LIG1        0.1654
     28 H          -3.9437   -6.9848    0.2939 H       1  LIG1        0.0819
     29 H          -6.4721   -3.5837   -0.6307 H       1  LIG1        0.0651
     30 C          -6.6711   -6.5150   -0.6587 C.1     1  LIG1       -0.0682
     31 C          -7.5678   -7.2585   -0.9633 C.1     1  LIG1       -0.1139
     32 H          -8.3621   -7.9153   -1.2324 H       1  LIG1        0.1232
@<TRIPOS>BOND
     1    11    10    1
     2    32    31    1
     3    10     9    3
     4    31    30    3
     5     9     3    1
     6    30    24    1
     7    29    23    1
     8     8     2    1
     9    17    16    1
    10     3     2   ar
    11     3     4   ar
    12    23    24   ar
    13    23    22   ar
    14    24    25   ar
    15     2     1   ar
    16    16    12   ar
    17    16    15   ar
    18     4    12    1
    19     4     5   ar
    20    22    15    1
    21    22    26   ar
    22    25    28    1
    23    25    26   ar
    24     1     7    1
    25     1     5   ar
    26    12    13   ar
    27    15    14   ar
    28     5     6    1
    29    26    27    1
    30    13    14   ar
    31    13    18    1
    32    14    19    1
    33    19    20    3
    34    20    21    1
