@<TRIPOS>MOLECULE
mol_data/opt/cam/geoms/mol2/13ae13ae-4ae13ae.out
 44 47 0 0 0
SMALL
GASTEIGER

@<TRIPOS>ATOM
      1 C           1.3157   -0.1784   -0.1875 C.ar    1  LIG1        0.0034
      2 C           0.8534    1.1012   -0.3016 C.ar    1  LIG1       -0.0283
      3 C          -0.5714    1.0474   -0.2238 C.ar    1  LIG1        0.0513
      4 C          -0.9273   -0.2887   -0.0623 C.ar    1  LIG1        0.0785
      5 N           0.2333   -1.0091   -0.0439 N.ar    1  LIG1       -0.3585
      6 H           0.2779   -2.0097    0.0542 H       1  LIG1        0.1654
      7 H           2.3212   -0.5689   -0.1963 H       1  LIG1        0.0807
      8 H           1.4467    1.9937   -0.4271 H       1  LIG1        0.0645
      9 C          -1.4663    2.1481   -0.2985 C.1     1  LIG1       -0.0675
     10 C          -2.2326    3.0784   -0.3652 C.1     1  LIG1       -0.1138
     11 H          -2.8823    3.9208   -0.4285 H       1  LIG1        0.1232
     12 C          -2.2217   -0.9182    0.0700 C.ar    1  LIG1        0.0657
     13 C          -2.5769   -2.2359    0.2584 C.ar    1  LIG1       -0.0189
     14 C          -3.9961   -2.2988    0.3038 C.ar    1  LIG1        0.0505
     15 C          -4.4749   -0.9993    0.1434 C.ar    1  LIG1        0.0626
     16 N          -3.3821   -0.1902    0.0094 N.ar    1  LIG1       -0.3520
     17 H          -3.4036    0.8002   -0.1904 H       1  LIG1        0.1660
     18 H          -1.9151   -3.0825    0.3672 H       1  LIG1        0.0652
     19 C          -4.7577   -3.4796    0.5181 C.1     1  LIG1       -0.0675
     20 C          -5.3783   -4.4966    0.6987 C.1     1  LIG1       -0.1138
     21 H          -5.9303   -5.3921    0.8667 H       1  LIG1        0.1232
     22 C          -6.0706    0.8814    0.4954 C.ar    1  LIG1       -0.0519
     23 C          -7.3477    1.4036    0.4721 C.ar    1  LIG1       -0.0508
     24 C          -5.8289   -0.4504    0.1313 C.ar    1  LIG1        0.0007
     25 C          -8.4590    0.6441    0.0830 C.ar    1  LIG1        0.0137
     26 H          -7.5020    2.4273    0.7915 H       1  LIG1        0.0625
     27 C          -6.9228   -1.2242   -0.2450 C.ar    1  LIG1       -0.0365
     28 C          -8.2202   -0.7024   -0.2727 C.ar    1  LIG1        0.0344
     29 H          -6.7767   -2.2574   -0.5326 H       1  LIG1        0.0636
     30 H          -5.2541    1.5087    0.8397 H       1  LIG1        0.0624
     31 C          -9.2564   -1.5994   -0.6987 C.1     1  LIG1       -0.0690
     32 C         -10.0887   -2.3957   -1.0548 C.1     1  LIG1       -0.1139
     33 H         -10.8114   -3.1028   -1.3927 H       1  LIG1        0.1232
     34 C          -9.7711    1.2924    0.0737 C.ar    1  LIG1        0.0488
     35 C         -10.0785    2.6382    0.1066 C.ar    1  LIG1       -0.0210
     36 C         -11.4936    2.7669    0.1057 C.ar    1  LIG1        0.0425
     37 C         -12.0083    1.4841    0.0710 C.ar    1  LIG1        0.0176
     38 N         -10.9688    0.6136    0.0525 N.ar    1  LIG1       -0.3595
     39 H         -11.0424   -0.3905   -0.0090 H       1  LIG1        0.1654
     40 H         -13.0333    1.1485    0.0565 H       1  LIG1        0.0819
     41 H          -9.3782    3.4590    0.1100 H       1  LIG1        0.0651
     42 C         -12.2460    3.9739    0.1291 C.1     1  LIG1       -0.0682
     43 C         -12.8772    4.9994    0.1494 C.1     1  LIG1       -0.1139
     44 H         -13.4364    5.9058    0.1668 H       1  LIG1        0.1232
@<TRIPOS>BOND
     1    33    32    1
     2    32    31    3
     3    31    28    1
     4    29    27    1
     5    11    10    1
     6     8     2    1
     7    10     9    3
     8     2     3   ar
     9     2     1   ar
    10     9     3    1
    11    28    27   ar
    12    28    25   ar
    13    27    24   ar
    14     3     4   ar
    15     7     1    1
    16    17    16    1
    17     1     5   ar
    18     4     5   ar
    19     4    12    1
    20     5     6    1
    21    39    38    1
    22    16    12   ar
    23    16    15   ar
    24    38    37   ar
    25    38    34   ar
    26    40    37    1
    27    12    13   ar
    28    37    36   ar
    29    34    25    1
    30    34    35   ar
    31    25    23   ar
    32    36    35   ar
    33    36    42    1
    34    35    41    1
    35    42    43    3
    36    24    15    1
    37    24    22   ar
    38    15    14   ar
    39    43    44    1
    40    13    14   ar
    41    13    18    1
    42    14    19    1
    43    23    22   ar
    44    23    26    1
    45    22    30    1
    46    19    20    3
    47    20    21    1
