@<TRIPOS>MOLECULE
mol_data/opt/cam/geoms/mol2/13ae13ae-13ae-13ae.out
 42 45 0 0 0
SMALL
GASTEIGER

@<TRIPOS>ATOM
      1 C           1.3211   -0.3105   -0.0068 C.ar    1  LIG1        0.0034
      2 C           0.9063    0.9524   -0.3177 C.ar    1  LIG1       -0.0283
      3 C          -0.5217    0.9395   -0.3335 C.ar    1  LIG1        0.0513
      4 C          -0.9277   -0.3563   -0.0251 C.ar    1  LIG1        0.0785
      5 N           0.2067   -1.0922    0.1674 N.ar    1  LIG1       -0.3585
      6 H           0.2146   -2.0705    0.4033 H       1  LIG1        0.1654
      7 H           2.3126   -0.7200    0.1053 H       1  LIG1        0.0807
      8 H           1.5335    1.8075   -0.5171 H       1  LIG1        0.0645
      9 C          -1.3748    2.0393   -0.6183 C.1     1  LIG1       -0.0675
     10 C          -2.1054    2.9688   -0.8634 C.1     1  LIG1       -0.1138
     11 H          -2.7149    3.8120   -1.0961 H       1  LIG1        0.1232
     12 C          -2.2475   -0.9317    0.0972 C.ar    1  LIG1        0.0657
     13 C          -2.6636   -2.2089    0.4003 C.ar    1  LIG1       -0.0189
     14 C          -4.0859   -2.2200    0.3778 C.ar    1  LIG1        0.0520
     15 C          -4.5011   -0.9316    0.0558 C.ar    1  LIG1        0.0790
     16 N          -3.3753   -0.1718   -0.1034 N.ar    1  LIG1       -0.3509
     17 H          -3.3412    0.7765   -0.4522 H       1  LIG1        0.1660
     18 H          -2.0404   -3.0607    0.6297 H       1  LIG1        0.0652
     19 C          -4.9258   -3.3308    0.6561 C.1     1  LIG1       -0.0675
     20 C          -5.6277   -4.2818    0.8897 C.1     1  LIG1       -0.1138
     21 H          -6.2489   -5.1205    1.1031 H       1  LIG1        0.1232
     22 C          -5.8239   -0.3677   -0.0831 C.ar    1  LIG1        0.0658
     23 C          -7.0262   -0.9449   -0.4083 C.ar    1  LIG1       -0.0189
     24 C          -8.0102    0.0846   -0.4171 C.ar    1  LIG1        0.0520
     25 C          -7.3715    1.2782   -0.0923 C.ar    1  LIG1        0.0790
     26 N          -6.0503    0.9843    0.0950 N.ar    1  LIG1       -0.3509
     27 H          -5.3854    1.6284    0.4925 H       1  LIG1        0.1660
     28 H          -7.1856   -1.9874   -0.6325 H       1  LIG1        0.0652
     29 C          -9.3910   -0.0684   -0.7149 C.1     1  LIG1       -0.0675
     30 C         -10.5660   -0.1903   -0.9614 C.1     1  LIG1       -0.1138
     31 H         -11.5972   -0.3303   -1.1913 H       1  LIG1        0.1232
     32 C          -7.8778    2.6231    0.0570 C.ar    1  LIG1        0.0653
     33 C          -7.2260    3.8113    0.3100 C.ar    1  LIG1       -0.0195
     34 C          -8.2099    4.8392    0.3632 C.ar    1  LIG1        0.0426
     35 C          -9.4319    4.2349    0.1369 C.ar    1  LIG1        0.0177
     36 N          -9.2190    2.9057   -0.0437 N.ar    1  LIG1       -0.3584
     37 H          -9.9212    2.2061   -0.2396 H       1  LIG1        0.1654
     38 H         -10.4198    4.6654    0.0945 H       1  LIG1        0.0819
     39 H          -6.1632    3.9561    0.4379 H       1  LIG1        0.0651
     40 C          -7.9876    6.2240    0.5993 C.1     1  LIG1       -0.0682
     41 C          -7.7911    7.3952    0.7997 C.1     1  LIG1       -0.1139
     42 H          -7.6204    8.4315    0.9775 H       1  LIG1        0.1232
@<TRIPOS>BOND
     1    31    30    1
     2    11    10    1
     3    30    29    3
     4    10     9    3
     5    29    24    1
     6    28    23    1
     7     9     3    1
     8     8     2    1
     9    17    16    1
    10    24    23   ar
    11    24    25   ar
    12    23    22   ar
    13     3     2   ar
    14     3     4   ar
    15     2     1   ar
    16    37    36    1
    17    16    15   ar
    18    16    12   ar
    19    25    32    1
    20    25    26   ar
    21    22    15    1
    22    22    26   ar
    23    36    32   ar
    24    36    35   ar
    25     4    12    1
    26     4     5   ar
    27     1     7    1
    28     1     5   ar
    29    15    14   ar
    30    32    33   ar
    31    38    35    1
    32    26    27    1
    33    12    13   ar
    34    35    34   ar
    35     5     6    1
    36    33    34   ar
    37    33    39    1
    38    34    40    1
    39    14    13   ar
    40    14    19    1
    41    13    18    1
    42    40    41    3
    43    19    20    3
    44    41    42    1
    45    20    21    1
