@<TRIPOS>MOLECULE
mol_data/opt/cam/geoms/mol2/13ae13ae-13ae.out
 32 34 0 0 0
SMALL
GASTEIGER

@<TRIPOS>ATOM
      1 C           1.2857   -0.2957   -0.0010 C.ar    1  LIG1        0.0034
      2 C           0.8784    1.0073   -0.0005 C.ar    1  LIG1       -0.0283
      3 C          -0.5497    1.0072    0.0003 C.ar    1  LIG1        0.0513
      4 C          -0.9637   -0.3218    0.0002 C.ar    1  LIG1        0.0785
      5 N           0.1666   -1.0897   -0.0006 N.ar    1  LIG1       -0.3585
      6 H           0.1687   -2.0960   -0.0008 H       1  LIG1        0.1654
      7 H           2.2747   -0.7261   -0.0015 H       1  LIG1        0.0807
      8 H           1.5105    1.8818   -0.0006 H       1  LIG1        0.0645
      9 C          -1.3960    2.1482    0.0009 C.1     1  LIG1       -0.0675
     10 C          -2.1208    3.1134    0.0015 C.1     1  LIG1       -0.1138
     11 H          -2.7350    3.9845    0.0021 H       1  LIG1        0.1232
     12 C          -2.2861   -0.9053    0.0007 C.ar    1  LIG1        0.0657
     13 C          -2.6992   -2.2183    0.0006 C.ar    1  LIG1       -0.0189
     14 C          -4.1220   -2.2215    0.0013 C.ar    1  LIG1        0.0520
     15 C          -4.5387   -0.8909    0.0019 C.ar    1  LIG1        0.0790
     16 N          -3.4153   -0.1213    0.0015 N.ar    1  LIG1       -0.3509
     17 H          -3.3907    0.8892    0.0017 H       1  LIG1        0.1660
     18 H          -2.0755   -3.1000    0.0001 H       1  LIG1        0.0652
     19 C          -4.9635   -3.3655    0.0015 C.1     1  LIG1       -0.0675
     20 C          -5.6838   -4.3339    0.0016 C.1     1  LIG1       -0.1138
     21 H          -6.2953   -5.2067    0.0019 H       1  LIG1        0.1232
     22 C          -5.8606   -0.3067    0.0027 C.ar    1  LIG1        0.0653
     23 C          -6.2641    1.0111    0.0033 C.ar    1  LIG1       -0.0195
     24 C          -7.6879    1.0244    0.0041 C.ar    1  LIG1        0.0426
     25 C          -8.1008   -0.2944    0.0039 C.ar    1  LIG1        0.0177
     26 N          -6.9951   -1.0832    0.0031 N.ar    1  LIG1       -0.3584
     27 H          -6.9790   -2.0931    0.0028 H       1  LIG1        0.1654
     28 H          -9.0967   -0.7082    0.0042 H       1  LIG1        0.0819
     29 H          -5.6282    1.8842    0.0033 H       1  LIG1        0.0651
     30 C          -8.5330    2.1685    0.0048 C.1     1  LIG1       -0.0682
     31 C          -9.2430    3.1413    0.0055 C.1     1  LIG1       -0.1139
     32 H          -9.8726    4.0005    0.0058 H       1  LIG1        0.1232
@<TRIPOS>BOND
     1     7     1    1
     2     1     5   ar
     3     1     2   ar
     4     6     5    1
     5     8     2    1
     6     5     4   ar
     7     2     3   ar
     8    18    13    1
     9     4     3   ar
    10     4    12    1
    11     3     9    1
    12    13    12   ar
    13    13    14   ar
    14    12    16   ar
    15     9    10    3
    16    14    19    1
    17    14    15   ar
    18    19    20    3
    19    10    11    1
    20    16    17    1
    21    16    15   ar
    22    20    21    1
    23    15    22    1
    24    22    26   ar
    25    22    23   ar
    26    27    26    1
    27    26    25   ar
    28    29    23    1
    29    23    24   ar
    30    25    24   ar
    31    25    28    1
    32    24    30    1
    33    30    31    3
    34    31    32    1
