@<TRIPOS>MOLECULE
mol_data/opt/cam/geoms/mol2/13af13af-13af-13af-.out
 38 41 0 0 0
SMALL
GASTEIGER

@<TRIPOS>ATOM
      1 C           1.3106   -0.3346    0.1333 C.ar    1  LIG1        0.0058
      2 C           0.8741    0.9362   -0.1578 C.ar    1  LIG1       -0.0021
      3 C          -0.5387    0.8731   -0.2031 C.ar    1  LIG1        0.1434
      4 C          -0.9368   -0.4218    0.0590 C.ar    1  LIG1        0.1050
      5 N           0.2196   -1.1421    0.2656 N.ar    1  LIG1       -0.3566
      6 H           0.2455   -2.1224    0.4877 H       1  LIG1        0.1655
      7 H           2.3111   -0.7175    0.2591 H       1  LIG1        0.0808
      8 H           1.4947    1.8067   -0.3147 H       1  LIG1        0.0669
      9 O          -1.4357    1.8858   -0.4416 O.3     1  LIG1       -0.5046
     10 H          -0.9727    2.6276   -0.8449 H       1  LIG1        0.2922
     11 C          -2.2637   -0.9845    0.1121 C.ar    1  LIG1        0.0705
     12 C          -2.7157   -2.2801    0.3024 C.ar    1  LIG1        0.0074
     13 C          -4.1265   -2.2389    0.2156 C.ar    1  LIG1        0.1441
     14 C          -4.5178   -0.9355   -0.0197 C.ar    1  LIG1        0.1055
     15 N          -3.3571   -0.1866   -0.0705 N.ar    1  LIG1       -0.3488
     16 H          -3.2794    0.7766   -0.3612 H       1  LIG1        0.1661
     17 H          -2.1091   -3.1577    0.4801 H       1  LIG1        0.0676
     18 O          -5.0092   -3.2714    0.3364 O.3     1  LIG1       -0.5046
     19 H          -4.5345   -4.0506    0.6440 H       1  LIG1        0.2922
     20 C          -5.8311   -0.3580   -0.1489 C.ar    1  LIG1        0.0705
     21 C          -7.0419   -0.9450   -0.4448 C.ar    1  LIG1        0.0074
     22 C          -8.0218    0.0800   -0.4049 C.ar    1  LIG1        0.1441
     23 C          -7.4066    1.2713   -0.0990 C.ar    1  LIG1        0.1054
     24 N          -6.0462    0.9932    0.0256 N.ar    1  LIG1       -0.3488
     25 H          -5.4479    1.5544    0.6125 H       1  LIG1        0.1661
     26 H          -7.1879   -1.9888   -0.6811 H       1  LIG1        0.0676
     27 O          -9.3578   -0.0340   -0.6483 O.3     1  LIG1       -0.5046
     28 H          -9.5424   -0.9396   -0.9191 H       1  LIG1        0.2922
     29 C          -7.9366    2.6064    0.0384 C.ar    1  LIG1        0.0701
     30 C          -9.2096    3.0433    0.3439 C.ar    1  LIG1        0.0067
     31 C          -9.1741    4.4623    0.3363 C.ar    1  LIG1        0.1347
     32 C          -7.8996    4.8641    0.0350 C.ar    1  LIG1        0.0442
     33 N          -7.1441    3.7156   -0.1214 N.ar    1  LIG1       -0.3564
     34 H          -6.2378    3.6908   -0.5572 H       1  LIG1        0.1655
     35 H          -7.4773    5.8507   -0.0576 H       1  LIG1        0.0844
     36 H         -10.0525    2.4042    0.5627 H       1  LIG1        0.0676
     37 O         -10.2020    5.3202    0.6018 O.3     1  LIG1       -0.5053
     38 H         -10.9990    4.7990    0.7434 H       1  LIG1        0.2922
@<TRIPOS>BOND
     1    28    27    1
     2    10     9    1
     3    26    21    1
     4    27    22    1
     5    34    33    1
     6    21    22   ar
     7    21    20   ar
     8     9     3    1
     9    22    23   ar
    10    16    15    1
    11     8     2    1
    12     3     2   ar
    13     3     4   ar
    14     2     1   ar
    15    20    14    1
    16    20    24   ar
    17    33    32   ar
    18    33    29   ar
    19    23    24   ar
    20    23    29    1
    21    15    14   ar
    22    15    11   ar
    23    35    32    1
    24    14    13   ar
    25    24    25    1
    26    32    31   ar
    27    29    30   ar
    28     4    11    1
    29     4     5   ar
    30    11    12   ar
    31     1     7    1
    32     1     5   ar
    33    13    12   ar
    34    13    18    1
    35     5     6    1
    36    12    17    1
    37    31    30   ar
    38    31    37    1
    39    18    19    1
    40    30    36    1
    41    37    38    1
