@<TRIPOS>MOLECULE
mol_data/opt/cam/geoms/mol2/13af13af.out
 20 21 0 0 0
SMALL
GASTEIGER

@<TRIPOS>ATOM
      1 C           1.2188   -0.2349   -0.2745 C.ar    1  LIG1        0.0058
      2 C           0.7900    0.9999    0.1449 C.ar    1  LIG1       -0.0021
      3 C          -0.6204    0.9244    0.2573 C.ar    1  LIG1        0.1434
      4 C          -1.0190   -0.3481   -0.0933 C.ar    1  LIG1        0.1050
      5 N           0.1345   -1.0568   -0.3936 N.ar    1  LIG1       -0.3566
      6 H           0.1371   -1.9512   -0.8546 H       1  LIG1        0.1655
      7 H           2.2139   -0.5886   -0.4969 H       1  LIG1        0.0808
      8 H           1.4027    1.8611    0.3625 H       1  LIG1        0.0669
      9 O          -1.4135    1.9434    0.6785 O.3     1  LIG1       -0.5046
     10 H          -2.3138    1.6005    0.7697 H       1  LIG1        0.2922
     11 C          -2.3508   -0.9169   -0.0907 C.ar    1  LIG1        0.0700
     12 C          -3.5498   -0.3626   -0.4950 C.ar    1  LIG1        0.0067
     13 C          -4.5659   -1.3089   -0.2015 C.ar    1  LIG1        0.1347
     14 C          -3.9779   -2.4114    0.3639 C.ar    1  LIG1        0.0442
     15 N          -2.6177   -2.1642    0.4113 N.ar    1  LIG1       -0.3564
     16 H          -1.9577   -2.6998    0.9499 H       1  LIG1        0.1655
     17 H          -4.3991   -3.3439    0.7062 H       1  LIG1        0.0844
     18 H          -3.6810    0.5737   -1.0170 H       1  LIG1        0.0676
     19 O          -5.8787   -1.0939   -0.4927 O.3     1  LIG1       -0.5053
     20 H          -6.3912   -1.8645   -0.2249 H       1  LIG1        0.2922
@<TRIPOS>BOND
     1    18    12    1
     2     6     5    1
     3     7     1    1
     4    12    13   ar
     5    12    11   ar
     6    19    20    1
     7    19    13    1
     8     5     1   ar
     9     5     4   ar
    10     1     2   ar
    11    13    14   ar
    12     4    11    1
    13     4     3   ar
    14    11    15   ar
    15     2     3   ar
    16     2     8    1
    17     3     9    1
    18    14    15   ar
    19    14    17    1
    20    15    16    1
    21     9    10    1
