@<TRIPOS>MOLECULE
mol_data/opt/cam/geoms/mol2/13af13af-13af.out
 29 31 0 0 0
SMALL
GASTEIGER

@<TRIPOS>ATOM
      1 C           1.2497   -0.2894   -0.0061 C.ar    1  LIG1        0.0058
      2 C           0.8044    1.0118   -0.0068 C.ar    1  LIG1       -0.0021
      3 C          -0.6093    0.9515   -0.0047 C.ar    1  LIG1        0.1434
      4 C          -0.9996   -0.3718   -0.0026 C.ar    1  LIG1        0.1050
      5 N           0.1629   -1.1128   -0.0035 N.ar    1  LIG1       -0.3566
      6 H           0.1950   -2.1177   -0.0025 H       1  LIG1        0.1655
      7 H           2.2536   -0.6839   -0.0071 H       1  LIG1        0.0808
      8 H           1.4204    1.8997   -0.0087 H       1  LIG1        0.0669
      9 O          -1.5146    1.9810   -0.0044 O.3     1  LIG1       -0.5046
     10 H          -1.0444    2.8208   -0.0061 H       1  LIG1        0.2922
     11 C          -2.3242   -0.9432   -0.0001 C.ar    1  LIG1        0.0705
     12 C          -2.7629   -2.2586    0.0020 C.ar    1  LIG1        0.0074
     13 C          -4.1742   -2.2104    0.0040 C.ar    1  LIG1        0.1441
     14 C          -4.5790   -0.8912    0.0032 C.ar    1  LIG1        0.1054
     15 N          -3.4270   -0.1380    0.0007 N.ar    1  LIG1       -0.3488
     16 H          -3.3730    0.8695   -0.0005 H       1  LIG1        0.1661
     17 H          -2.1469   -3.1475    0.0019 H       1  LIG1        0.0676
     18 O          -5.0660   -3.2540    0.0063 O.3     1  LIG1       -0.5046
     19 H          -4.5802   -4.0847    0.0084 H       1  LIG1        0.2922
     20 C          -5.9083   -0.3291    0.0046 C.ar    1  LIG1        0.0701
     21 C          -6.3504    0.9817    0.0040 C.ar    1  LIG1        0.0067
     22 C          -7.7645    0.9356    0.0063 C.ar    1  LIG1        0.1347
     23 C          -8.1561   -0.3818    0.0081 C.ar    1  LIG1        0.0442
     24 N          -7.0064   -1.1416    0.0071 N.ar    1  LIG1       -0.3564
     25 H          -6.9447   -2.1474    0.0081 H       1  LIG1        0.1655
     26 H          -9.1369   -0.8312    0.0100 H       1  LIG1        0.0844
     27 H          -5.7474    1.8774    0.0022 H       1  LIG1        0.0676
     28 O          -8.5435    2.0573    0.0063 O.3     1  LIG1       -0.5053
     29 H          -9.4690    1.7905    0.0084 H       1  LIG1        0.2922
@<TRIPOS>BOND
     1     8     2    1
     2     7     1    1
     3     2     1   ar
     4     2     3   ar
     5    10     9    1
     6     1     5   ar
     7     3     9    1
     8     3     4   ar
     9     5     4   ar
    10     5     6    1
    11     4    11    1
    12    16    15    1
    13    11    15   ar
    14    11    12   ar
    15    15    14   ar
    16    17    12    1
    17    12    13   ar
    18    27    21    1
    19    14    13   ar
    20    14    20    1
    21    13    18    1
    22    21    20   ar
    23    21    22   ar
    24    20    24   ar
    25    22    28    1
    26    22    23   ar
    27    18    19    1
    28    28    29    1
    29    24    25    1
    30    24    23   ar
    31    23    26    1
