@<TRIPOS>MOLECULE
mol_data/opt/cam/geoms/mol2/13af13af13af13af.out
 38 41 0 0 0
SMALL
GASTEIGER

@<TRIPOS>ATOM
      1 C           0.9185    0.7105   -1.2570 C.ar    1  LIG1        0.0058
      2 C           0.8354    1.3457   -0.0433 C.ar    1  LIG1       -0.0021
      3 C          -0.3870    0.9382    0.5463 C.ar    1  LIG1        0.1434
      4 C          -1.0186    0.0666   -0.3153 C.ar    1  LIG1        0.1050
      5 N          -0.1823   -0.0834   -1.4126 N.ar    1  LIG1       -0.3566
      6 H          -0.4727   -0.4927   -2.2851 H       1  LIG1        0.1655
      7 H           1.6785    0.7653   -2.0212 H       1  LIG1        0.0808
      8 H           1.5619    2.0149    0.3912 H       1  LIG1        0.0669
      9 O          -0.8140    1.3294    1.7744 O.3     1  LIG1       -0.5046
     10 H          -1.6223    0.8390    1.9795 H       1  LIG1        0.2922
     11 C          -2.2648   -0.6474   -0.1323 C.ar    1  LIG1        0.0705
     12 C          -3.4703   -0.2032    0.3837 C.ar    1  LIG1        0.0074
     13 C          -4.3519   -1.3096    0.3917 C.ar    1  LIG1        0.1441
     14 C          -3.6865   -2.4057   -0.1172 C.ar    1  LIG1        0.1055
     15 N          -2.4022   -1.9788   -0.4231 N.ar    1  LIG1       -0.3488
     16 H          -1.6742   -2.5584   -0.8062 H       1  LIG1        0.1661
     17 H          -3.7123    0.8129    0.6577 H       1  LIG1        0.0676
     18 O          -5.6323   -1.2652    0.8375 O.3     1  LIG1       -0.5046
     19 H          -5.9912   -2.1634    0.8067 H       1  LIG1        0.2922
     20 C          -4.1698   -3.7601   -0.2851 C.ar    1  LIG1        0.0705
     21 C          -5.3881   -4.2067   -0.7681 C.ar    1  LIG1        0.0074
     22 C          -5.3822   -5.6180   -0.6722 C.ar    1  LIG1        0.1441
     23 C          -4.1726   -6.0165   -0.1422 C.ar    1  LIG1        0.1054
     24 N          -3.4458   -4.8600    0.0954 N.ar    1  LIG1       -0.3488
     25 H          -2.5321   -4.8319    0.5162 H       1  LIG1        0.1661
     26 H          -6.1645   -3.5955   -1.2040 H       1  LIG1        0.0676
     27 O          -6.4126   -6.4161   -1.0476 O.3     1  LIG1       -0.5046
     28 H          -6.1903   -7.3258   -0.8033 H       1  LIG1        0.2922
     29 C          -3.7131   -7.3573    0.1570 C.ar    1  LIG1        0.0701
     30 C          -3.8426   -8.5170   -0.5821 C.ar    1  LIG1        0.0067
     31 C          -3.2988   -9.5712    0.1965 C.ar    1  LIG1        0.1347
     32 C          -2.8483   -9.0433    1.3797 C.ar    1  LIG1        0.0442
     33 N          -3.0935   -7.6833    1.3366 N.ar    1  LIG1       -0.3564
     34 H          -3.0606   -7.0753    2.1380 H       1  LIG1        0.1655
     35 H          -2.3607   -9.5064    2.2234 H       1  LIG1        0.0844
     36 H          -4.2063   -8.5944   -1.5961 H       1  LIG1        0.0676
     37 O          -3.2440  -10.8578   -0.2434 O.3     1  LIG1       -0.5053
     38 H          -2.8297  -11.4064    0.4317 H       1  LIG1        0.2922
@<TRIPOS>BOND
     1     6     5    1
     2     7     1    1
     3    36    30    1
     4     5     1   ar
     5     5     4   ar
     6     1     2   ar
     7    26    21    1
     8    27    28    1
     9    27    22    1
    10    16    15    1
    11    21    22   ar
    12    21    20   ar
    13    22    23   ar
    14    30    29   ar
    15    30    31   ar
    16    15    11   ar
    17    15    14   ar
    18     4    11    1
    19     4     3   ar
    20    20    14    1
    21    20    24   ar
    22    37    31    1
    23    37    38    1
    24    23    24   ar
    25    23    29    1
    26    11    12   ar
    27    14    13   ar
    28     2     8    1
    29     2     3   ar
    30    24    25    1
    31    29    33   ar
    32    31    32   ar
    33    12    13   ar
    34    12    17    1
    35    13    18    1
    36     3     9    1
    37    19    18    1
    38    33    32   ar
    39    33    34    1
    40    32    35    1
    41     9    10    1
