@<TRIPOS>MOLECULE
mol_data/opt/cam/geoms/mol2/13af13af-4af13af.out
 40 43 0 0 0
SMALL
GASTEIGER

@<TRIPOS>ATOM
      1 C           1.3307   -0.2161   -0.0497 C.ar    1  LIG1        0.0058
      2 C           0.8452    1.0679   -0.1346 C.ar    1  LIG1       -0.0021
      3 C          -0.5655    0.9648   -0.1069 C.ar    1  LIG1        0.1434
      4 C          -0.9137   -0.3667   -0.0067 C.ar    1  LIG1        0.1050
      5 N           0.2714   -1.0702    0.0278 N.ar    1  LIG1       -0.3566
      6 H           0.3356   -2.0708    0.1023 H       1  LIG1        0.1655
      7 H           2.3466   -0.5784   -0.0374 H       1  LIG1        0.0808
      8 H           1.4331    1.9718   -0.2059 H       1  LIG1        0.0669
      9 O          -1.5024    1.9639   -0.1588 O.3     1  LIG1       -0.5046
     10 H          -1.0641    2.8062   -0.3169 H       1  LIG1        0.2922
     11 C          -2.2199   -0.9755    0.0496 C.ar    1  LIG1        0.0705
     12 C          -2.6199   -2.3005    0.1261 C.ar    1  LIG1        0.0074
     13 C          -4.0314   -2.2975    0.1290 C.ar    1  LIG1        0.1426
     14 C          -4.4823   -0.9892    0.0604 C.ar    1  LIG1        0.0891
     15 N          -3.3429   -0.2072    0.0165 N.ar    1  LIG1       -0.3500
     16 H          -3.3103    0.7945   -0.0950 H       1  LIG1        0.1661
     17 H          -1.9797   -3.1711    0.1721 H       1  LIG1        0.0676
     18 O          -4.8555   -3.3857    0.1948 O.3     1  LIG1       -0.5046
     19 H          -4.3141   -4.1730    0.3148 H       1  LIG1        0.2922
     20 C          -6.0484    0.9491    0.1945 C.ar    1  LIG1       -0.0517
     21 C          -7.3316    1.4616    0.1748 C.ar    1  LIG1       -0.0485
     22 C          -5.8231   -0.4273    0.0539 C.ar    1  LIG1        0.0054
     23 C          -8.4669    0.6572    0.0220 C.ar    1  LIG1        0.0398
     24 H          -7.4681    2.5308    0.2900 H       1  LIG1        0.0625
     25 C          -6.9452   -1.2480   -0.0973 C.ar    1  LIG1       -0.0103
     26 C          -8.2265   -0.7203   -0.1086 C.ar    1  LIG1        0.1266
     27 H          -6.8094   -2.3190   -0.2064 H       1  LIG1        0.0661
     28 H          -5.2196    1.6330    0.3435 H       1  LIG1        0.0624
     29 O          -9.3050   -1.5603   -0.2574 O.3     1  LIG1       -0.5061
     30 H          -8.9855   -2.4670   -0.3267 H       1  LIG1        0.2922
     31 C          -9.7993    1.2616    0.0102 C.ar    1  LIG1        0.0535
     32 C         -10.1631    2.5960    0.1130 C.ar    1  LIG1        0.0053
     33 C         -11.5708    2.6516    0.0497 C.ar    1  LIG1        0.1347
     34 C         -12.0452    1.3673   -0.0895 C.ar    1  LIG1        0.0441
     35 N         -10.9527    0.5369   -0.1113 N.ar    1  LIG1       -0.3575
     36 H         -10.9566   -0.4655   -0.2049 H       1  LIG1        0.1654
     37 H         -13.0518    0.9874   -0.1734 H       1  LIG1        0.0844
     38 H          -9.5090    3.4472    0.2205 H       1  LIG1        0.0675
     39 O         -12.2765    3.8188    0.1206 O.3     1  LIG1       -0.5053
     40 H         -13.2160    3.6161    0.0582 H       1  LIG1        0.2922
@<TRIPOS>BOND
     1    30    29    1
     2    10     9    1
     3    29    26    1
     4    27    25    1
     5     8     2    1
     6    36    35    1
     7    37    34    1
     8     9     3    1
     9     2     3   ar
    10     2     1   ar
    11    35    34   ar
    12    35    31   ar
    13    26    25   ar
    14    26    23   ar
    15     3     4   ar
    16    25    22   ar
    17    16    15    1
    18    34    33   ar
    19     1     7    1
    20     1     5   ar
    21     4     5   ar
    22     4    11    1
    23    31    23    1
    24    31    32   ar
    25    15    11   ar
    26    15    14   ar
    27    23    21   ar
    28     5     6    1
    29    11    12   ar
    30    33    32   ar
    31    33    39    1
    32    22    14    1
    33    22    20   ar
    34    40    39    1
    35    14    13   ar
    36    32    38    1
    37    12    13   ar
    38    12    17    1
    39    13    18    1
    40    21    20   ar
    41    21    24    1
    42    20    28    1
    43    18    19    1
