@<TRIPOS>MOLECULE
mol_data/opt/cam/geoms/mol2/13af13af-.out
 20 21 0 0 0
SMALL
GASTEIGER

@<TRIPOS>ATOM
      1 C           1.1559   -0.2498    0.0207 C.ar    1  LIG1        0.0058
      2 C           0.6922    1.0447    0.0368 C.ar    1  LIG1       -0.0021
      3 C          -0.7209    0.9641    0.0288 C.ar    1  LIG1        0.1434
      4 C          -1.0924   -0.3638    0.0083 C.ar    1  LIG1        0.1050
      5 N           0.0801   -1.0877    0.0039 N.ar    1  LIG1       -0.3566
      6 H           0.1245   -2.0921   -0.0101 H       1  LIG1        0.1655
      7 H           2.1651   -0.6306    0.0202 H       1  LIG1        0.0808
      8 H           1.2955    1.9411    0.0524 H       1  LIG1        0.0669
      9 O          -1.6400    1.9834    0.0390 O.3     1  LIG1       -0.5046
     10 H          -1.1771    2.8272    0.0502 H       1  LIG1        0.2922
     11 C          -2.4095   -0.9578   -0.0064 C.ar    1  LIG1        0.0700
     12 C          -2.8277   -2.2782   -0.0272 C.ar    1  LIG1        0.0067
     13 C          -4.2454   -2.2588   -0.0338 C.ar    1  LIG1        0.1347
     14 C          -4.6586   -0.9504   -0.0173 C.ar    1  LIG1        0.0442
     15 N          -3.5242   -0.1719   -0.0007 N.ar    1  LIG1       -0.3564
     16 H          -3.4819    0.8353    0.0137 H       1  LIG1        0.1655
     17 H          -5.6502   -0.5296   -0.0161 H       1  LIG1        0.0844
     18 H          -2.1967   -3.1570   -0.0365 H       1  LIG1        0.0676
     19 O          -5.0963   -3.3270   -0.0529 O.3     1  LIG1       -0.5053
     20 H          -4.5715   -4.1337   -0.0636 H       1  LIG1        0.2922
@<TRIPOS>BOND
     1    20    19    1
     2    19    13    1
     3    18    12    1
     4    13    12   ar
     5    13    14   ar
     6    12    11   ar
     7    14    17    1
     8    14    15   ar
     9     6     5    1
    10    11    15   ar
    11    11     4    1
    12    15    16    1
    13     5     4   ar
    14     5     1   ar
    15     4     3   ar
    16     7     1    1
    17     1     2   ar
    18     3     2   ar
    19     3     9    1
    20     2     8    1
    21     9    10    1
