@<TRIPOS>MOLECULE
mol_data/opt/cam/geoms/mol2/13af13af13af13af-.out
 38 41 0 0 0
SMALL
GASTEIGER

@<TRIPOS>ATOM
      1 C           0.9506    0.6197   -1.1339 C.ar    1  LIG1        0.0058
      2 C           0.8024    1.3003    0.0487 C.ar    1  LIG1       -0.0021
      3 C          -0.4514    0.9156    0.5851 C.ar    1  LIG1        0.1434
      4 C          -1.0370    0.0125   -0.2769 C.ar    1  LIG1        0.1050
      5 N          -0.1417   -0.1792   -1.3198 N.ar    1  LIG1       -0.3566
      6 H          -0.3837   -0.6228   -2.1902 H       1  LIG1        0.1655
      7 H           1.7518    0.6451   -1.8564 H       1  LIG1        0.0808
      8 H           1.5057    1.9847    0.4973 H       1  LIG1        0.0669
      9 O          -0.9440    1.3535    1.7720 O.3     1  LIG1       -0.5046
     10 H          -1.7553    0.8610    1.9595 H       1  LIG1        0.2922
     11 C          -2.2925   -0.6937   -0.1363 C.ar    1  LIG1        0.0705
     12 C          -3.5196   -0.2338    0.3111 C.ar    1  LIG1        0.0074
     13 C          -4.4028   -1.3384    0.3092 C.ar    1  LIG1        0.1441
     14 C          -3.7181   -2.4488   -0.1406 C.ar    1  LIG1        0.1055
     15 N          -2.4207   -2.0317   -0.4004 N.ar    1  LIG1       -0.3488
     16 H          -1.6726   -2.6282   -0.7123 H       1  LIG1        0.1661
     17 H          -3.7711    0.7895    0.5470 H       1  LIG1        0.0676
     18 O          -5.7039   -1.2830    0.6927 O.3     1  LIG1       -0.5046
     19 H          -6.0405   -2.1893    0.7318 H       1  LIG1        0.2922
     20 C          -4.1956   -3.8041   -0.3032 C.ar    1  LIG1        0.0705
     21 C          -5.4024   -4.2614   -0.8046 C.ar    1  LIG1        0.0074
     22 C          -5.3895   -5.6716   -0.6831 C.ar    1  LIG1        0.1441
     23 C          -4.1921   -6.0607   -0.1230 C.ar    1  LIG1        0.1054
     24 N          -3.4739   -4.9017    0.0949 N.ar    1  LIG1       -0.3488
     25 H          -2.6477   -4.8544    0.6683 H       1  LIG1        0.1661
     26 H          -6.1592   -3.6503   -1.2773 H       1  LIG1        0.0676
     27 O          -6.3564   -6.5714   -1.0467 O.3     1  LIG1       -0.5046
     28 H          -7.0478   -6.1176   -1.5395 H       1  LIG1        0.2922
     29 C          -3.7015   -7.3802    0.1944 C.ar    1  LIG1        0.0701
     30 C          -2.4920   -7.8125    0.7140 C.ar    1  LIG1        0.0067
     31 C          -2.5722   -9.2237    0.8186 C.ar    1  LIG1        0.1347
     32 C          -3.8070   -9.6192    0.3679 C.ar    1  LIG1        0.0442
     33 N          -4.4814   -8.4813   -0.0078 N.ar    1  LIG1       -0.3564
     34 H          -5.4120   -8.4306   -0.3922 H       1  LIG1        0.1655
     35 H          -4.2410  -10.6020    0.2906 H       1  LIG1        0.0844
     36 H          -1.6442   -7.1950    0.9790 H       1  LIG1        0.0676
     37 O          -1.6171  -10.0853    1.2746 O.3     1  LIG1       -0.5053
     38 H          -0.8591   -9.5725    1.5728 H       1  LIG1        0.2922
@<TRIPOS>BOND
     1     6     5    1
     2     7     1    1
     3    28    27    1
     4     5     1   ar
     5     5     4   ar
     6    26    21    1
     7     1     2   ar
     8    27    22    1
     9    21    22   ar
    10    21    20   ar
    11    16    15    1
    12    22    23   ar
    13    15    14   ar
    14    15    11   ar
    15    34    33    1
    16    20    14    1
    17    20    24   ar
    18     4    11    1
    19     4     3   ar
    20    14    13   ar
    21    11    12   ar
    22    23    24   ar
    23    23    29    1
    24    33    29   ar
    25    33    32   ar
    26     2     8    1
    27     2     3   ar
    28    24    25    1
    29    29    30   ar
    30    35    32    1
    31    13    12   ar
    32    13    18    1
    33    12    17    1
    34    32    31   ar
    35     3     9    1
    36    18    19    1
    37    30    31   ar
    38    30    36    1
    39    31    37    1
    40    37    38    1
    41     9    10    1
