@<TRIPOS>MOLECULE
mol_data/opt/cam/geoms/mol2/13af13af-13af-13af.out
 38 41 0 0 0
SMALL
GASTEIGER

@<TRIPOS>ATOM
      1 C           1.3250   -0.3802    0.0440 C.ar    1  LIG1        0.0058
      2 C           0.8946    0.8912   -0.2541 C.ar    1  LIG1       -0.0021
      3 C          -0.5194    0.8418   -0.2670 C.ar    1  LIG1        0.1434
      4 C          -0.9241   -0.4455    0.0211 C.ar    1  LIG1        0.1050
      5 N           0.2294   -1.1749    0.2116 N.ar    1  LIG1       -0.3566
      6 H           0.2508   -2.1532    0.4428 H       1  LIG1        0.1655
      7 H           2.3243   -0.7715    0.1523 H       1  LIG1        0.0808
      8 H           1.5199    1.7534   -0.4362 H       1  LIG1        0.0669
      9 O          -1.4132    1.8582   -0.4977 O.3     1  LIG1       -0.5046
     10 H          -0.9558    2.5952   -0.9157 H       1  LIG1        0.2922
     11 C          -2.2557   -0.9924    0.1104 C.ar    1  LIG1        0.0705
     12 C          -2.7191   -2.2780    0.3366 C.ar    1  LIG1        0.0074
     13 C          -4.1307   -2.2215    0.2734 C.ar    1  LIG1        0.1441
     14 C          -4.5111   -0.9192    0.0166 C.ar    1  LIG1        0.1055
     15 N          -3.3430   -0.1856   -0.0711 N.ar    1  LIG1       -0.3488
     16 H          -3.2551    0.7698   -0.3848 H       1  LIG1        0.1661
     17 H          -2.1198   -3.1585    0.5245 H       1  LIG1        0.0676
     18 O          -5.0230   -3.2413    0.4327 O.3     1  LIG1       -0.5046
     19 H          -4.5496   -4.0199    0.7439 H       1  LIG1        0.2922
     20 C          -5.8226   -0.3339   -0.1050 C.ar    1  LIG1        0.0705
     21 C          -7.0391   -0.9226   -0.3955 C.ar    1  LIG1        0.0074
     22 C          -8.0033    0.1099   -0.3790 C.ar    1  LIG1        0.1441
     23 C          -7.3818    1.3052   -0.0904 C.ar    1  LIG1        0.1054
     24 N          -6.0385    1.0125    0.0569 N.ar    1  LIG1       -0.3488
     25 H          -5.3775    1.6484    0.4714 H       1  LIG1        0.1661
     26 H          -7.1895   -1.9708   -0.6066 H       1  LIG1        0.0676
     27 O          -9.3511    0.0212   -0.6209 O.3     1  LIG1       -0.5046
     28 H          -9.5839   -0.9038   -0.7512 H       1  LIG1        0.2922
     29 C          -7.9322    2.6312    0.0457 C.ar    1  LIG1        0.0701
     30 C          -7.3343    3.8543    0.2941 C.ar    1  LIG1        0.0067
     31 C          -8.3716    4.8161    0.3315 C.ar    1  LIG1        0.1347
     32 C          -9.5662    4.1753    0.1074 C.ar    1  LIG1        0.0442
     33 N          -9.2775    2.8382   -0.0637 N.ar    1  LIG1       -0.3564
     34 H          -9.9312    2.0956   -0.2563 H       1  LIG1        0.1655
     35 H         -10.5757    4.5522    0.0559 H       1  LIG1        0.0844
     36 H          -6.2818    4.0567    0.4264 H       1  LIG1        0.0676
     37 O          -8.1440    6.1440    0.5560 O.3     1  LIG1       -0.5053
     38 H          -8.9876    6.6086    0.5393 H       1  LIG1        0.2922
@<TRIPOS>BOND
     1    10     9    1
     2    28    27    1
     3    27    22    1
     4    26    21    1
     5     9     3    1
     6     8     2    1
     7    21    22   ar
     8    21    20   ar
     9    16    15    1
    10    22    23   ar
    11     3     2   ar
    12     3     4   ar
    13    34    33    1
    14     2     1   ar
    15    20    14    1
    16    20    24   ar
    17    23    29    1
    18    23    24   ar
    19    15    14   ar
    20    15    11   ar
    21    33    29   ar
    22    33    32   ar
    23    14    13   ar
    24     4    11    1
    25     4     5   ar
    26     1     7    1
    27     1     5   ar
    28    29    30   ar
    29    35    32    1
    30    24    25    1
    31    32    31   ar
    32    11    12   ar
    33     5     6    1
    34    13    12   ar
    35    13    18    1
    36    30    31   ar
    37    30    36    1
    38    31    37    1
    39    12    17    1
    40    18    19    1
    41    38    37    1
