@<TRIPOS>MOLECULE
mol_data/opt/cam/geoms/mol2/13af13af13af-13af-.out
 38 41 0 0 0
SMALL
GASTEIGER

@<TRIPOS>ATOM
      1 C           1.2186   -0.0314   -0.9479 C.ar    1  LIG1        0.0058
      2 C           0.9319    1.0605   -0.1674 C.ar    1  LIG1       -0.0021
      3 C          -0.4266    0.9407    0.2165 C.ar    1  LIG1        0.1434
      4 C          -0.9363   -0.2162   -0.3349 C.ar    1  LIG1        0.1050
      5 N           0.1046   -0.8177   -1.0278 N.ar    1  LIG1       -0.3566
      6 H          -0.0217   -1.5659   -1.6890 H       1  LIG1        0.1655
      7 H           2.1324   -0.3069   -1.4515 H       1  LIG1        0.0808
      8 H           1.6078    1.8523    0.1165 H       1  LIG1        0.0669
      9 O          -1.0749    1.8181    1.0250 O.3     1  LIG1       -0.5046
     10 H          -1.9424    1.4457    1.2363 H       1  LIG1        0.2922
     11 C          -2.2580   -0.7864   -0.1914 C.ar    1  LIG1        0.0705
     12 C          -3.4957   -0.1653   -0.1894 C.ar    1  LIG1        0.0074
     13 C          -4.4601   -1.1702    0.0476 C.ar    1  LIG1        0.1441
     14 C          -3.8137   -2.3842    0.1742 C.ar    1  LIG1        0.1055
     15 N          -2.4648   -2.1239    0.0306 N.ar    1  LIG1       -0.3488
     16 H          -1.7328   -2.7998    0.1727 H       1  LIG1        0.1661
     17 H          -3.6899    0.8756   -0.4016 H       1  LIG1        0.0676
     18 O          -5.8112   -0.9620    0.1052 O.3     1  LIG1       -0.5046
     19 H          -6.1831   -1.6020    0.7265 H       1  LIG1        0.2922
     20 C          -4.3698   -3.6961    0.4014 C.ar    1  LIG1        0.0705
     21 C          -3.8557   -4.8307    0.9928 C.ar    1  LIG1        0.0074
     22 C          -4.8515   -5.8378    0.9005 C.ar    1  LIG1        0.1441
     23 C          -5.9576   -5.3111    0.2730 C.ar    1  LIG1        0.1054
     24 N          -5.6571   -3.9824   -0.0034 N.ar    1  LIG1       -0.3488
     25 H          -6.1061   -3.4581   -0.7398 H       1  LIG1        0.1661
     26 H          -2.8962   -4.9168    1.4847 H       1  LIG1        0.0676
     27 O          -4.7905   -7.1195    1.3562 O.3     1  LIG1       -0.5046
     28 H          -3.9920   -7.2263    1.8839 H       1  LIG1        0.2922
     29 C          -7.2313   -5.9101   -0.0478 C.ar    1  LIG1        0.0701
     30 C          -7.5810   -7.2380   -0.1898 C.ar    1  LIG1        0.0067
     31 C          -8.9631   -7.2713   -0.5077 C.ar    1  LIG1        0.1347
     32 C          -9.4279   -5.9831   -0.5570 C.ar    1  LIG1        0.0442
     33 N          -8.3517   -5.1574   -0.2933 N.ar    1  LIG1       -0.3564
     34 H          -8.4342   -4.1777   -0.0814 H       1  LIG1        0.1655
     35 H         -10.4119   -5.5987   -0.7678 H       1  LIG1        0.0844
     36 H          -6.9050   -8.0745   -0.0900 H       1  LIG1        0.0676
     37 O          -9.7351   -8.3690   -0.7507 O.3     1  LIG1       -0.5053
     38 H          -9.1931   -9.1547   -0.6248 H       1  LIG1        0.2922
@<TRIPOS>BOND
     1     6     5    1
     2     7     1    1
     3     5     1   ar
     4     5     4   ar
     5     1     2   ar
     6    35    32    1
     7    37    38    1
     8    37    31    1
     9    25    24    1
    10    32    31   ar
    11    32    33   ar
    12    31    30   ar
    13    17    12    1
    14     4    11    1
    15     4     3   ar
    16    33    34    1
    17    33    29   ar
    18    11    12   ar
    19    11    15   ar
    20    30    36    1
    21    30    29   ar
    22    12    13   ar
    23     2     8    1
    24     2     3   ar
    25    29    23    1
    26    24    23   ar
    27    24    20   ar
    28    15    16    1
    29    15    14   ar
    30    13    18    1
    31    13    14   ar
    32    18    19    1
    33    14    20    1
    34     3     9    1
    35    23    22   ar
    36    20    21   ar
    37    22    21   ar
    38    22    27    1
    39    21    26    1
    40     9    10    1
    41    27    28    1
