@<TRIPOS>MOLECULE
mol_data/opt/cam/geoms/mol2/13af13af13af.out
 29 31 0 0 0
SMALL
GASTEIGER

@<TRIPOS>ATOM
      1 C           1.2246    0.0786   -0.6530 C.ar    1  LIG1        0.0058
      2 C           0.8594    1.0668    0.2266 C.ar    1  LIG1       -0.0021
      3 C          -0.5163    0.8742    0.5066 C.ar    1  LIG1        0.1434
      4 C          -0.9575   -0.2222   -0.2033 C.ar    1  LIG1        0.1050
      5 N           0.1404   -0.7173   -0.8925 N.ar    1  LIG1       -0.3566
      6 H           0.0743   -1.3823   -1.6451 H       1  LIG1        0.1655
      7 H           2.1747   -0.1166   -1.1262 H       1  LIG1        0.0808
      8 H           1.4938    1.8352    0.6408 H       1  LIG1        0.0669
      9 O          -1.2382    1.6379    1.3666 O.3     1  LIG1       -0.5046
     10 H          -2.1158    1.2401    1.4538 H       1  LIG1        0.2922
     11 C          -2.2701   -0.8331   -0.2074 C.ar    1  LIG1        0.0705
     12 C          -3.5208   -0.2401   -0.2417 C.ar    1  LIG1        0.0074
     13 C          -4.4764   -1.2812   -0.1736 C.ar    1  LIG1        0.1441
     14 C          -3.8089   -2.4862   -0.1045 C.ar    1  LIG1        0.1054
     15 N          -2.4545   -2.1874   -0.1176 N.ar    1  LIG1       -0.3488
     16 H          -1.7127   -2.8642   -0.0529 H       1  LIG1        0.1661
     17 H          -3.7254    0.8123   -0.3711 H       1  LIG1        0.0676
     18 O          -5.8196   -1.0901   -0.1754 O.3     1  LIG1       -0.5046
     19 H          -6.2431   -1.9490   -0.0353 H       1  LIG1        0.2922
     20 C          -4.3579   -3.8223    0.0002 C.ar    1  LIG1        0.0701
     21 C          -5.4337   -4.3871   -0.6570 C.ar    1  LIG1        0.0067
     22 C          -5.6064   -5.6929   -0.1293 C.ar    1  LIG1        0.1347
     23 C          -4.6430   -5.9024    0.8243 C.ar    1  LIG1        0.0442
     24 N          -3.8743   -4.7544    0.8827 N.ar    1  LIG1       -0.3564
     25 H          -3.2319   -4.5383    1.6268 H       1  LIG1        0.1655
     26 H          -4.4265   -6.7634    1.4374 H       1  LIG1        0.0844
     27 H          -5.9833   -3.9532   -1.4792 H       1  LIG1        0.0676
     28 O          -6.5718   -6.5440   -0.5725 O.3     1  LIG1       -0.5053
     29 H          -6.5033   -7.3773   -0.0936 H       1  LIG1        0.2922
@<TRIPOS>BOND
     1     6     5    1
     2    27    21    1
     3     7     1    1
     4     5     1   ar
     5     5     4   ar
     6    21    22   ar
     7    21    20   ar
     8     1     2   ar
     9    28    22    1
    10    28    29    1
    11    17    12    1
    12    12    11   ar
    13    12    13   ar
    14    11     4    1
    15    11    15   ar
    16     4     3   ar
    17    18    13    1
    18    18    19    1
    19    13    14   ar
    20    22    23   ar
    21    15    14   ar
    22    15    16    1
    23    14    20    1
    24    20    24   ar
    25     2     3   ar
    26     2     8    1
    27     3     9    1
    28    23    24   ar
    29    23    26    1
    30    24    25    1
    31     9    10    1
