@<TRIPOS>MOLECULE
mol_data/opt/cam/geoms/mol2/13af13af-13af13af-.out
 38 41 0 0 0
SMALL
GASTEIGER

@<TRIPOS>ATOM
      1 C           1.3008   -0.2577    0.0021 C.ar    1  LIG1        0.0058
      2 C           0.8515    1.0421    0.0047 C.ar    1  LIG1       -0.0021
      3 C          -0.5618    0.9772    0.0051 C.ar    1  LIG1        0.1434
      4 C          -0.9480   -0.3475    0.0029 C.ar    1  LIG1        0.1050
      5 N           0.2170   -1.0847    0.0015 N.ar    1  LIG1       -0.3566
      6 H           0.2531   -2.0894    0.0002 H       1  LIG1        0.1655
      7 H           2.3060   -0.6488    0.0011 H       1  LIG1        0.0808
      8 H           1.4649    1.9318    0.0065 H       1  LIG1        0.0669
      9 O          -1.4698    2.0052    0.0093 O.3     1  LIG1       -0.5046
     10 H          -0.9998    2.8448   -0.0126 H       1  LIG1        0.2922
     11 C          -2.2706   -0.9225    0.0015 C.ar    1  LIG1        0.0705
     12 C          -2.7069   -2.2387   -0.0034 C.ar    1  LIG1        0.0074
     13 C          -4.1177   -2.1940   -0.0033 C.ar    1  LIG1        0.1441
     14 C          -4.5260   -0.8748    0.0017 C.ar    1  LIG1        0.1055
     15 N          -3.3747   -0.1188    0.0048 N.ar    1  LIG1       -0.3488
     16 H          -3.3185    0.8884    0.0069 H       1  LIG1        0.1661
     17 H          -2.0893   -3.1264   -0.0069 H       1  LIG1        0.0676
     18 O          -5.0075   -3.2376   -0.0071 O.3     1  LIG1       -0.5046
     19 H          -4.5230   -4.0690   -0.0129 H       1  LIG1        0.2922
     20 C          -5.8560   -0.3218    0.0040 C.ar    1  LIG1        0.0705
     21 C          -6.3089    0.9888    0.0111 C.ar    1  LIG1        0.0074
     22 C          -7.7192    0.9257    0.0099 C.ar    1  LIG1        0.1441
     23 C          -8.1115   -0.3977    0.0021 C.ar    1  LIG1        0.1054
     24 N          -6.9510   -1.1393   -0.0023 N.ar    1  LIG1       -0.3488
     25 H          -6.8848   -2.1456   -0.0076 H       1  LIG1        0.1661
     26 H          -5.6998    1.8821    0.0153 H       1  LIG1        0.0676
     27 O          -8.6216    1.9604    0.0113 O.3     1  LIG1       -0.5046
     28 H          -8.1444    2.7942    0.0667 H       1  LIG1        0.2922
     29 C          -9.4358   -0.9698   -0.0001 C.ar    1  LIG1        0.0701
     30 C          -9.8724   -2.2847   -0.0050 C.ar    1  LIG1        0.0067
     31 C         -11.2895   -2.2459   -0.0035 C.ar    1  LIG1        0.1347
     32 C         -11.6861   -0.9324    0.0021 C.ar    1  LIG1        0.0442
     33 N         -10.5407   -0.1686    0.0038 N.ar    1  LIG1       -0.3564
     34 H         -10.4848    0.8379    0.0089 H       1  LIG1        0.1655
     35 H         -12.6720   -0.4985    0.0043 H       1  LIG1        0.0844
     36 H          -9.2509   -3.1700   -0.0088 H       1  LIG1        0.0676
     37 O         -12.1539   -3.3046   -0.0069 O.3     1  LIG1       -0.5053
     38 H         -11.6361   -4.1159   -0.0122 H       1  LIG1        0.2922
@<TRIPOS>BOND
     1    19    18    1
     2    10     9    1
     3    38    37    1
     4    36    30    1
     5    25    24    1
     6    18    13    1
     7    37    31    1
     8    17    12    1
     9    30    31   ar
    10    30    29   ar
    11    31    32   ar
    12    12    13   ar
    13    12    11   ar
    14    13    14   ar
    15    24    23   ar
    16    24    20   ar
    17    29    23    1
    18    29    33   ar
    19     6     5    1
    20     7     1    1
    21     5     1   ar
    22     5     4   ar
    23    11     4    1
    24    11    15   ar
    25    14    20    1
    26    14    15   ar
    27    32    33   ar
    28    32    35    1
    29     1     2   ar
    30    23    22   ar
    31     4     3   ar
    32    33    34    1
    33    20    21   ar
    34     2     3   ar
    35     2     8    1
    36    15    16    1
    37     3     9    1
    38    22    21   ar
    39    22    27    1
    40    21    26    1
    41    27    28    1
