@<TRIPOS>MOLECULE
mol_data/opt/cam/geoms/mol2/13af13af13af-13af.out
 38 41 0 0 0
SMALL
GASTEIGER

@<TRIPOS>ATOM
      1 C           1.2881    0.0601   -0.3875 C.ar    1  LIG1        0.0058
      2 C           0.8264    1.1442    0.3171 C.ar    1  LIG1       -0.0021
      3 C          -0.5719    0.9703    0.4603 C.ar    1  LIG1        0.1434
      4 C          -0.9315   -0.2097   -0.1570 C.ar    1  LIG1        0.1050
      5 N           0.2367   -0.7703   -0.6515 N.ar    1  LIG1       -0.3566
      6 H           0.2581   -1.5378   -1.3020 H       1  LIG1        0.1655
      7 H           2.2864   -0.1818   -0.7185 H       1  LIG1        0.0808
      8 H           1.4109    1.9646    0.7041 H       1  LIG1        0.0669
      9 O          -1.3891    1.8243    1.1306 O.3     1  LIG1       -0.5046
     10 H          -2.2537    1.3994    1.2193 H       1  LIG1        0.2922
     11 C          -2.2350   -0.8291   -0.2475 C.ar    1  LIG1        0.0705
     12 C          -3.4741   -0.2557   -0.4783 C.ar    1  LIG1        0.0074
     13 C          -4.4279   -1.2987   -0.4061 C.ar    1  LIG1        0.1441
     14 C          -3.7755   -2.4840   -0.1418 C.ar    1  LIG1        0.1055
     15 N          -2.4319   -2.1728   -0.0558 N.ar    1  LIG1       -0.3488
     16 H          -1.7292   -2.7950    0.3079 H       1  LIG1        0.1661
     17 H          -3.6497    0.7767   -0.7478 H       1  LIG1        0.0676
     18 O          -5.7856   -1.2306   -0.5689 O.3     1  LIG1       -0.5046
     19 H          -6.0273   -0.3607   -0.9033 H       1  LIG1        0.2922
     20 C          -4.3052   -3.8153    0.0104 C.ar    1  LIG1        0.0705
     21 C          -3.6855   -5.0330    0.2449 C.ar    1  LIG1        0.0074
     22 C          -4.7123   -6.0009    0.3021 C.ar    1  LIG1        0.1441
     23 C          -5.9282   -5.3783    0.1042 C.ar    1  LIG1        0.1054
     24 N          -5.6501   -4.0434   -0.0757 N.ar    1  LIG1       -0.3488
     25 H          -6.3225   -3.3131   -0.2556 H       1  LIG1        0.1661
     26 H          -2.6239   -5.2114    0.3463 H       1  LIG1        0.0676
     27 O          -4.5975   -7.3574    0.4878 O.3     1  LIG1       -0.5046
     28 H          -3.7582   -7.5458    0.9202 H       1  LIG1        0.2922
     29 C          -7.2604   -5.9329    0.0788 C.ar    1  LIG1        0.0701
     30 C          -8.4984   -5.3396   -0.0904 C.ar    1  LIG1        0.0067
     31 C          -9.4600   -6.3749   -0.0199 C.ar    1  LIG1        0.1347
     32 C          -8.8029   -7.5641    0.1882 C.ar    1  LIG1        0.0442
     33 N          -7.4573   -7.2743    0.2443 N.ar    1  LIG1       -0.3564
     34 H          -6.7012   -7.9240    0.3926 H       1  LIG1        0.1655
     35 H          -9.1745   -8.5713    0.2953 H       1  LIG1        0.0844
     36 H          -8.7090   -4.2919   -0.2441 H       1  LIG1        0.0676
     37 O         -10.8008   -6.1514   -0.1474 O.3     1  LIG1       -0.5053
     38 H         -11.2639   -6.9920   -0.0657 H       1  LIG1        0.2922
@<TRIPOS>BOND
     1     6     5    1
     2    19    18    1
     3    17    12    1
     4     7     1    1
     5     5     1   ar
     6     5     4   ar
     7    18    13    1
     8    12    13   ar
     9    12    11   ar
    10    13    14   ar
    11     1     2   ar
    12    25    24    1
    13    11     4    1
    14    11    15   ar
    15    36    30    1
    16     4     3   ar
    17    37    38    1
    18    37    31    1
    19    14    15   ar
    20    14    20    1
    21    30    31   ar
    22    30    29   ar
    23    24    20   ar
    24    24    23   ar
    25    15    16    1
    26    31    32   ar
    27    20    21   ar
    28    29    23    1
    29    29    33   ar
    30    23    22   ar
    31    32    33   ar
    32    32    35    1
    33    33    34    1
    34    21    22   ar
    35    21    26    1
    36    22    27    1
    37     2     3   ar
    38     2     8    1
    39     3     9    1
    40    27    28    1
    41     9    10    1
