@<TRIPOS>MOLECULE
mol_data/opt/cam/geoms/mol2/13ag13ag-13ag13ag-.out
 38 41 0 0 0
SMALL
GASTEIGER

@<TRIPOS>ATOM
      1 C           0.8625    0.5183   -1.4954 C.ar    1  LIG1        0.0033
      2 C           0.9425    1.1343   -0.2745 C.ar    1  LIG1       -0.0305
      3 C          -0.2411    0.8082    0.4421 C.ar    1  LIG1        0.0315
      4 C          -1.0128   -0.0010   -0.3666 C.ar    1  LIG1        0.0762
      5 N          -0.3080   -0.1838   -1.5425 N.ar    1  LIG1       -0.3586
      6 H          -0.7004   -0.5983   -2.3720 H       1  LIG1        0.1654
      7 H           1.5469    0.5243   -2.3297 H       1  LIG1        0.0807
      8 H           1.7604    1.7423    0.0820 H       1  LIG1        0.0644
      9 S          -0.5733    1.3430    2.0932 S.3     1  LIG1       -0.1405
     10 H          -1.6694    0.5856    2.2728 H       1  LIG1        0.1072
     11 C          -2.2935   -0.6479   -0.1371 C.ar    1  LIG1        0.0655
     12 C          -3.4872   -0.1571    0.3488 C.ar    1  LIG1       -0.0211
     13 C          -4.4221   -1.2240    0.3591 C.ar    1  LIG1        0.0321
     14 C          -3.7845   -2.3491   -0.1259 C.ar    1  LIG1        0.0767
     15 N          -2.4857   -1.9783   -0.4146 N.ar    1  LIG1       -0.3510
     16 H          -1.7820   -2.5933   -0.7903 H       1  LIG1        0.1660
     17 H          -3.6740    0.8671    0.6356 H       1  LIG1        0.0650
     18 S          -6.0899   -1.0687    0.9203 S.3     1  LIG1       -0.1405
     19 H          -6.3725   -2.3828    0.8935 H       1  LIG1        0.1072
     20 C          -4.2494   -3.7142   -0.3043 C.ar    1  LIG1        0.0655
     21 C          -5.3809   -4.2154   -0.9122 C.ar    1  LIG1       -0.0211
     22 C          -5.3364   -5.6296   -0.8121 C.ar    1  LIG1        0.0321
     23 C          -4.1742   -5.9697   -0.1477 C.ar    1  LIG1        0.0767
     24 N          -3.5290   -4.7882    0.1583 N.ar    1  LIG1       -0.3510
     25 H          -2.6579   -4.7258    0.6601 H       1  LIG1        0.1660
     26 H          -6.1427   -3.6270   -1.4018 H       1  LIG1        0.0650
     27 S          -6.5877   -6.7038   -1.4453 S.3     1  LIG1       -0.1405
     28 H          -6.1348   -7.8179   -0.8443 H       1  LIG1        0.1072
     29 C          -3.6383   -7.2609    0.2512 C.ar    1  LIG1        0.0650
     30 C          -3.4554   -8.4280   -0.4547 C.ar    1  LIG1       -0.0218
     31 C          -2.8918   -9.3850    0.4346 C.ar    1  LIG1        0.0227
     32 C          -2.7351   -8.7712    1.6538 C.ar    1  LIG1        0.0154
     33 N          -3.1800   -7.4864    1.5347 N.ar    1  LIG1       -0.3585
     34 H          -3.2971   -6.8420    2.3001 H       1  LIG1        0.1654
     35 H          -2.3401   -9.1572    2.5807 H       1  LIG1        0.0818
     36 H          -3.6618   -8.5713   -1.5049 H       1  LIG1        0.0650
     37 S          -2.3623  -11.0300    0.0498 S.3     1  LIG1       -0.1412
     38 H          -3.5651  -11.6335    0.0915 H       1  LIG1        0.1072
@<TRIPOS>BOND
     1     6     5    1
     2     7     1    1
     3     5     1   ar
     4     5     4   ar
     5    36    30    1
     6     1     2   ar
     7    27    28    1
     8    27    22    1
     9    26    21    1
    10    21    22   ar
    11    21    20   ar
    12    22    23   ar
    13    16    15    1
    14    30    29   ar
    15    30    31   ar
    16    15    11   ar
    17    15    14   ar
    18     4    11    1
    19     4     3   ar
    20    20    14    1
    21    20    24   ar
    22     2     8    1
    23     2     3   ar
    24    23    24   ar
    25    23    29    1
    26    11    12   ar
    27    14    13   ar
    28    37    38    1
    29    37    31    1
    30    24    25    1
    31    29    33   ar
    32    12    13   ar
    33    12    17    1
    34    13    18    1
    35    31    32   ar
    36     3     9    1
    37    19    18    1
    38    33    32   ar
    39    33    34    1
    40    32    35    1
    41     9    10    1
