@<TRIPOS>MOLECULE
mol_data/opt/cam/geoms/mol2/13ag13ag13ag.out
 29 31 0 0 0
SMALL
GASTEIGER

@<TRIPOS>ATOM
      1 C           1.2818   -0.1267    0.0321 C.ar    1  LIG1        0.0033
      2 C           0.8300    1.0868   -0.4135 C.ar    1  LIG1       -0.0305
      3 C          -0.5905    1.0404   -0.4054 C.ar    1  LIG1        0.0315
      4 C          -0.9675   -0.2090    0.0481 C.ar    1  LIG1        0.0762
      5 N           0.1946   -0.9154    0.2872 N.ar    1  LIG1       -0.3586
      6 H           0.2210   -1.8052    0.7568 H       1  LIG1        0.1654
      7 H           2.2865   -0.4916    0.1800 H       1  LIG1        0.0807
      8 H           1.4391    1.9197   -0.7314 H       1  LIG1        0.0644
      9 S          -1.6247    2.3819   -0.9118 S.3     1  LIG1       -0.1405
     10 H          -2.6828    1.6353   -1.2745 H       1  LIG1        0.1072
     11 C          -2.2707   -0.8185    0.2252 C.ar    1  LIG1        0.0655
     12 C          -3.4691   -0.2956    0.6527 C.ar    1  LIG1       -0.0211
     13 C          -4.4334   -1.3401    0.6187 C.ar    1  LIG1        0.0321
     14 C          -3.8050   -2.4811    0.1703 C.ar    1  LIG1        0.0767
     15 N          -2.4707   -2.1584   -0.0328 N.ar    1  LIG1       -0.3510
     16 H          -1.8755   -2.6894   -0.6505 H       1  LIG1        0.1660
     17 H          -3.6251    0.7116    1.0086 H       1  LIG1        0.0650
     18 S          -6.1085   -1.1426    1.1414 S.3     1  LIG1       -0.1405
     19 H          -6.4166   -2.4511    1.1264 H       1  LIG1        0.1072
     20 C          -4.2950   -3.8307   -0.0421 C.ar    1  LIG1        0.0650
     21 C          -5.4426   -4.3049   -0.6375 C.ar    1  LIG1       -0.0218
     22 C          -5.4089   -5.7255   -0.5638 C.ar    1  LIG1        0.0227
     23 C          -4.2373   -6.0785    0.0606 C.ar    1  LIG1        0.0154
     24 N          -3.5654   -4.9295    0.3653 N.ar    1  LIG1       -0.3585
     25 H          -2.7311   -4.8748    0.9265 H       1  LIG1        0.1654
     26 H          -3.8432   -7.0539    0.2998 H       1  LIG1        0.0818
     27 H          -6.2019   -3.7058   -1.1175 H       1  LIG1        0.0650
     28 S          -6.5766   -6.8665   -1.2485 S.3     1  LIG1       -0.1412
     29 H          -7.5149   -6.7820   -0.2867 H       1  LIG1        0.1072
@<TRIPOS>BOND
     1    10     9    1
     2    28    22    1
     3    28    29    1
     4    27    21    1
     5     9     3    1
     6     8     2    1
     7    16    15    1
     8    21    22   ar
     9    21    20   ar
    10    22    23   ar
    11     2     3   ar
    12     2     1   ar
    13     3     4   ar
    14    20    14    1
    15    20    24   ar
    16    15    14   ar
    17    15    11   ar
    18     1     7    1
    19     1     5   ar
    20     4    11    1
    21     4     5   ar
    22    23    26    1
    23    23    24   ar
    24    14    13   ar
    25    11    12   ar
    26     5     6    1
    27    24    25    1
    28    13    12   ar
    29    13    18    1
    30    12    17    1
    31    19    18    1
