@<TRIPOS>MOLECULE
mol_data/opt/cam/geoms/mol2/13ag13ag-13ag-13ag.out
 38 41 0 0 0
SMALL
GASTEIGER

@<TRIPOS>ATOM
      1 C           1.2555    0.0032   -0.2055 C.ar    1  LIG1        0.0033
      2 C           0.8255    1.1944    0.3155 C.ar    1  LIG1       -0.0305
      3 C          -0.5936    1.1426    0.3792 C.ar    1  LIG1        0.0315
      4 C          -0.9911   -0.0871   -0.1079 C.ar    1  LIG1        0.0762
      5 N           0.1589   -0.7793   -0.4369 N.ar    1  LIG1       -0.3586
      6 H           0.1608   -1.6392   -0.9602 H       1  LIG1        0.1654
      7 H           2.2520   -0.3491   -0.4226 H       1  LIG1        0.0807
      8 H           1.4496    2.0149    0.6366 H       1  LIG1        0.0644
      9 S          -1.6010    2.4519    1.0072 S.3     1  LIG1       -0.1405
     10 H          -2.6856    1.6991    1.2621 H       1  LIG1        0.1072
     11 C          -2.3014   -0.6922   -0.2446 C.ar    1  LIG1        0.0655
     12 C          -3.5093   -0.1706   -0.6461 C.ar    1  LIG1       -0.0211
     13 C          -4.4758   -1.2105   -0.5773 C.ar    1  LIG1        0.0321
     14 C          -3.8381   -2.3506   -0.1336 C.ar    1  LIG1        0.0767
     15 N          -2.4997   -2.0298    0.0285 N.ar    1  LIG1       -0.3510
     16 H          -1.8810   -2.5637    0.6192 H       1  LIG1        0.1660
     17 H          -3.6730    0.8321   -1.0116 H       1  LIG1        0.0650
     18 S          -6.1684   -1.0050   -1.0393 S.3     1  LIG1       -0.1405
     19 H          -6.4104   -2.3000   -1.3088 H       1  LIG1        0.1072
     20 C          -4.3197   -3.6950    0.1023 C.ar    1  LIG1        0.0655
     21 C          -5.5332   -4.1612    0.5562 C.ar    1  LIG1       -0.0211
     22 C          -5.4674   -5.5808    0.5843 C.ar    1  LIG1        0.0321
     23 C          -4.2153   -5.9549    0.1481 C.ar    1  LIG1        0.0767
     24 N          -3.5087   -4.7891   -0.1097 N.ar    1  LIG1       -0.3510
     25 H          -2.7078   -4.7660   -0.7221 H       1  LIG1        0.1660
     26 H          -6.3571   -3.5505    0.8934 H       1  LIG1        0.0650
     27 S          -6.7826   -6.6103    1.1569 S.3     1  LIG1       -0.1405
     28 H          -6.0765   -7.7541    1.1546 H       1  LIG1        0.1072
     29 C          -3.6010   -7.2608   -0.0097 C.ar    1  LIG1        0.0650
     30 C          -4.0607   -8.4238   -0.5859 C.ar    1  LIG1       -0.0218
     31 C          -3.0357   -9.4021   -0.4557 C.ar    1  LIG1        0.0227
     32 C          -1.9755   -8.8057    0.1831 C.ar    1  LIG1        0.0154
     33 N          -2.3202   -7.5101    0.4417 N.ar    1  LIG1       -0.3585
     34 H          -1.7860   -6.8672    1.0033 H       1  LIG1        0.1654
     35 H          -1.0149   -9.2102    0.4617 H       1  LIG1        0.0818
     36 H          -5.0079   -8.5508   -1.0886 H       1  LIG1        0.0650
     37 S          -3.0366  -11.0525   -1.0962 S.3     1  LIG1       -0.1412
     38 H          -3.7746  -11.6332   -0.1314 H       1  LIG1        0.1072
@<TRIPOS>BOND
     1    19    18    1
     2    37    31    1
     3    37    38    1
     4    36    30    1
     5    18    13    1
     6    17    12    1
     7     6     5    1
     8    25    24    1
     9    12    13   ar
    10    12    11   ar
    11    30    31   ar
    12    30    29   ar
    13    13    14   ar
    14    31    32   ar
    15     5     1   ar
    16     5     4   ar
    17     7     1    1
    18    11     4    1
    19    11    15   ar
    20     1     2   ar
    21    14    15   ar
    22    14    20    1
    23    24    20   ar
    24    24    23   ar
    25     4     3   ar
    26    29    23    1
    27    29    33   ar
    28    15    16    1
    29    20    21   ar
    30    23    22   ar
    31    32    33   ar
    32    32    35    1
    33     2     3   ar
    34     2     8    1
    35     3     9    1
    36    33    34    1
    37    21    22   ar
    38    21    26    1
    39    22    27    1
    40     9    10    1
    41    28    27    1
