@<TRIPOS>MOLECULE
mol_data/opt/cam/geoms/mol2/13ag13ag-13ag-13ag-.out
 38 41 0 0 0
SMALL
GASTEIGER

@<TRIPOS>ATOM
      1 C           1.2455    0.0117   -0.2485 C.ar    1  LIG1        0.0033
      2 C           0.8206    1.2001    0.2830 C.ar    1  LIG1       -0.0305
      3 C          -0.5974    1.1454    0.3662 C.ar    1  LIG1        0.0315
      4 C          -0.9994   -0.0832   -0.1200 C.ar    1  LIG1        0.0762
      5 N           0.1472   -0.7720   -0.4677 N.ar    1  LIG1       -0.3586
      6 H           0.1435   -1.6298   -0.9943 H       1  LIG1        0.1654
      7 H           2.2396   -0.3378   -0.4808 H       1  LIG1        0.0807
      8 H           1.4476    2.0205    0.5986 H       1  LIG1        0.0644
      9 S          -1.5983    2.4504    1.0133 S.3     1  LIG1       -0.1405
     10 H          -2.6779    1.6944    1.2803 H       1  LIG1        0.1072
     11 C          -2.3103   -0.6903   -0.2409 C.ar    1  LIG1        0.0655
     12 C          -3.5246   -0.1694   -0.6235 C.ar    1  LIG1       -0.0211
     13 C          -4.4882   -1.2114   -0.5453 C.ar    1  LIG1        0.0321
     14 C          -3.8423   -2.3520   -0.1149 C.ar    1  LIG1        0.0767
     15 N          -2.5023   -2.0293    0.0297 N.ar    1  LIG1       -0.3510
     16 H          -1.8745   -2.5643    0.6098 H       1  LIG1        0.1660
     17 H          -3.6953    0.8344   -0.9828 H       1  LIG1        0.0650
     18 S          -6.1874   -1.0073   -0.9830 S.3     1  LIG1       -0.1405
     19 H          -6.4308   -2.3017   -1.2541 H       1  LIG1        0.1072
     20 C          -4.3180   -3.6982    0.1224 C.ar    1  LIG1        0.0655
     21 C          -5.5242   -4.1684    0.5913 C.ar    1  LIG1       -0.0211
     22 C          -5.4555   -5.5880    0.6130 C.ar    1  LIG1        0.0321
     23 C          -4.2088   -5.9580    0.1579 C.ar    1  LIG1        0.0767
     24 N          -3.5080   -4.7899   -0.1051 N.ar    1  LIG1       -0.3510
     25 H          -2.7158   -4.7630   -0.7285 H       1  LIG1        0.1660
     26 H          -6.3445   -3.5606    0.9423 H       1  LIG1        0.0650
     27 S          -6.7607   -6.6221    1.1997 S.3     1  LIG1       -0.1405
     28 H          -6.0525   -7.7647    1.1832 H       1  LIG1        0.1072
     29 C          -3.5944   -7.2622   -0.0134 C.ar    1  LIG1        0.0650
     30 C          -4.0599   -8.4238   -0.5877 C.ar    1  LIG1       -0.0218
     31 C          -3.0314   -9.4006   -0.4755 C.ar    1  LIG1        0.0227
     32 C          -1.9636   -8.8047    0.1507 C.ar    1  LIG1        0.0154
     33 N          -2.3070   -7.5108    0.4192 N.ar    1  LIG1       -0.3585
     34 H          -1.7662   -6.8690    0.9757 H       1  LIG1        0.1654
     35 H          -0.9985   -9.2085    0.4144 H       1  LIG1        0.0818
     36 H          -5.0138   -8.5506   -1.0776 H       1  LIG1        0.0650
     37 S          -3.0382  -11.0486   -1.1224 S.3     1  LIG1       -0.1412
     38 H          -3.7616  -11.6343   -0.1497 H       1  LIG1        0.1072
@<TRIPOS>BOND
     1    19    18    1
     2    37    31    1
     3    37    38    1
     4    36    30    1
     5     6     5    1
     6    18    13    1
     7    17    12    1
     8    25    24    1
     9    12    13   ar
    10    12    11   ar
    11    30    31   ar
    12    30    29   ar
    13    13    14   ar
    14     7     1    1
    15    31    32   ar
    16     5     1   ar
    17     5     4   ar
    18     1     2   ar
    19    11     4    1
    20    11    15   ar
    21     4     3   ar
    22    14    15   ar
    23    14    20    1
    24    24    20   ar
    25    24    23   ar
    26    29    23    1
    27    29    33   ar
    28    15    16    1
    29    20    21   ar
    30    32    35    1
    31    32    33   ar
    32    23    22   ar
    33     2     3   ar
    34     2     8    1
    35     3     9    1
    36    33    34    1
    37    21    22   ar
    38    21    26    1
    39    22    27    1
    40     9    10    1
    41    28    27    1
