@<TRIPOS>MOLECULE
mol_data/opt/cam/geoms/mol2/13ag13ag-13ag-.out
 29 31 0 0 0
SMALL
GASTEIGER

@<TRIPOS>ATOM
      1 C           1.2784   -0.1214   -0.0929 C.ar    1  LIG1        0.0033
      2 C           0.8333    1.0859    0.3758 C.ar    1  LIG1       -0.0305
      3 C          -0.5871    1.0379    0.3921 C.ar    1  LIG1        0.0315
      4 C          -0.9708   -0.2061   -0.0704 C.ar    1  LIG1        0.0762
      5 N           0.1877   -0.9081   -0.3387 N.ar    1  LIG1       -0.3586
      6 H           0.2067   -1.7919   -0.8198 H       1  LIG1        0.1654
      7 H           2.2807   -0.4831   -0.2629 H       1  LIG1        0.0807
      8 H           1.4470    1.9155    0.6934 H       1  LIG1        0.0644
      9 S          -1.6136    2.3717    0.9333 S.3     1  LIG1       -0.1405
     10 H          -2.6645    1.6193    1.3051 H       1  LIG1        0.1072
     11 C          -2.2763   -0.8149   -0.2323 C.ar    1  LIG1        0.0655
     12 C          -3.4824   -0.2882   -0.6322 C.ar    1  LIG1       -0.0211
     13 C          -4.4450   -1.3342   -0.5945 C.ar    1  LIG1        0.0321
     14 C          -3.8077   -2.4799   -0.1715 C.ar    1  LIG1        0.0767
     15 N          -2.4704   -2.1582    0.0123 N.ar    1  LIG1       -0.3510
     16 H          -1.8639   -2.6961    0.6128 H       1  LIG1        0.1660
     17 H          -3.6457    0.7232   -0.9727 H       1  LIG1        0.0650
     18 S          -6.1291   -1.1322   -1.0853 S.3     1  LIG1       -0.1405
     19 H          -6.4356   -2.4412   -1.0813 H       1  LIG1        0.1072
     20 C          -4.2926   -3.8327    0.0326 C.ar    1  LIG1        0.0650
     21 C          -5.4292   -4.3157    0.6419 C.ar    1  LIG1       -0.0218
     22 C          -5.3953   -5.7353    0.5499 C.ar    1  LIG1        0.0227
     23 C          -4.2344   -6.0790   -0.0992 C.ar    1  LIG1        0.0154
     24 N          -3.5692   -4.9254   -0.4013 N.ar    1  LIG1       -0.3585
     25 H          -2.7448   -4.8627   -0.9761 H       1  LIG1        0.1654
     26 H          -3.8436   -7.0509   -0.3575 H       1  LIG1        0.0818
     27 H          -6.1805   -3.7236    1.1426 H       1  LIG1        0.0650
     28 S          -6.5497   -6.8861    1.2406 S.3     1  LIG1       -0.1412
     29 H          -7.5048   -6.7907    0.2965 H       1  LIG1        0.1072
@<TRIPOS>BOND
     1    18    19    1
     2    18    13    1
     3    25    24    1
     4    17    12    1
     5     6     5    1
     6    12    13   ar
     7    12    11   ar
     8    13    14   ar
     9    24    23   ar
    10    24    20   ar
    11    26    23    1
    12     5     1   ar
    13     5     4   ar
    14     7     1    1
    15    11     4    1
    16    11    15   ar
    17    14    15   ar
    18    14    20    1
    19    23    22   ar
    20     1     2   ar
    21     4     3   ar
    22    15    16    1
    23    20    21   ar
    24    29    28    1
    25     2     3   ar
    26     2     8    1
    27     3     9    1
    28    22    21   ar
    29    22    28    1
    30    21    27    1
    31     9    10    1
