@<TRIPOS>MOLECULE
mol_data/opt/cam/geoms/mol2/13ag13ag13ag-13ag-.out
 38 41 0 0 0
SMALL
GASTEIGER

@<TRIPOS>ATOM
      1 C           1.1903    0.0300   -0.4568 C.ar    1  LIG1        0.0033
      2 C           0.7067    1.2989   -0.6155 C.ar    1  LIG1       -0.0305
      3 C          -0.6963    1.2551   -0.3829 C.ar    1  LIG1        0.0315
      4 C          -1.0299   -0.0540   -0.0776 C.ar    1  LIG1        0.0762
      5 N           0.1323   -0.7851   -0.1430 N.ar    1  LIG1       -0.3586
      6 H           0.2105   -1.7394    0.1681 H       1  LIG1        0.1654
      7 H           2.1925   -0.3615   -0.5369 H       1  LIG1        0.0807
      8 H           1.2760    2.1788   -0.8745 H       1  LIG1        0.0644
      9 S          -1.7965    2.6405   -0.4282 S.3     1  LIG1       -0.1405
     10 H          -2.0756    2.6267   -1.7455 H       1  LIG1        0.1072
     11 C          -2.2915   -0.7009    0.2304 C.ar    1  LIG1        0.0655
     12 C          -3.4137   -0.2538    0.8828 C.ar    1  LIG1       -0.0211
     13 C          -4.3584   -1.3159    0.8949 C.ar    1  LIG1        0.0321
     14 C          -3.7924   -2.3933    0.2493 C.ar    1  LIG1        0.0767
     15 N          -2.5062   -2.0210   -0.1182 N.ar    1  LIG1       -0.3510
     16 H          -2.0278   -2.4598   -0.8910 H       1  LIG1        0.1660
     17 H          -3.5329    0.7202    1.3308 H       1  LIG1        0.0650
     18 S          -5.9359   -1.2116    1.6812 S.3     1  LIG1       -0.1405
     19 H          -6.2252   -2.5219    1.5979 H       1  LIG1        0.1072
     20 C          -4.2937   -3.7281   -0.0165 C.ar    1  LIG1        0.0655
     21 C          -5.5192   -4.1677   -0.4732 C.ar    1  LIG1       -0.0211
     22 C          -5.4630   -5.5818   -0.5680 C.ar    1  LIG1        0.0321
     23 C          -4.2021   -5.9831   -0.1724 C.ar    1  LIG1        0.0767
     24 N          -3.5073   -4.8382    0.1651 N.ar    1  LIG1       -0.3510
     25 H          -2.5571   -4.8198    0.4975 H       1  LIG1        0.1660
     26 H          -6.3526   -3.5360   -0.7423 H       1  LIG1        0.0650
     27 S          -6.8127   -6.5900   -1.0994 S.3     1  LIG1       -0.1405
     28 H          -6.2498   -7.7647   -0.7672 H       1  LIG1        0.1072
     29 C          -3.6085   -7.3040   -0.0447 C.ar    1  LIG1        0.0650
     30 C          -3.5410   -8.3623   -0.9219 C.ar    1  LIG1       -0.0218
     31 C          -2.8413   -9.4168   -0.2715 C.ar    1  LIG1        0.0227
     32 C          -2.4908   -8.9680    0.9790 C.ar    1  LIG1        0.0154
     33 N          -2.9493   -7.6887    1.1068 N.ar    1  LIG1       -0.3585
     34 H          -2.9453   -7.1551    1.9613 H       1  LIG1        0.1654
     35 H          -1.9521   -9.4657    1.7704 H       1  LIG1        0.0818
     36 H          -3.9138   -8.3687   -1.9354 H       1  LIG1        0.0650
     37 S          -2.3790  -10.9832   -0.9549 S.3     1  LIG1       -0.1412
     38 H          -3.5569  -11.6163   -0.8002 H       1  LIG1        0.1072
@<TRIPOS>BOND
     1    36    30    1
     2    10     9    1
     3    27    28    1
     4    27    22    1
     5    37    38    1
     6    37    31    1
     7    30    31   ar
     8    30    29   ar
     9    16    15    1
    10     8     2    1
    11    26    21    1
    12     2     1   ar
    13     2     3   ar
    14    22    21   ar
    15    22    23   ar
    16     7     1    1
    17    21    20   ar
    18     1     5   ar
    19     9     3    1
    20     3     4   ar
    21    31    32   ar
    22    23    29    1
    23    23    24   ar
    24     5     4   ar
    25     5     6    1
    26    15    11   ar
    27    15    14   ar
    28     4    11    1
    29    29    33   ar
    30    20    24   ar
    31    20    14    1
    32    24    25    1
    33    11    12   ar
    34    14    13   ar
    35    12    13   ar
    36    12    17    1
    37    13    18    1
    38    32    33   ar
    39    32    35    1
    40    33    34    1
    41    19    18    1
