@<TRIPOS>MOLECULE
mol_data/opt/cam/geoms/mol2/13ag13ag.out
 20 21 0 0 0
SMALL
GASTEIGER

@<TRIPOS>ATOM
      1 C           1.1634   -0.2397    0.2567 C.ar    1  LIG1        0.0033
      2 C           0.7171    1.0218   -0.0225 C.ar    1  LIG1       -0.0305
      3 C          -0.7012    0.9601   -0.1280 C.ar    1  LIG1        0.0315
      4 C          -1.0827   -0.3498    0.1028 C.ar    1  LIG1        0.0762
      5 N           0.0703   -1.0667    0.3204 N.ar    1  LIG1       -0.3586
      6 H           0.0829   -2.0145    0.6610 H       1  LIG1        0.1654
      7 H           2.1607   -0.6187    0.4180 H       1  LIG1        0.0807
      8 H           1.3224    1.9070   -0.1481 H       1  LIG1        0.0644
      9 S          -1.7820    2.3238   -0.4499 S.3     1  LIG1       -0.1405
     10 H          -1.6717    2.3472   -1.7919 H       1  LIG1        0.1072
     11 C          -2.3786   -1.0081    0.1180 C.ar    1  LIG1        0.0650
     12 C          -3.5946   -0.6326    0.6355 C.ar    1  LIG1       -0.0218
     13 C          -4.5139   -1.6862    0.3760 C.ar    1  LIG1        0.0227
     14 C          -3.8306   -2.6801   -0.2821 C.ar    1  LIG1        0.0154
     15 N          -2.5355   -2.2708   -0.4226 N.ar    1  LIG1       -0.3585
     16 H          -1.8418   -2.7356   -0.9854 H       1  LIG1        0.1654
     17 H          -4.1733   -3.6345   -0.6505 H       1  LIG1        0.0818
     18 H          -3.8007    0.2871    1.1602 H       1  LIG1        0.0650
     19 S          -6.2053   -1.7899    0.8890 S.3     1  LIG1       -0.1412
     20 H          -6.7378   -0.9762   -0.0418 H       1  LIG1        0.1072
@<TRIPOS>BOND
     1    10     9    1
     2    16    15    1
     3    17    14    1
     4     9     3    1
     5    15    14   ar
     6    15    11   ar
     7    14    13   ar
     8     8     2    1
     9     3     2   ar
    10     3     4   ar
    11    20    19    1
    12     2     1   ar
    13     4    11    1
    14     4     5   ar
    15    11    12   ar
    16     1     5   ar
    17     1     7    1
    18     5     6    1
    19    13    12   ar
    20    13    19    1
    21    12    18    1
