@<TRIPOS>MOLECULE
mol_data/opt/cam/geoms/mol2/13ag13ag13ag-13ag.out
 38 41 0 0 0
SMALL
GASTEIGER

@<TRIPOS>ATOM
      1 C           1.2472    0.0067    0.2462 C.ar    1  LIG1        0.0033
      2 C           0.8148    1.2091   -0.2464 C.ar    1  LIG1       -0.0305
      3 C          -0.6042    1.1557   -0.3119 C.ar    1  LIG1        0.0315
      4 C          -0.9992   -0.0861    0.1456 C.ar    1  LIG1        0.0762
      5 N           0.1523   -0.7835    0.4586 N.ar    1  LIG1       -0.3586
      6 H           0.1559   -1.6555    0.9613 H       1  LIG1        0.1654
      7 H           2.2444   -0.3485    0.4553 H       1  LIG1        0.0807
      8 H           1.4372    2.0383   -0.5477 H       1  LIG1        0.0644
      9 S          -1.6142    2.4774   -0.9090 S.3     1  LIG1       -0.1405
     10 H          -2.6970    1.7284   -1.1821 H       1  LIG1        0.1072
     11 C          -2.3082   -0.6972    0.2674 C.ar    1  LIG1        0.0655
     12 C          -3.5173   -0.1878    0.6807 C.ar    1  LIG1       -0.0211
     13 C          -4.4815   -1.2280    0.5868 C.ar    1  LIG1        0.0321
     14 C          -3.8412   -2.3558    0.1164 C.ar    1  LIG1        0.0767
     15 N          -2.5034   -2.0283   -0.0375 N.ar    1  LIG1       -0.3510
     16 H          -1.8834   -2.5466   -0.6405 H       1  LIG1        0.1660
     17 H          -3.6834    0.8055    1.0699 H       1  LIG1        0.0650
     18 S          -6.1747   -1.0371    1.0530 S.3     1  LIG1       -0.1405
     19 H          -6.4140   -2.3387    1.2915 H       1  LIG1        0.1072
     20 C          -4.3197   -3.6952   -0.1516 C.ar    1  LIG1        0.0655
     21 C          -5.5321   -4.1531   -0.6169 C.ar    1  LIG1       -0.0211
     22 C          -5.4632   -5.5715   -0.6788 C.ar    1  LIG1        0.0321
     23 C          -4.2104   -5.9531   -0.2510 C.ar    1  LIG1        0.0767
     24 N          -3.5064   -4.7922    0.0347 N.ar    1  LIG1       -0.3510
     25 H          -2.7058   -4.7821    0.6477 H       1  LIG1        0.1660
     26 H          -6.3572   -3.5364   -0.9398 H       1  LIG1        0.0650
     27 S          -6.7759   -6.5899   -1.2761 S.3     1  LIG1       -0.1405
     28 H          -6.0673   -7.7320   -1.3008 H       1  LIG1        0.1072
     29 C          -3.5933   -7.2611   -0.1242 C.ar    1  LIG1        0.0650
     30 C          -4.0507   -8.4385    0.4240 C.ar    1  LIG1       -0.0218
     31 C          -3.0235   -9.4111    0.2710 C.ar    1  LIG1        0.0227
     32 C          -1.9644   -8.7974   -0.3530 C.ar    1  LIG1        0.0154
     33 N          -2.3118   -7.4968   -0.5809 N.ar    1  LIG1       -0.3585
     34 H          -1.7788   -6.8395   -1.1267 H       1  LIG1        0.1654
     35 H          -1.0028   -9.1931   -0.6408 H       1  LIG1        0.0818
     36 H          -4.9977   -8.5794    0.9232 H       1  LIG1        0.0650
     37 S          -3.0210  -11.0764    0.8721 S.3     1  LIG1       -0.1412
     38 H          -3.7574  -11.6355   -0.1065 H       1  LIG1        0.1072
@<TRIPOS>BOND
     1    28    27    1
     2    27    22    1
     3    10     9    1
     4    34    33    1
     5    26    21    1
     6     9     3    1
     7    22    21   ar
     8    22    23   ar
     9    35    32    1
    10    16    15    1
    11    21    20   ar
    12    33    32   ar
    13    33    29   ar
    14     8     2    1
    15    32    31   ar
    16     3     2   ar
    17     3     4   ar
    18    23    29    1
    19    23    24   ar
    20     2     1   ar
    21    20    24   ar
    22    20    14    1
    23    29    30   ar
    24    38    37    1
    25    15    14   ar
    26    15    11   ar
    27    24    25    1
    28    14    13   ar
    29     4    11    1
    30     4     5   ar
    31     1     7    1
    32     1     5   ar
    33    11    12   ar
    34    31    30   ar
    35    31    37    1
    36    30    36    1
    37     5     6    1
    38    13    12   ar
    39    13    18    1
    40    12    17    1
    41    18    19    1
