@<TRIPOS>MOLECULE
mol_data/opt/cam/geoms/mol2/13ag13ag13ag13ag-.out
 38 41 0 0 0
SMALL
GASTEIGER

@<TRIPOS>ATOM
      1 C           1.2544    0.0006    0.2304 C.ar    1  LIG1        0.0033
      2 C           0.8243    1.2002   -0.2709 C.ar    1  LIG1       -0.0305
      3 C          -0.5948    1.1491   -0.3359 C.ar    1  LIG1        0.0315
      4 C          -0.9921   -0.0886    0.1307 C.ar    1  LIG1        0.0762
      5 N           0.1580   -0.7859    0.4486 N.ar    1  LIG1       -0.3586
      6 H           0.1600   -1.6542    0.9577 H       1  LIG1        0.1654
      7 H           2.2510   -0.3550    0.4420 H       1  LIG1        0.0807
      8 H           1.4483    2.0259   -0.5783 H       1  LIG1        0.0644
      9 S          -1.6023    2.4683   -0.9425 S.3     1  LIG1       -0.1405
     10 H          -2.6866    1.7195   -1.2101 H       1  LIG1        0.1072
     11 C          -2.3023   -0.6963    0.2571 C.ar    1  LIG1        0.0655
     12 C          -3.5104   -0.1816    0.6667 C.ar    1  LIG1       -0.0211
     13 C          -4.4766   -1.2205    0.5805 C.ar    1  LIG1        0.0321
     14 C          -3.8385   -2.3529    0.1182 C.ar    1  LIG1        0.0767
     15 N          -2.5001   -2.0292   -0.0381 N.ar    1  LIG1       -0.3510
     16 H          -1.8811   -2.5531   -0.6374 H       1  LIG1        0.1660
     17 H          -3.6745    0.8148    1.0487 H       1  LIG1        0.0650
     18 S          -6.1694   -1.0230    1.0454 S.3     1  LIG1       -0.1405
     19 H          -6.4112   -2.3224    1.2934 H       1  LIG1        0.1072
     20 C          -4.3197   -3.6934   -0.1399 C.ar    1  LIG1        0.0655
     21 C          -5.5329   -4.1523   -0.6018 C.ar    1  LIG1       -0.0211
     22 C          -5.4668   -5.5713   -0.6533 C.ar    1  LIG1        0.0321
     23 C          -4.2147   -5.9522   -0.2229 C.ar    1  LIG1        0.0767
     24 N          -3.5084   -4.7906    0.0543 N.ar    1  LIG1       -0.3510
     25 H          -2.7077   -4.7775    0.6672 H       1  LIG1        0.1660
     26 H          -6.3569   -3.5364   -0.9291 H       1  LIG1        0.0650
     27 S          -6.7816   -6.5915   -1.2431 S.3     1  LIG1       -0.1405
     28 H          -6.0751   -7.7351   -1.2595 H       1  LIG1        0.1072
     29 C          -3.6001   -7.2604   -0.0866 C.ar    1  LIG1        0.0650
     30 C          -4.0597   -8.4329    0.4702 C.ar    1  LIG1       -0.0218
     31 C          -3.0343   -9.4086    0.3242 C.ar    1  LIG1        0.0227
     32 C          -1.9742   -8.8014   -0.3044 C.ar    1  LIG1        0.0154
     33 N          -2.3191   -7.5019   -0.5417 N.ar    1  LIG1       -0.3585
     34 H          -1.7849   -6.8496   -1.0923 H       1  LIG1        0.1654
     35 H          -1.0134   -9.2011   -0.5893 H       1  LIG1        0.0818
     36 H          -5.0070   -8.5683    0.9705 H       1  LIG1        0.0650
     37 S          -3.0351  -11.0694    0.9374 S.3     1  LIG1       -0.1412
     38 H          -3.7726  -11.6342   -0.0371 H       1  LIG1        0.1072
@<TRIPOS>BOND
     1    28    27    1
     2    27    22    1
     3    10     9    1
     4    34    33    1
     5     9     3    1
     6    26    21    1
     7    22    21   ar
     8    22    23   ar
     9    16    15    1
    10    21    20   ar
    11    35    32    1
    12     8     2    1
    13    33    32   ar
    14    33    29   ar
    15     3     2   ar
    16     3     4   ar
    17    32    31   ar
    18     2     1   ar
    19    23    29    1
    20    23    24   ar
    21    20    24   ar
    22    20    14    1
    23    29    30   ar
    24    15    14   ar
    25    15    11   ar
    26    38    37    1
    27    24    25    1
    28    14    13   ar
    29     4    11    1
    30     4     5   ar
    31     1     7    1
    32     1     5   ar
    33    11    12   ar
    34    31    30   ar
    35    31    37    1
    36     5     6    1
    37    30    36    1
    38    13    12   ar
    39    13    18    1
    40    12    17    1
    41    18    19    1
