@<TRIPOS>MOLECULE
mol_data/opt/cam/geoms/mol2/13ag13ag-.out
 20 21 0 0 0
SMALL
GASTEIGER

@<TRIPOS>ATOM
      1 C           1.2246   -0.2316   -0.3125 C.ar    1  LIG1        0.0033
      2 C           0.8005    0.9985    0.1158 C.ar    1  LIG1       -0.0305
      3 C          -0.6120    0.9313    0.2628 C.ar    1  LIG1        0.0315
      4 C          -1.0111   -0.3436   -0.0828 C.ar    1  LIG1        0.0762
      5 N           0.1329   -1.0465   -0.4125 N.ar    1  LIG1       -0.3586
      6 H           0.1253   -1.9554   -0.8453 H       1  LIG1        0.1654
      7 H           2.2150   -0.5886   -0.5492 H       1  LIG1        0.0807
      8 H           1.4257    1.8549    0.3195 H       1  LIG1        0.0644
      9 S          -1.6114    2.2731    0.8323 S.3     1  LIG1       -0.1405
     10 H          -2.7349    1.5537    0.9986 H       1  LIG1        0.1072
     11 C          -2.3207   -0.9743   -0.0924 C.ar    1  LIG1        0.0650
     12 C          -3.5320   -0.5607   -0.5984 C.ar    1  LIG1       -0.0218
     13 C          -4.4850   -1.5803   -0.3200 C.ar    1  LIG1        0.0227
     14 C          -3.8263   -2.5924    0.3352 C.ar    1  LIG1        0.0154
     15 N          -2.5183   -2.2227    0.4632 N.ar    1  LIG1       -0.3585
     16 H          -1.8247   -2.7162    1.0017 H       1  LIG1        0.1654
     17 H          -4.1952   -3.5352    0.7082 H       1  LIG1        0.0818
     18 H          -3.7103    0.3518   -1.1476 H       1  LIG1        0.0650
     19 S          -6.1836   -1.6295   -0.8171 S.3     1  LIG1       -0.1412
     20 H          -6.6913   -0.8424    0.1501 H       1  LIG1        0.1072
@<TRIPOS>BOND
     1    18    12    1
     2     6     5    1
     3    19    13    1
     4    19    20    1
     5    12    13   ar
     6    12    11   ar
     7     7     1    1
     8     5     1   ar
     9     5     4   ar
    10    13    14   ar
    11     1     2   ar
    12    11     4    1
    13    11    15   ar
    14     4     3   ar
    15     2     3   ar
    16     2     8    1
    17     3     9    1
    18    14    15   ar
    19    14    17    1
    20    15    16    1
    21     9    10    1
