@<TRIPOS>MOLECULE
mol_data/opt/cam/geoms/mol2/13ag13ag-13ag.out
 29 31 0 0 0
SMALL
GASTEIGER

@<TRIPOS>ATOM
      1 C           1.1831    0.0050   -0.8286 C.ar    1  LIG1        0.0033
      2 C           0.9207    0.9998    0.0756 C.ar    1  LIG1       -0.0305
      3 C          -0.4429    0.8750    0.4580 C.ar    1  LIG1        0.0315
      4 C          -0.9755   -0.1976   -0.2277 C.ar    1  LIG1        0.0762
      5 N           0.0442   -0.7305   -0.9950 N.ar    1  LIG1       -0.3586
      6 H          -0.0992   -1.4193   -1.7153 H       1  LIG1        0.1654
      7 H           2.0896   -0.2364   -1.3619 H       1  LIG1        0.0807
      8 H           1.6241    1.7327    0.4414 H       1  LIG1        0.0644
      9 S          -1.2350    1.9194    1.6433 S.3     1  LIG1       -0.1405
     10 H          -2.3620    1.1936    1.7452 H       1  LIG1        0.1072
     11 C          -2.3005   -0.7930   -0.2022 C.ar    1  LIG1        0.0655
     12 C          -3.5548   -0.2268   -0.2903 C.ar    1  LIG1       -0.0211
     13 C          -4.5085   -1.2746   -0.2192 C.ar    1  LIG1        0.0321
     14 C          -3.8203   -2.4653   -0.0943 C.ar    1  LIG1        0.0767
     15 N          -2.4761   -2.1488   -0.0791 N.ar    1  LIG1       -0.3510
     16 H          -1.7297   -2.8189    0.0104 H       1  LIG1        0.1660
     17 H          -3.7604    0.8250   -0.4232 H       1  LIG1        0.0650
     18 S          -6.2564   -1.0242   -0.2774 S.3     1  LIG1       -0.1405
     19 H          -6.5903   -2.2852    0.0476 H       1  LIG1        0.1072
     20 C          -4.2863   -3.8351    0.0469 C.ar    1  LIG1        0.0650
     21 C          -5.1986   -4.5669   -0.6787 C.ar    1  LIG1       -0.0218
     22 C          -5.2730   -5.8625   -0.0951 C.ar    1  LIG1        0.0227
     23 C          -4.3950   -5.8888    0.9615 C.ar    1  LIG1        0.0154
     24 N          -3.7966   -4.6644    1.0371 N.ar    1  LIG1       -0.3585
     25 H          -3.1973   -4.3582    1.7868 H       1  LIG1        0.1654
     26 H          -4.1592   -6.6856    1.6497 H       1  LIG1        0.0818
     27 H          -5.7251   -4.2281   -1.5584 H       1  LIG1        0.0650
     28 S          -6.2141   -7.2483   -0.6680 S.3     1  LIG1       -0.1412
     29 H          -7.4077   -6.8961   -0.1543 H       1  LIG1        0.1072
@<TRIPOS>BOND
     1     6     5    1
     2    27    21    1
     3     7     1    1
     4     5     1   ar
     5     5     4   ar
     6     1     2   ar
     7    21    22   ar
     8    21    20   ar
     9    28    29    1
    10    28    22    1
    11    17    12    1
    12    12    13   ar
    13    12    11   ar
    14    18    13    1
    15    18    19    1
    16     4    11    1
    17     4     3   ar
    18    13    14   ar
    19    11    15   ar
    20    22    23   ar
    21    14    15   ar
    22    14    20    1
    23    15    16    1
    24    20    24   ar
    25     2     8    1
    26     2     3   ar
    27     3     9    1
    28    23    24   ar
    29    23    26    1
    30    24    25    1
    31     9    10    1
