@<TRIPOS>MOLECULE
mol_data/opt/cam/geoms/mol2/13ag13ag13ag-.out
 29 31 0 0 0
SMALL
GASTEIGER

@<TRIPOS>ATOM
      1 C           1.2176   -0.1439    0.0758 C.ar    1  LIG1        0.0033
      2 C           0.7823    1.1013   -0.2832 C.ar    1  LIG1       -0.0305
      3 C          -0.6405    1.0746   -0.2825 C.ar    1  LIG1        0.0315
      4 C          -1.0358   -0.1996    0.0890 C.ar    1  LIG1        0.0762
      5 N           0.1124   -0.9288    0.2879 N.ar    1  LIG1       -0.3586
      6 H           0.1257   -1.8466    0.7017 H       1  LIG1        0.1654
      7 H           2.2146   -0.5371    0.2011 H       1  LIG1        0.0807
      8 H           1.3972    1.9539   -0.5289 H       1  LIG1        0.0644
      9 S          -1.7019    2.4438   -0.6431 S.3     1  LIG1       -0.1405
     10 H          -1.7543    2.3054   -1.9816 H       1  LIG1        0.1072
     11 C          -2.3382   -0.8193    0.2470 C.ar    1  LIG1        0.0655
     12 C          -3.5438   -0.3204    0.6739 C.ar    1  LIG1       -0.0211
     13 C          -4.4896   -1.3808    0.6312 C.ar    1  LIG1        0.0321
     14 C          -3.8411   -2.5088    0.1786 C.ar    1  LIG1        0.0767
     15 N          -2.5105   -2.1653   -0.0147 N.ar    1  LIG1       -0.3510
     16 H          -1.9176   -2.6739   -0.6534 H       1  LIG1        0.1660
     17 H          -3.7216    0.6885    1.0118 H       1  LIG1        0.0650
     18 S          -6.1702   -1.2140    1.1472 S.3     1  LIG1       -0.1405
     19 H          -6.4491   -2.5292    1.1499 H       1  LIG1        0.1072
     20 C          -4.3073   -3.8646   -0.0458 C.ar    1  LIG1        0.0650
     21 C          -5.4492   -4.3548   -0.6394 C.ar    1  LIG1       -0.0218
     22 C          -5.3867   -5.7752   -0.5823 C.ar    1  LIG1        0.0227
     23 C          -4.2045   -6.1121    0.0311 C.ar    1  LIG1        0.0154
     24 N          -3.5535   -4.9534    0.3444 N.ar    1  LIG1       -0.3585
     25 H          -2.7176   -4.8878    0.9020 H       1  LIG1        0.1654
     26 H          -3.7901   -7.0822    0.2571 H       1  LIG1        0.0818
     27 H          -6.2234   -3.7653   -1.1072 H       1  LIG1        0.0650
     28 S          -6.5359   -6.9316   -1.2726 S.3     1  LIG1       -0.1412
     29 H          -7.4712   -6.8740   -0.3060 H       1  LIG1        0.1072
@<TRIPOS>BOND
     1    10     9    1
     2    28    22    1
     3    28    29    1
     4    27    21    1
     5    16    15    1
     6     9     3    1
     7    21    22   ar
     8    21    20   ar
     9    22    23   ar
    10     8     2    1
    11     2     3   ar
    12     2     1   ar
    13     3     4   ar
    14    20    14    1
    15    20    24   ar
    16    15    14   ar
    17    15    11   ar
    18    23    26    1
    19    23    24   ar
    20     1     7    1
    21     1     5   ar
    22     4    11    1
    23     4     5   ar
    24    14    13   ar
    25    11    12   ar
    26     5     6    1
    27    24    25    1
    28    13    12   ar
    29    13    18    1
    30    12    17    1
    31    18    19    1
