@<TRIPOS>MOLECULE
mol_data/opt/cam/geoms/mol2/13ag13ag13ag13ag.out
 38 41 0 0 0
SMALL
GASTEIGER

@<TRIPOS>ATOM
      1 C           1.1933   -0.0387    0.1780 C.ar    1  LIG1        0.0033
      2 C           0.7697    1.2071   -0.1928 C.ar    1  LIG1       -0.0305
      3 C          -0.6530    1.1851   -0.2217 C.ar    1  LIG1        0.0315
      4 C          -1.0599   -0.0867    0.1448 C.ar    1  LIG1        0.0762
      5 N           0.0815   -0.8202    0.3681 N.ar    1  LIG1       -0.3586
      6 H           0.0826   -1.7325    0.7943 H       1  LIG1        0.1654
      7 H           2.1863   -0.4341    0.3262 H       1  LIG1        0.0807
      8 H           1.3925    2.0570   -0.4276 H       1  LIG1        0.0644
      9 S          -1.7042    2.5553   -0.6075 S.3     1  LIG1       -0.1405
     10 H          -1.7138    2.4237   -1.9477 H       1  LIG1        0.1072
     11 C          -2.3679   -0.6998    0.2785 C.ar    1  LIG1        0.0655
     12 C          -3.5725   -0.2039    0.7116 C.ar    1  LIG1       -0.0211
     13 C          -4.5256   -1.2550    0.6372 C.ar    1  LIG1        0.0321
     14 C          -3.8818   -2.3770    0.1579 C.ar    1  LIG1        0.0767
     15 N          -2.5489   -2.0384   -0.0156 N.ar    1  LIG1       -0.3510
     16 H          -1.9487   -2.5409   -0.6516 H       1  LIG1        0.1660
     17 H          -3.7463    0.7960    1.0768 H       1  LIG1        0.0650
     18 S          -6.2128   -1.0815    1.1313 S.3     1  LIG1       -0.1405
     19 H          -6.4339   -2.3852    1.3759 H       1  LIG1        0.1072
     20 C          -4.3514   -3.7206   -0.1040 C.ar    1  LIG1        0.0655
     21 C          -5.5662   -4.1904   -0.5508 C.ar    1  LIG1       -0.0211
     22 C          -5.4843   -5.6081   -0.6139 C.ar    1  LIG1        0.0321
     23 C          -4.2215   -5.9775   -0.2053 C.ar    1  LIG1        0.0767
     24 N          -3.5244   -4.8098    0.0693 N.ar    1  LIG1       -0.3510
     25 H          -2.7160   -4.7908    0.6719 H       1  LIG1        0.1660
     26 H          -6.4022   -3.5816   -0.8602 H       1  LIG1        0.0650
     27 S          -6.7960   -6.6392   -1.1918 S.3     1  LIG1       -0.1405
     28 H          -6.0769   -7.7744   -1.2278 H       1  LIG1        0.1072
     29 C          -3.5902   -7.2796   -0.0875 C.ar    1  LIG1        0.0650
     30 C          -4.0288   -8.4617    0.4659 C.ar    1  LIG1       -0.0218
     31 C          -2.9942   -9.4242    0.2985 C.ar    1  LIG1        0.0227
     32 C          -1.9495   -8.7999   -0.3389 C.ar    1  LIG1        0.0154
     33 N          -2.3126   -7.5025   -0.5610 N.ar    1  LIG1       -0.3585
     34 H          -1.7935   -6.8396   -1.1134 H       1  LIG1        0.1654
     35 H          -0.9880   -9.1861   -0.6395 H       1  LIG1        0.0818
     36 H          -4.9677   -8.6120    0.9776 H       1  LIG1        0.0650
     37 S          -2.9675  -11.0897    0.8983 S.3     1  LIG1       -0.1412
     38 H          -3.7139  -11.6549   -0.0691 H       1  LIG1        0.1072
@<TRIPOS>BOND
     1    10     9    1
     2    28    27    1
     3    27    22    1
     4    34    33    1
     5    26    21    1
     6    16    15    1
     7    35    32    1
     8    22    21   ar
     9    22    23   ar
    10     9     3    1
    11    33    32   ar
    12    33    29   ar
    13    21    20   ar
    14     8     2    1
    15    32    31   ar
    16     3     2   ar
    17     3     4   ar
    18    23    29    1
    19    23    24   ar
    20     2     1   ar
    21    20    24   ar
    22    20    14    1
    23    29    30   ar
    24    38    37    1
    25    15    14   ar
    26    15    11   ar
    27    24    25    1
    28     4    11    1
    29     4     5   ar
    30    14    13   ar
    31     1     7    1
    32     1     5   ar
    33    11    12   ar
    34    31    30   ar
    35    31    37    1
    36     5     6    1
    37    30    36    1
    38    13    12   ar
    39    13    18    1
    40    12    17    1
    41    18    19    1
