@<TRIPOS>MOLECULE
mol_data/opt/cam/geoms/mol2/13ah6hf6hh6he-.out
 50 53 0 0 0
SMALL
GASTEIGER

@<TRIPOS>ATOM
      1 C           1.3747   -0.0359    0.3827 C.ar    1  LIG1        0.0040
      2 C           0.9225    1.2495    0.1990 C.ar    1  LIG1       -0.0231
      3 C          -0.4789    1.1791   -0.0054 C.ar    1  LIG1        0.0503
      4 C          -0.8462   -0.1588    0.0540 C.ar    1  LIG1        0.0708
      5 N           0.3184   -0.8800    0.2805 N.ar    1  LIG1       -0.3591
      6 H           0.3249   -1.8795    0.4155 H       1  LIG1        0.1654
      7 H           2.3726   -0.4044    0.5655 H       1  LIG1        0.0807
      8 H           1.5246    2.1467    0.2081 H       1  LIG1        0.0651
      9 N          -1.3366    2.2732   -0.1878 N.pl3   1  LIG1       -0.3563
     10 H          -0.8455    3.0985   -0.5047 H       1  LIG1        0.1424
     11 H          -2.1110    2.0760   -0.8092 H       1  LIG1        0.1424
     12 C          -2.3627   -2.1165   -0.4353 C.ar    1  LIG1        0.1263
     13 C          -2.1626   -0.7807   -0.0062 C.ar    1  LIG1        0.0431
     14 C          -3.3006   -0.0956    0.4032 C.ar    1  LIG1       -0.0056
     15 C          -4.5509   -0.7045    0.3781 C.ar    1  LIG1        0.1436
     16 C          -4.6520   -2.0254   -0.0639 C.ar    1  LIG1        0.1177
     17 N          -3.5483   -2.6967   -0.4437 N.ar    1  LIG1       -0.2280
     18 H          -3.2235    0.9117    0.7969 H       1  LIG1        0.0662
     19 N          -1.2731   -2.9094   -0.8400 N.pl3   1  LIG1       -0.3426
     20 H          -1.6096   -3.7741   -1.2461 H       1  LIG1        0.1437
     21 H          -0.6584   -2.4266   -1.4864 H       1  LIG1        0.1437
     22 O          -5.6089    0.0335    0.8170 O.3     1  LIG1       -0.5046
     23 H          -6.3515   -0.5579    0.9995 H       1  LIG1        0.2922
     24 C          -6.1059   -4.0883    0.2450 C.ar    1  LIG1        0.1263
     25 C          -5.9525   -2.7322   -0.1390 C.ar    1  LIG1        0.0453
     26 C          -7.0872   -2.0982   -0.6276 C.ar    1  LIG1       -0.0264
     27 C          -8.3318   -2.7295   -0.6828 C.ar    1  LIG1        0.0518
     28 C          -8.3960   -4.0480   -0.2083 C.ar    1  LIG1        0.0970
     29 N          -7.2881   -4.6914    0.1982 N.ar    1  LIG1       -0.2298
     30 H          -7.0046   -1.0808   -1.0014 H       1  LIG1        0.0644
     31 N          -5.0463   -4.8196    0.7256 N.pl3   1  LIG1       -0.3426
     32 H          -5.2312   -5.8062    0.8161 H       1  LIG1        0.1437
     33 H          -4.1424   -4.5520    0.3607 H       1  LIG1        0.1437
     34 N          -9.4453   -2.0285   -1.1684 N.pl3   1  LIG1       -0.3563
     35 H          -9.1960   -1.2797   -1.8004 H       1  LIG1        0.1424
     36 H         -10.1545   -2.6213   -1.5794 H       1  LIG1        0.1424
     37 C          -9.7494   -6.1943   -0.4688 C.ar    1  LIG1        0.1255
     38 C          -9.6726   -4.8073   -0.1494 C.ar    1  LIG1        0.0429
     39 C         -10.8484   -4.1970    0.2592 C.ar    1  LIG1       -0.0323
     40 C         -12.0550   -4.9063    0.3082 C.ar    1  LIG1        0.0435
     41 C         -12.0105   -6.2472   -0.0732 C.ar    1  LIG1        0.0451
     42 N         -10.9029   -6.8740   -0.4408 N.ar    1  LIG1       -0.2388
     43 H         -10.8382   -3.1518    0.5471 H       1  LIG1        0.0638
     44 H         -12.9226   -6.8394   -0.0681 H       1  LIG1        0.0843
     45 N          -8.6513   -6.8977   -0.8594 N.pl3   1  LIG1       -0.3426
     46 H          -8.7910   -7.8954   -0.8981 H       1  LIG1        0.1437
     47 H          -7.7659   -6.5402   -0.5248 H       1  LIG1        0.1437
     48 C         -13.2754   -4.2919    0.7240 C.1     1  LIG1       -0.0681
     49 C         -14.3066   -3.7758    1.0721 C.1     1  LIG1       -0.1139
     50 H         -15.2183   -3.3210    1.3832 H       1  LIG1        0.1232
@<TRIPOS>BOND
     1    35    34    1
     2    36    34    1
     3    21    19    1
     4    20    19    1
     5    34    27    1
     6    30    26    1
     7    46    45    1
     8    45    47    1
     9    45    37    1
    10    19    12    1
    11    11     9    1
    12    27    26   ar
    13    27    28   ar
    14    26    25   ar
    15    10     9    1
    16    37    42   ar
    17    37    38   ar
    18    17    12   ar
    19    17    16   ar
    20    42    41   ar
    21    12    13   ar
    22    28    38    1
    23    28    29   ar
    24     9     3    1
    25    38    39   ar
    26    25    16    1
    27    25    24   ar
    28    41    44    1
    29    41    40   ar
    30    16    15   ar
    31    13     4    1
    32    13    14   ar
    33     3     4   ar
    34     3     2   ar
    35     4     5   ar
    36    29    24   ar
    37     2     8    1
    38     2     1   ar
    39    24    31    1
    40    39    40   ar
    41    39    43    1
    42     5     1   ar
    43     5     6    1
    44    40    48    1
    45    33    31    1
    46    15    14   ar
    47    15    22    1
    48     1     7    1
    49    14    18    1
    50    48    49    3
    51    31    32    1
    52    22    23    1
    53    49    50    1
