@<TRIPOS>MOLECULE
mol_data/opt/cam/geoms/mol2/13ah4lh12fd-4fe-.out
 50 53 0 0 0
SMALL
GASTEIGER

@<TRIPOS>ATOM
      1 C           0.7617    1.4100    0.9356 C.ar    1  LIG1        0.0040
      2 C           1.2586    0.7729   -0.1765 C.ar    1  LIG1       -0.0231
      3 C           0.2417   -0.0907   -0.6583 C.ar    1  LIG1        0.0503
      4 C          -0.8543    0.0391    0.1874 C.ar    1  LIG1        0.0710
      5 N          -0.5062    0.9784    1.1434 N.ar    1  LIG1       -0.3591
      6 H          -1.1665    1.3149    1.8265 H       1  LIG1        0.1654
      7 H           1.2179    2.1449    1.5814 H       1  LIG1        0.0807
      8 H           2.2328    0.9181   -0.6199 H       1  LIG1        0.0651
      9 N           0.3399   -0.8384   -1.8436 N.pl3   1  LIG1       -0.3563
     10 H           1.1634   -1.4236   -1.8883 H       1  LIG1        0.1424
     11 H          -0.4892   -1.3718   -2.0574 H       1  LIG1        0.1424
     12 C          -3.2991   -0.0239    0.7541 C.ar    1  LIG1        0.1300
     13 C          -4.5071   -0.6855    0.7817 C.ar    1  LIG1       -0.0067
     14 C          -2.1511   -0.6329    0.2150 C.ar    1  LIG1        0.0435
     15 C          -4.6602   -1.9859    0.2793 C.ar    1  LIG1        0.0451
     16 H          -5.3570   -0.1729    1.2142 H       1  LIG1        0.0662
     17 C          -2.3033   -1.9348   -0.2639 C.ar    1  LIG1       -0.0277
     18 C          -3.5193   -2.6252   -0.2594 C.ar    1  LIG1        0.0363
     19 H          -1.4256   -2.4682   -0.6143 H       1  LIG1        0.0644
     20 O          -3.2325    1.2495    1.3010 O.3     1  LIG1       -0.4944
     21 C          -3.4395    2.2865    0.3491 C.3     1  LIG1        0.0788
     22 H          -3.3858    3.2314    0.8923 H       1  LIG1        0.0660
     23 H          -2.6691    2.2694   -0.4295 H       1  LIG1        0.0660
     24 H          -4.4262    2.1928   -0.1175 H       1  LIG1        0.0660
     25 N          -3.5332   -3.9360   -0.7203 N.pl3   1  LIG1       -0.3574
     26 H          -4.4188   -4.2982   -1.0322 H       1  LIG1        0.1423
     27 H          -2.7615   -4.1792   -1.3217 H       1  LIG1        0.1423
     28 C          -5.9783   -2.5956    0.3580 C.ar    1  LIG1        0.1801
     29 C          -7.2001   -2.1438    0.7732 C.ar    1  LIG1        0.1811
     30 C          -8.1364   -3.2177    0.6179 C.ar    1  LIG1        0.1395
     31 C          -7.4330   -4.2843    0.1099 C.ar    1  LIG1        0.1602
     32 O          -6.1476   -3.9015   -0.0452 O.2     1  LIG1       -0.4495
     33 O          -7.4846   -0.9112    1.2478 O.3     1  LIG1       -0.5023
     34 H          -8.4150   -0.8770    1.5104 H       1  LIG1        0.2923
     35 N         -10.5310   -2.8023    1.4506 N.1     1  LIG1       -0.1906
     36 C          -9.4826   -3.0750    1.0406 C.1     1  LIG1        0.1067
     37 C          -9.0021   -6.1046   -0.5879 C.ar    1  LIG1        0.1276
     38 C          -9.2326   -7.4426   -0.8935 C.ar    1  LIG1       -0.0183
     39 C          -7.7164   -5.6737   -0.2242 C.ar    1  LIG1        0.0612
     40 C          -8.1958   -8.3584   -0.8580 C.ar    1  LIG1       -0.0428
     41 H         -10.2330   -7.7606   -1.1730 H       1  LIG1        0.0655
     42 C          -6.6804   -6.6096   -0.2016 C.ar    1  LIG1       -0.0321
     43 C          -6.9011   -7.9504   -0.5169 C.ar    1  LIG1        0.0256
     44 H          -5.6855   -6.2859    0.0804 H       1  LIG1        0.0638
     45 H          -8.3814   -9.3987   -1.0987 H       1  LIG1        0.0631
     46 O          -9.9751   -5.1678   -0.6467 O.3     1  LIG1       -0.5061
     47 H         -10.8352   -5.5750   -0.8032 H       1  LIG1        0.2922
     48 C          -5.8241   -8.8927   -0.4821 C.1     1  LIG1       -0.0696
     49 C          -4.9210   -9.6881   -0.4560 C.1     1  LIG1       -0.1139
     50 H          -4.1203  -10.3907   -0.4279 H       1  LIG1        0.1232
@<TRIPOS>BOND
     1    11     9    1
     2    10     9    1
     3     9     3    1
     4    27    25    1
     5    41    38    1
     6    45    40    1
     7    26    25    1
     8    38    40   ar
     9    38    37   ar
    10    40    43   ar
    11    47    46    1
    12    25    18    1
    13     3     2   ar
    14     3     4   ar
    15    46    37    1
    16     8     2    1
    17    19    17    1
    18    37    39   ar
    19    43    48    1
    20    43    42   ar
    21    48    49    3
    22    49    50    1
    23    23    21    1
    24    17    18   ar
    25    17    14   ar
    26    18    15   ar
    27    39    42   ar
    28    39    31    1
    29    42    44    1
    30     2     1   ar
    31    24    21    1
    32    32    31   ar
    33    32    28   ar
    34    31    30   ar
    35     4    14    1
    36     4     5   ar
    37    14    12   ar
    38    15    28    1
    39    15    13   ar
    40    21    22    1
    41    21    20    1
    42    28    29   ar
    43    30    29   ar
    44    30    36    1
    45    12    13   ar
    46    12    20    1
    47    29    33    1
    48    13    16    1
    49     1     5   ar
    50     1     7    1
    51    36    35    3
    52     5     6    1
    53    33    34    1
