@<TRIPOS>MOLECULE
mol_data/opt/cam/geoms/mol2/13ah13ah-.out
 22 23 0 0 0
SMALL
GASTEIGER

@<TRIPOS>ATOM
      1 C           1.2144   -0.2767   -0.0176 C.ar    1  LIG1        0.0040
      2 C           0.7812    1.0203   -0.1003 C.ar    1  LIG1       -0.0230
      3 C          -0.6414    0.9881   -0.1222 C.ar    1  LIG1        0.0516
      4 C          -1.0338   -0.3359   -0.0523 C.ar    1  LIG1        0.0838
      5 N           0.1100   -1.0881    0.0101 N.ar    1  LIG1       -0.3580
      6 H           0.1256   -2.0916    0.0762 H       1  LIG1        0.1654
      7 H           2.2109   -0.6881    0.0238 H       1  LIG1        0.0807
      8 H           1.4075    1.9005   -0.1408 H       1  LIG1        0.0651
      9 N          -1.5679    2.0787   -0.1992 N.pl3   1  LIG1       -0.3563
     10 H          -1.4430    2.7129    0.5845 H       1  LIG1        0.1424
     11 H          -1.4153    2.6222   -1.0438 H       1  LIG1        0.1424
     12 C          -2.3606   -0.9156   -0.0408 C.ar    1  LIG1        0.0665
     13 C          -2.8003   -2.2264    0.0186 C.ar    1  LIG1       -0.0142
     14 C          -4.2195   -2.1963   -0.0045 C.ar    1  LIG1        0.0427
     15 C          -4.5988   -0.8741   -0.0778 C.ar    1  LIG1        0.0230
     16 N          -3.4575   -0.1101   -0.0914 N.ar    1  LIG1       -0.3578
     17 H          -3.3587    0.8973   -0.1461 H       1  LIG1        0.1654
     18 H          -5.5806   -0.4277   -0.1099 H       1  LIG1        0.0826
     19 H          -2.1869   -3.1148    0.0850 H       1  LIG1        0.0658
     20 N          -5.0603   -3.3217    0.1012 N.pl3   1  LIG1       -0.3568
     21 H          -6.0113   -3.1160   -0.1768 H       1  LIG1        0.1424
     22 H          -4.7219   -4.1014   -0.4485 H       1  LIG1        0.1424
@<TRIPOS>BOND
     1    11     9    1
     2    22    20    1
     3     9     3    1
     4     9    10    1
     5    21    20    1
     6    17    16    1
     7     8     2    1
     8     3     2   ar
     9     3     4   ar
    10    18    15    1
    11     2     1   ar
    12    16    15   ar
    13    16    12   ar
    14    15    14   ar
    15     4    12    1
    16     4     5   ar
    17    12    13   ar
    18     1     5   ar
    19     1     7    1
    20    14    13   ar
    21    14    20    1
    22     5     6    1
    23    13    19    1
