@<TRIPOS>MOLECULE
mol_data/opt/cam/geoms/mol2/13ah13ah-13ah-13ah-.out
 42 45 0 0 0
SMALL
GASTEIGER

@<TRIPOS>ATOM
      1 C           1.3971   -0.4095    0.0047 C.ar    1  LIG1        0.0040
      2 C           0.9882    0.8200    0.4502 C.ar    1  LIG1       -0.0230
      3 C          -0.4344    0.8122    0.4587 C.ar    1  LIG1        0.0516
      4 C          -0.8514   -0.4300    0.0152 C.ar    1  LIG1        0.0839
      5 N           0.2786   -1.1576   -0.2543 N.ar    1  LIG1       -0.3580
      6 H           0.2770   -2.1039   -0.5950 H       1  LIG1        0.1654
      7 H           2.3862   -0.8123   -0.1487 H       1  LIG1        0.0807
      8 H           1.6309    1.6389    0.7411 H       1  LIG1        0.0651
      9 N          -1.3409    1.8506    0.8511 N.pl3   1  LIG1       -0.3563
     10 H          -1.2185    2.0831    1.8328 H       1  LIG1        0.1424
     11 H          -1.1636    2.7012    0.3249 H       1  LIG1        0.1424
     12 C          -2.1890   -0.9525   -0.1563 C.ar    1  LIG1        0.0670
     13 C          -2.6601   -2.2046   -0.5136 C.ar    1  LIG1       -0.0135
     14 C          -4.0751   -2.1485   -0.4780 C.ar    1  LIG1        0.0523
     15 C          -4.4339   -0.8645   -0.0986 C.ar    1  LIG1        0.0843
     16 N          -3.2652   -0.1510    0.0806 N.ar    1  LIG1       -0.3504
     17 H          -3.1356    0.7773    0.4704 H       1  LIG1        0.1660
     18 H          -2.0659   -3.0723   -0.7660 H       1  LIG1        0.0658
     19 N          -4.9598   -3.2020   -0.7496 N.pl3   1  LIG1       -0.3563
     20 H          -5.8791   -2.8623   -1.0084 H       1  LIG1        0.1424
     21 H          -4.6101   -3.8262   -1.4650 H       1  LIG1        0.1424
     22 C          -5.7486   -0.2833    0.0435 C.ar    1  LIG1        0.0670
     23 C          -6.9447   -0.8585    0.4380 C.ar    1  LIG1       -0.0135
     24 C          -7.9422    0.1512    0.4078 C.ar    1  LIG1        0.0523
     25 C          -7.3401    1.3243   -0.0047 C.ar    1  LIG1        0.0843
     26 N          -6.0006    1.0344   -0.2295 N.ar    1  LIG1       -0.3504
     27 H          -5.3059    1.7114   -0.4959 H       1  LIG1        0.1660
     28 H          -7.0650   -1.8762    0.7808 H       1  LIG1        0.0658
     29 N          -9.2861    0.0026    0.7744 N.pl3   1  LIG1       -0.3563
     30 H          -9.8671    0.7376    0.3878 H       1  LIG1        0.1424
     31 H          -9.6589   -0.9047    0.5274 H       1  LIG1        0.1424
     32 C          -7.9144    2.6296   -0.2435 C.ar    1  LIG1        0.0665
     33 C          -8.9274    3.2978    0.4147 C.ar    1  LIG1       -0.0142
     34 C          -9.1408    4.5359   -0.2586 C.ar    1  LIG1        0.0427
     35 C          -8.2554    4.5909   -1.3051 C.ar    1  LIG1        0.0230
     36 N          -7.4905    3.4358   -1.2704 N.ar    1  LIG1       -0.3578
     37 H          -6.9378    3.1031   -2.0427 H       1  LIG1        0.1654
     38 H          -8.0780    5.3627   -2.0379 H       1  LIG1        0.0826
     39 H          -9.4014    2.9715    1.3296 H       1  LIG1        0.0658
     40 N         -10.0308    5.5393    0.1585 N.pl3   1  LIG1       -0.3568
     41 H         -10.2704    6.1850   -0.5822 H       1  LIG1        0.1424
     42 H         -10.8778    5.1591    0.5596 H       1  LIG1        0.1424
@<TRIPOS>BOND
     1    37    36    1
     2    38    35    1
     3    21    19    1
     4    35    36   ar
     5    35    34   ar
     6    36    32   ar
     7    20    19    1
     8    18    13    1
     9    19    14    1
    10     6     5    1
    11    41    40    1
    12    13    14   ar
    13    13    12   ar
    14    27    26    1
    15    14    15   ar
    16    34    40    1
    17    34    33   ar
    18     5     1   ar
    19     5     4   ar
    20    32    25    1
    21    32    33   ar
    22    26    25   ar
    23    26    22   ar
    24    12     4    1
    25    12    16   ar
    26     7     1    1
    27    15    22    1
    28    15    16   ar
    29    25    24   ar
    30     1     2   ar
    31     4     3   ar
    32    22    23   ar
    33    16    17    1
    34    40    42    1
    35    11     9    1
    36    30    29    1
    37    24    23   ar
    38    24    29    1
    39    33    39    1
    40    23    28    1
    41     2     3   ar
    42     2     8    1
    43     3     9    1
    44    31    29    1
    45     9    10    1
