@<TRIPOS>MOLECULE
mol_data/opt/cam/geoms/mol2/13ah13ah-13ah13ah-.out
 42 45 0 0 0
SMALL
GASTEIGER

@<TRIPOS>ATOM
      1 C           1.3336   -0.2763   -0.1082 C.ar    1  LIG1        0.0040
      2 C           0.8971    1.0219   -0.1307 C.ar    1  LIG1       -0.0230
      3 C          -0.5253    0.9878   -0.1218 C.ar    1  LIG1        0.0516
      4 C          -0.9145   -0.3393   -0.0941 C.ar    1  LIG1        0.0839
      5 N           0.2318   -1.0912   -0.0861 N.ar    1  LIG1       -0.3580
      6 H           0.2525   -2.0966   -0.0663 H       1  LIG1        0.1654
      7 H           2.3315   -0.6866   -0.1059 H       1  LIG1        0.0807
      8 H           1.5211    1.9042   -0.1513 H       1  LIG1        0.0651
      9 N          -1.4545    2.0785   -0.1373 N.pl3   1  LIG1       -0.3563
     10 H          -1.3149    2.6825    0.6676 H       1  LIG1        0.1424
     11 H          -1.3216    2.6538   -0.9639 H       1  LIG1        0.1424
     12 C          -2.2402   -0.9176   -0.0754 C.ar    1  LIG1        0.0670
     13 C          -2.6909   -2.2227   -0.0474 C.ar    1  LIG1       -0.0135
     14 C          -4.1090   -2.1749   -0.0411 C.ar    1  LIG1        0.0523
     15 C          -4.4867   -0.8410   -0.0655 C.ar    1  LIG1        0.0843
     16 N          -3.3394   -0.0997   -0.0855 N.ar    1  LIG1       -0.3504
     17 H          -3.2317    0.9096   -0.1067 H       1  LIG1        0.1660
     18 H          -2.0837   -3.1180   -0.0326 H       1  LIG1        0.0658
     19 N          -5.0457   -3.2584   -0.0139 N.pl3   1  LIG1       -0.3563
     20 H          -4.9082   -3.8773   -0.8075 H       1  LIG1        0.1424
     21 H          -4.9274   -3.8202    0.8242 H       1  LIG1        0.1424
     22 C          -5.8081   -0.2558   -0.0701 C.ar    1  LIG1        0.0670
     23 C          -6.2470    1.0536   -0.0846 C.ar    1  LIG1       -0.0135
     24 C          -7.6653    1.0182   -0.0806 C.ar    1  LIG1        0.0523
     25 C          -8.0557   -0.3120   -0.0637 C.ar    1  LIG1        0.0843
     26 N          -6.9155   -1.0637   -0.0578 N.ar    1  LIG1       -0.3504
     27 H          -6.8197   -2.0739   -0.0425 H       1  LIG1        0.1660
     28 H          -5.6267    1.9396   -0.0960 H       1  LIG1        0.0658
     29 N          -8.5923    2.1116   -0.0896 N.pl3   1  LIG1       -0.3563
     30 H          -8.4539    2.7069    0.7221 H       1  LIG1        0.1424
     31 H          -8.4516    2.6958   -0.9089 H       1  LIG1        0.1424
     32 C          -9.3828   -0.8882   -0.0535 C.ar    1  LIG1        0.0665
     33 C          -9.8219   -2.2006   -0.0428 C.ar    1  LIG1       -0.0142
     34 C         -11.2410   -2.1700   -0.0404 C.ar    1  LIG1        0.0427
     35 C         -11.6222   -0.8462   -0.0500 C.ar    1  LIG1        0.0230
     36 N         -10.4810   -0.0814   -0.0507 N.ar    1  LIG1       -0.3578
     37 H         -10.3835    0.9272   -0.0629 H       1  LIG1        0.1654
     38 H         -12.6047   -0.3998   -0.0457 H       1  LIG1        0.0826
     39 H          -9.2030   -3.0870   -0.0259 H       1  LIG1        0.0658
     40 N         -12.0817   -3.2996    0.0294 N.pl3   1  LIG1       -0.3568
     41 H         -13.0325   -3.0834   -0.2417 H       1  LIG1        0.1424
     42 H         -11.7438   -4.0569   -0.5513 H       1  LIG1        0.1424
@<TRIPOS>BOND
     1    11     9    1
     2    31    29    1
     3    20    19    1
     4    42    40    1
     5    41    40    1
     6     8     2    1
     7     9     3    1
     8     9    10    1
     9     2     3   ar
    10     2     1   ar
    11     3     4   ar
    12     1     7    1
    13     1     5   ar
    14    17    16    1
    15    28    23    1
    16     4     5   ar
    17     4    12    1
    18    29    24    1
    19    29    30    1
    20     5     6    1
    21    16    12   ar
    22    16    15   ar
    23    23    24   ar
    24    23    22   ar
    25    24    25   ar
    26    12    13   ar
    27    22    15    1
    28    22    26   ar
    29    15    14   ar
    30    25    26   ar
    31    25    32    1
    32    37    36    1
    33    26    27    1
    34    32    36   ar
    35    32    33   ar
    36    36    35   ar
    37    35    38    1
    38    35    34   ar
    39    13    14   ar
    40    13    18    1
    41    33    34   ar
    42    33    39    1
    43    14    19    1
    44    34    40    1
    45    19    21    1
