@<TRIPOS>MOLECULE
mol_data/opt/cam/geoms/mol2/13ah13ah-13ah-13ah.out
 42 45 0 0 0
SMALL
GASTEIGER

@<TRIPOS>ATOM
      1 C           1.3651   -0.4297   -0.1019 C.ar    1  LIG1        0.0040
      2 C           0.9675    0.7983    0.3577 C.ar    1  LIG1       -0.0230
      3 C          -0.4548    0.7954    0.3884 C.ar    1  LIG1        0.0516
      4 C          -0.8830   -0.4426   -0.0563 C.ar    1  LIG1        0.0839
      5 N           0.2401   -1.1723   -0.3483 N.ar    1  LIG1       -0.3580
      6 H           0.2299   -2.1162   -0.6954 H       1  LIG1        0.1654
      7 H           2.3502   -0.8349   -0.2733 H       1  LIG1        0.0807
      8 H           1.6175    1.6133    0.6431 H       1  LIG1        0.0651
      9 N          -1.3517    1.8346    0.7997 N.pl3   1  LIG1       -0.3563
     10 H          -1.2019    2.0745    1.7757 H       1  LIG1        0.1424
     11 H          -1.1927    2.6818    0.2622 H       1  LIG1        0.1424
     12 C          -2.2250   -0.9594   -0.2099 C.ar    1  LIG1        0.0670
     13 C          -2.7059   -2.2046   -0.5785 C.ar    1  LIG1       -0.0135
     14 C          -4.1198   -2.1450   -0.5188 C.ar    1  LIG1        0.0523
     15 C          -4.4680   -0.8664   -0.1125 C.ar    1  LIG1        0.0843
     16 N          -3.2947   -0.1592    0.0590 N.ar    1  LIG1       -0.3504
     17 H          -3.1575    0.7668    0.4517 H       1  LIG1        0.1660
     18 H          -2.1187   -3.0693   -0.8563 H       1  LIG1        0.0658
     19 N          -5.0143   -3.1908   -0.7921 N.pl3   1  LIG1       -0.3563
     20 H          -5.9310   -2.8401   -1.0470 H       1  LIG1        0.1424
     21 H          -4.6729   -3.8096   -1.5163 H       1  LIG1        0.1424
     22 C          -5.7771   -0.2837    0.0671 C.ar    1  LIG1        0.0670
     23 C          -6.9724   -0.8494    0.4633 C.ar    1  LIG1       -0.0135
     24 C          -7.9572    0.1767    0.4492 C.ar    1  LIG1        0.0523
     25 C          -7.3443    1.3479    0.0492 C.ar    1  LIG1        0.0843
     26 N          -6.0210    1.0511   -0.1709 N.ar    1  LIG1       -0.3504
     27 H          -5.3585    1.6829   -0.5890 H       1  LIG1        0.1660
     28 H          -7.1022   -1.8718    0.7897 H       1  LIG1        0.0658
     29 N          -9.3454    0.0955    0.7951 N.pl3   1  LIG1       -0.3563
     30 H          -9.8116   -0.6135    0.2365 H       1  LIG1        0.1424
     31 H          -9.4570   -0.1795    1.7671 H       1  LIG1        0.1424
     32 C          -7.8941    2.6727   -0.1351 C.ar    1  LIG1        0.0665
     33 C          -7.3183    3.8693   -0.5264 C.ar    1  LIG1       -0.0142
     34 C          -8.3473    4.8473   -0.5410 C.ar    1  LIG1        0.0427
     35 C          -9.5130    4.2200   -0.1602 C.ar    1  LIG1        0.0230
     36 N          -9.2182    2.9018    0.0894 N.ar    1  LIG1       -0.3578
     37 H          -9.8308    2.1518    0.3884 H       1  LIG1        0.1654
     38 H         -10.5116    4.6107   -0.0397 H       1  LIG1        0.0826
     39 H          -6.2766    4.0415   -0.7606 H       1  LIG1        0.0658
     40 N          -8.1670    6.2154   -0.8273 N.pl3   1  LIG1       -0.3568
     41 H          -7.5533    6.3583   -1.6197 H       1  LIG1        0.1424
     42 H          -9.0447    6.6855   -1.0084 H       1  LIG1        0.1424
@<TRIPOS>BOND
     1    41    40    1
     2    21    19    1
     3    20    19    1
     4    42    40    1
     5    18    13    1
     6    40    34    1
     7    19    14    1
     8    39    33    1
     9     6     5    1
    10    27    26    1
    11    13    14   ar
    12    13    12   ar
    13    34    33   ar
    14    34    35   ar
    15    33    32   ar
    16    14    15   ar
    17     5     1   ar
    18     5     4   ar
    19     7     1    1
    20    12     4    1
    21    12    16   ar
    22    26    25   ar
    23    26    22   ar
    24    35    38    1
    25    35    36   ar
    26    32    25    1
    27    32    36   ar
    28    15    16   ar
    29    15    22    1
    30     1     2   ar
    31     4     3   ar
    32    25    24   ar
    33    16    17    1
    34    22    23   ar
    35    36    37    1
    36    30    29    1
    37    11     9    1
    38     2     3   ar
    39     2     8    1
    40     3     9    1
    41    24    23   ar
    42    24    29    1
    43    23    28    1
    44    29    31    1
    45     9    10    1
