@<TRIPOS>MOLECULE
mol_data/opt/cam/geoms/mol2/13ah13ah-4ah13ah.out
 44 47 0 0 0
SMALL
GASTEIGER

@<TRIPOS>ATOM
      1 C           1.3379   -0.2677    0.1728 C.ar    1  LIG1        0.0040
      2 C           0.8627    0.9962    0.4063 C.ar    1  LIG1       -0.0230
      3 C          -0.5553    0.9372    0.3079 C.ar    1  LIG1        0.0516
      4 C          -0.9027   -0.3692    0.0151 C.ar    1  LIG1        0.0839
      5 N           0.2639   -1.0850   -0.0635 N.ar    1  LIG1       -0.3580
      6 H           0.3142   -2.0704   -0.2584 H       1  LIG1        0.1654
      7 H           2.3461   -0.6513    0.1550 H       1  LIG1        0.0807
      8 H           1.4585    1.8711    0.6246 H       1  LIG1        0.0651
      9 N          -1.5172    1.9854    0.4725 N.pl3   1  LIG1       -0.3563
     10 H          -1.4300    2.4152    1.3887 H       1  LIG1        0.1424
     11 H          -1.3732    2.7207   -0.2134 H       1  LIG1        0.1424
     12 C          -2.2079   -0.9606   -0.1811 C.ar    1  LIG1        0.0669
     13 C          -2.6080   -2.2589   -0.4538 C.ar    1  LIG1       -0.0136
     14 C          -4.0217   -2.2599   -0.5062 C.ar    1  LIG1        0.0508
     15 C          -4.4569   -0.9622   -0.2642 C.ar    1  LIG1        0.0679
     16 N          -3.3255   -0.1934   -0.0874 N.ar    1  LIG1       -0.3515
     17 H          -3.2628    0.7850    0.1737 H       1  LIG1        0.1660
     18 H          -1.9675   -3.1177   -0.6030 H       1  LIG1        0.0658
     19 N          -4.8354   -3.3823   -0.7503 N.pl3   1  LIG1       -0.3563
     20 H          -5.6556   -3.1449   -1.2960 H       1  LIG1        0.1424
     21 H          -4.3252   -4.1169   -1.2237 H       1  LIG1        0.1424
     22 C          -6.0234    0.9571   -0.5224 C.ar    1  LIG1       -0.0518
     23 C          -7.3001    1.4833   -0.4484 C.ar    1  LIG1       -0.0502
     24 C          -5.7966   -0.3924   -0.2198 C.ar    1  LIG1        0.0019
     25 C          -8.4087    0.7084   -0.0957 C.ar    1  LIG1        0.0190
     26 H          -7.4568    2.5369   -0.6547 H       1  LIG1        0.0625
     27 C          -6.8992   -1.1785    0.1324 C.ar    1  LIG1       -0.0312
     28 C          -8.1885   -0.6548    0.1865 C.ar    1  LIG1        0.0344
     29 H          -6.7439   -2.2192    0.4008 H       1  LIG1        0.0643
     30 H          -5.1984    1.5931   -0.8253 H       1  LIG1        0.0624
     31 N          -9.2600   -1.4825    0.5769 N.pl3   1  LIG1       -0.3574
     32 H         -10.0966   -1.3309    0.0253 H       1  LIG1        0.1423
     33 H          -9.0112   -2.4630    0.5782 H       1  LIG1        0.1423
     34 C          -9.7344    1.3310   -0.0218 C.ar    1  LIG1        0.0500
     35 C         -10.2476    2.4135   -0.7120 C.ar    1  LIG1       -0.0157
     36 C         -11.5521    2.6711   -0.2149 C.ar    1  LIG1        0.0427
     37 C         -11.8049    1.7390    0.7650 C.ar    1  LIG1        0.0230
     38 N         -10.6987    0.9249    0.8630 N.ar    1  LIG1       -0.3590
     39 H         -10.5491    0.2003    1.5475 H       1  LIG1        0.1654
     40 H         -12.6754    1.5867    1.3843 H       1  LIG1        0.0826
     41 H          -9.7459    2.9547   -1.5016 H       1  LIG1        0.0657
     42 N         -12.3905    3.7226   -0.6264 N.pl3   1  LIG1       -0.3568
     43 H         -12.3022    3.9181   -1.6151 H       1  LIG1        0.1424
     44 H         -13.3635    3.5537   -0.4074 H       1  LIG1        0.1424
@<TRIPOS>BOND
     1    43    42    1
     2    41    35    1
     3    20    19    1
     4    21    19    1
     5    30    22    1
     6    19    14    1
     7    35    36   ar
     8    35    34   ar
     9    26    23    1
    10    42    44    1
    11    42    36    1
    12    18    13    1
    13    22    23   ar
    14    22    24   ar
    15    14    13   ar
    16    14    15   ar
    17    13    12   ar
    18    23    25   ar
    19    15    24    1
    20    15    16   ar
    21     6     5    1
    22    24    27   ar
    23    36    37   ar
    24    11     9    1
    25    12    16   ar
    26    12     4    1
    27    25    34    1
    28    25    28   ar
    29    16    17    1
    30     5     4   ar
    31     5     1   ar
    32    34    38   ar
    33     4     3   ar
    34    32    31    1
    35    27    28   ar
    36    27    29    1
    37     7     1    1
    38     1     2   ar
    39    28    31    1
    40     3     2   ar
    41     3     9    1
    42     2     8    1
    43     9    10    1
    44    31    33    1
    45    37    38   ar
    46    37    40    1
    47    38    39    1
