@<TRIPOS>MOLECULE
mol_data/opt/cam/geoms/mol2/13ah13ah13ah13ah.out
 42 45 0 0 0
SMALL
GASTEIGER

@<TRIPOS>ATOM
      1 C           0.9614    0.4265    1.3473 C.ar    1  LIG1        0.0040
      2 C           0.8342    1.2826    0.2834 C.ar    1  LIG1       -0.0230
      3 C          -0.4323    1.0328   -0.3151 C.ar    1  LIG1        0.0516
      4 C          -1.0404    0.0234    0.4052 C.ar    1  LIG1        0.0839
      5 N          -0.1584   -0.3515    1.4107 N.ar    1  LIG1       -0.3580
      6 H          -0.4269   -0.8982    2.2121 H       1  LIG1        0.1654
      7 H           1.7617    0.3158    2.0629 H       1  LIG1        0.0807
      8 H           1.5652    2.0086   -0.0425 H       1  LIG1        0.0651
      9 N          -0.9766    1.7019   -1.4189 N.pl3   1  LIG1       -0.3563
     10 H          -0.2792    1.9532   -2.1072 H       1  LIG1        0.1424
     11 H          -1.7220    1.1713   -1.8544 H       1  LIG1        0.1424
     12 C          -2.3140   -0.6287    0.1913 C.ar    1  LIG1        0.0670
     13 C          -3.5259   -0.1114   -0.2289 C.ar    1  LIG1       -0.0135
     14 C          -4.4595   -1.1798   -0.2812 C.ar    1  LIG1        0.0523
     15 C          -3.8021   -2.3319    0.1070 C.ar    1  LIG1        0.0843
     16 N          -2.4900   -1.9727    0.3886 N.ar    1  LIG1       -0.3504
     17 H          -1.7745   -2.6035    0.7078 H       1  LIG1        0.1660
     18 H          -3.7274    0.9343   -0.4124 H       1  LIG1        0.0658
     19 N          -5.8159   -1.0819   -0.6134 N.pl3   1  LIG1       -0.3563
     20 H          -5.9968   -0.3824   -1.3211 H       1  LIG1        0.1424
     21 H          -6.2062   -1.9747   -0.8915 H       1  LIG1        0.1424
     22 C          -4.2915   -3.6896    0.1949 C.ar    1  LIG1        0.0670
     23 C          -5.5257   -4.1690    0.5965 C.ar    1  LIG1       -0.0135
     24 C          -5.4994   -5.5845    0.4883 C.ar    1  LIG1        0.0523
     25 C          -4.2500   -5.9464    0.0222 C.ar    1  LIG1        0.0843
     26 N          -3.5273   -4.7733   -0.1513 N.ar    1  LIG1       -0.3504
     27 H          -2.5840   -4.7321   -0.4981 H       1  LIG1        0.1660
     28 H          -6.3302   -3.5642    0.9899 H       1  LIG1        0.0658
     29 N          -6.5301   -6.4640    0.8413 N.pl3   1  LIG1       -0.3563
     30 H          -7.4487   -6.0881    0.6464 H       1  LIG1        0.1424
     31 H          -6.4210   -7.3720    0.4047 H       1  LIG1        0.1424
     32 C          -3.7193   -7.2548   -0.2930 C.ar    1  LIG1        0.0665
     33 C          -3.9170   -8.4733    0.3244 C.ar    1  LIG1       -0.0142
     34 C          -3.1999   -9.4577   -0.4161 C.ar    1  LIG1        0.0427
     35 C          -2.5857   -8.8159   -1.4617 C.ar    1  LIG1        0.0230
     36 N          -2.8838   -7.4664   -1.3616 N.ar    1  LIG1       -0.3578
     37 H          -2.7725   -6.8100   -2.1162 H       1  LIG1        0.1654
     38 H          -1.9356   -9.1935   -2.2355 H       1  LIG1        0.0826
     39 H          -4.4478   -8.6252    1.2536 H       1  LIG1        0.0658
     40 N          -3.0797  -10.8096   -0.0569 N.pl3   1  LIG1       -0.3568
     41 H          -3.9252  -11.1741    0.3616 H       1  LIG1        0.1424
     42 H          -2.8047  -11.4003   -0.8304 H       1  LIG1        0.1424
@<TRIPOS>BOND
     1    38    35    1
     2    37    36    1
     3    10     9    1
     4    11     9    1
     5    35    36   ar
     6    35    34   ar
     7     9     3    1
     8    36    32   ar
     9    20    19    1
    10    21    19    1
    11    42    40    1
    12    19    14    1
    13    27    26    1
    14    34    40    1
    15    34    33   ar
    16    18    13    1
    17     3     2   ar
    18     3     4   ar
    19    32    25    1
    20    32    33   ar
    21    14    13   ar
    22    14    15   ar
    23    13    12   ar
    24    26    25   ar
    25    26    22   ar
    26    40    41    1
    27     8     2    1
    28    25    24   ar
    29    15    22    1
    30    15    16   ar
    31    12    16   ar
    32    12     4    1
    33    22    23   ar
    34     2     1   ar
    35    33    39    1
    36    16    17    1
    37    31    29    1
    38     4     5   ar
    39    24    23   ar
    40    24    29    1
    41    23    28    1
    42    30    29    1
    43     1     5   ar
    44     1     7    1
    45     5     6    1
