@<TRIPOS>MOLECULE
mol_data/opt/cam/geoms/mol2/13ah13ah-13ah.out
 32 34 0 0 0
SMALL
GASTEIGER

@<TRIPOS>ATOM
      1 C           1.2704   -0.3090   -0.1115 C.ar    1  LIG1        0.0040
      2 C           0.8374    0.9906   -0.0977 C.ar    1  LIG1       -0.0230
      3 C          -0.5852    0.9603   -0.0828 C.ar    1  LIG1        0.0516
      4 C          -0.9780   -0.3659   -0.0876 C.ar    1  LIG1        0.0839
      5 N           0.1660   -1.1211   -0.1046 N.ar    1  LIG1       -0.3580
      6 H           0.1833   -2.1266   -0.1129 H       1  LIG1        0.1654
      7 H           2.2670   -0.7221   -0.1253 H       1  LIG1        0.0807
      8 H           1.4638    1.8714   -0.0981 H       1  LIG1        0.0651
      9 N          -1.5114    2.0530   -0.0645 N.pl3   1  LIG1       -0.3563
     10 H          -1.3815    2.6239    0.7658 H       1  LIG1        0.1424
     11 H          -1.3696    2.6607   -0.8660 H       1  LIG1        0.1424
     12 C          -2.3053   -0.9410   -0.0775 C.ar    1  LIG1        0.0670
     13 C          -2.7592   -2.2453   -0.0719 C.ar    1  LIG1       -0.0135
     14 C          -4.1775   -2.1938   -0.0618 C.ar    1  LIG1        0.0523
     15 C          -4.5517   -0.8591   -0.0610 C.ar    1  LIG1        0.0843
     16 N          -3.4029   -0.1209   -0.0709 N.ar    1  LIG1       -0.3504
     17 H          -3.2950    0.8884   -0.0694 H       1  LIG1        0.1660
     18 H          -2.1539   -3.1422   -0.0740 H       1  LIG1        0.0658
     19 N          -5.1163   -3.2762   -0.0517 N.pl3   1  LIG1       -0.3563
     20 H          -4.9876   -3.8738   -0.8631 H       1  LIG1        0.1424
     21 H          -4.9844   -3.8609    0.7686 H       1  LIG1        0.1424
     22 C          -5.8715   -0.2664   -0.0525 C.ar    1  LIG1        0.0665
     23 C          -6.2927    1.0519   -0.0565 C.ar    1  LIG1       -0.0142
     24 C          -7.7120    1.0406   -0.0478 C.ar    1  LIG1        0.0427
     25 C          -8.1109   -0.2781   -0.0389 C.ar    1  LIG1        0.0230
     26 N          -6.9803   -1.0582   -0.0349 N.ar    1  LIG1       -0.3578
     27 H          -6.8979   -2.0681   -0.0344 H       1  LIG1        0.1654
     28 H          -9.0992   -0.7111   -0.0247 H       1  LIG1        0.0826
     29 H          -5.6617    1.9299   -0.0537 H       1  LIG1        0.0658
     30 N          -8.5368    2.1818    0.0115 N.pl3   1  LIG1       -0.3568
     31 H          -8.1889    2.9299   -0.5751 H       1  LIG1        0.1424
     32 H          -9.4912    1.9771   -0.2555 H       1  LIG1        0.1424
@<TRIPOS>BOND
     1    11     9    1
     2    20    19    1
     3    31    30    1
     4    32    30    1
     5     7     1    1
     6     6     5    1
     7     1     5   ar
     8     1     2   ar
     9     5     4   ar
    10     8     2    1
    11     2     3   ar
    12     4     3   ar
    13     4    12    1
    14     3     9    1
    15    12    13   ar
    16    12    16   ar
    17    18    13    1
    18    13    14   ar
    19    16    17    1
    20    16    15   ar
    21     9    10    1
    22    14    15   ar
    23    14    19    1
    24    15    22    1
    25    23    29    1
    26    23    22   ar
    27    23    24   ar
    28    22    26   ar
    29    19    21    1
    30    24    25   ar
    31    24    30    1
    32    25    26   ar
    33    25    28    1
    34    26    27    1
