@<TRIPOS>MOLECULE
mol_data/opt/cam/geoms/mol2/13ah13ah.out
 22 23 0 0 0
SMALL
GASTEIGER

@<TRIPOS>ATOM
      1 C           1.2247   -0.2679    0.3392 C.ar    1  LIG1        0.0040
      2 C           0.8323    0.9958   -0.0234 C.ar    1  LIG1       -0.0230
      3 C          -0.5807    0.9723   -0.1876 C.ar    1  LIG1        0.0516
      4 C          -1.0083   -0.3135    0.0791 C.ar    1  LIG1        0.0838
      5 N           0.1181   -1.0653    0.3821 N.ar    1  LIG1       -0.3580
      6 H           0.0805   -1.9765    0.8075 H       1  LIG1        0.1654
      7 H           2.2047   -0.6556    0.5717 H       1  LIG1        0.0807
      8 H           1.4798    1.8496   -0.1627 H       1  LIG1        0.0651
      9 N          -1.3969    2.0586   -0.5320 N.pl3   1  LIG1       -0.3563
     10 H          -0.9585    2.6778   -1.2014 H       1  LIG1        0.1424
     11 H          -2.2998    1.7553   -0.8788 H       1  LIG1        0.1424
     12 C          -2.3374   -0.8835    0.0181 C.ar    1  LIG1        0.0665
     13 C          -3.5639   -0.3382    0.3401 C.ar    1  LIG1       -0.0142
     14 C          -4.5621   -1.3126    0.0483 C.ar    1  LIG1        0.0427
     15 C          -3.9200   -2.4223   -0.4411 C.ar    1  LIG1        0.0230
     16 N          -2.5601   -2.1604   -0.4297 N.ar    1  LIG1       -0.3578
     17 H          -1.8740   -2.6993   -0.9309 H       1  LIG1        0.1654
     18 H          -4.3074   -3.3788   -0.7558 H       1  LIG1        0.0826
     19 H          -3.7185    0.6222    0.8114 H       1  LIG1        0.0658
     20 N          -5.9331   -1.1707    0.3179 N.pl3   1  LIG1       -0.3568
     21 H          -6.2581   -0.2242    0.1717 H       1  LIG1        0.1424
     22 H          -6.5072   -1.8095   -0.2162 H       1  LIG1        0.1424
@<TRIPOS>BOND
     1    10     9    1
     2    17    16    1
     3    11     9    1
     4    18    15    1
     5     9     3    1
     6    15    16   ar
     7    15    14   ar
     8    16    12   ar
     9    22    20    1
    10     3     2   ar
    11     3     4   ar
    12     8     2    1
    13     2     1   ar
    14    12     4    1
    15    12    13   ar
    16    14    20    1
    17    14    13   ar
    18     4     5   ar
    19    21    20    1
    20     1     5   ar
    21     1     7    1
    22    13    19    1
    23     5     6    1
