@<TRIPOS>MOLECULE
mol_data/opt/cam/geoms/mol2/13ah13ah13ah13ah-.out
 42 45 0 0 0
SMALL
GASTEIGER

@<TRIPOS>ATOM
      1 C           0.9305    0.4332    1.2894 C.ar    1  LIG1        0.0040
      2 C           0.7994    1.2744    0.2141 C.ar    1  LIG1       -0.0230
      3 C          -0.4674    1.0134   -0.3789 C.ar    1  LIG1        0.0516
      4 C          -1.0718    0.0125    0.3564 C.ar    1  LIG1        0.0839
      5 N          -0.1873   -0.3464    1.3653 N.ar    1  LIG1       -0.3580
      6 H          -0.4516   -0.8863    2.1727 H       1  LIG1        0.1654
      7 H           1.7326    0.3338    2.0047 H       1  LIG1        0.0807
      8 H           1.5282    1.9974   -0.1232 H       1  LIG1        0.0651
      9 N          -1.0148    1.6657   -1.4911 N.pl3   1  LIG1       -0.3563
     10 H          -0.3179    1.9116   -2.1821 H       1  LIG1        0.1424
     11 H          -1.7566    1.1253   -1.9209 H       1  LIG1        0.1424
     12 C          -2.3442   -0.6454    0.1540 C.ar    1  LIG1        0.0670
     13 C          -3.5559   -0.1382   -0.2795 C.ar    1  LIG1       -0.0135
     14 C          -4.4865   -1.2098   -0.3174 C.ar    1  LIG1        0.0523
     15 C          -3.8282   -2.3531    0.0946 C.ar    1  LIG1        0.0843
     16 N          -2.5188   -1.9853    0.3779 N.ar    1  LIG1       -0.3504
     17 H          -1.7974   -2.6143    0.6873 H       1  LIG1        0.1660
     18 H          -3.7592    0.9037   -0.4818 H       1  LIG1        0.0658
     19 N          -5.8425   -1.1224   -0.6568 N.pl3   1  LIG1       -0.3563
     20 H          -6.0221   -0.4239   -1.3661 H       1  LIG1        0.1424
     21 H          -6.2205   -2.0179   -0.9442 H       1  LIG1        0.1424
     22 C          -4.3143   -3.7091    0.2119 C.ar    1  LIG1        0.0670
     23 C          -5.5454   -4.1944    0.6004 C.ar    1  LIG1       -0.0135
     24 C          -5.4968   -5.6134    0.5095 C.ar    1  LIG1        0.0523
     25 C          -4.2357   -5.9672    0.0723 C.ar    1  LIG1        0.0843
     26 N          -3.5271   -4.8011   -0.0930 N.ar    1  LIG1       -0.3504
     27 H          -2.6398   -4.7465   -0.5653 H       1  LIG1        0.1660
     28 H          -6.3651   -3.5927    0.9674 H       1  LIG1        0.0658
     29 N          -6.5168   -6.5702    0.8195 N.pl3   1  LIG1       -0.3563
     30 H          -6.7699   -6.5209    1.8026 H       1  LIG1        0.1424
     31 H          -7.3620   -6.3758    0.2905 H       1  LIG1        0.1424
     32 C          -3.6711   -7.2722   -0.1913 C.ar    1  LIG1        0.0665
     33 C          -2.4133   -7.6696   -0.6116 C.ar    1  LIG1       -0.0142
     34 C          -2.4298   -9.0856   -0.7104 C.ar    1  LIG1        0.0427
     35 C          -3.6911   -9.5055   -0.3489 C.ar    1  LIG1        0.0230
     36 N          -4.4296   -8.3922   -0.0304 N.ar    1  LIG1       -0.3578
     37 H          -5.3922   -8.3274    0.2799 H       1  LIG1        0.1654
     38 H          -4.1068  -10.4993   -0.2851 H       1  LIG1        0.0826
     39 H          -1.5635   -7.0306   -0.8097 H       1  LIG1        0.0658
     40 N          -1.3251   -9.8918   -1.0478 N.pl3   1  LIG1       -0.3568
     41 H          -1.5995  -10.8358   -1.2873 H       1  LIG1        0.1424
     42 H          -0.7915   -9.5033   -1.8154 H       1  LIG1        0.1424
@<TRIPOS>BOND
     1    10     9    1
     2    11     9    1
     3    42    40    1
     4     9     3    1
     5    20    19    1
     6    41    40    1
     7    40    34    1
     8    21    19    1
     9    39    33    1
    10    34    33   ar
    11    34    35   ar
    12    19    14    1
    13    33    32   ar
    14    27    26    1
    15    18    13    1
    16     3     2   ar
    17     3     4   ar
    18    35    38    1
    19    35    36   ar
    20    14    13   ar
    21    14    15   ar
    22    13    12   ar
    23    32    36   ar
    24    32    25    1
    25     8     2    1
    26    26    25   ar
    27    26    22   ar
    28    36    37    1
    29    25    24   ar
    30    15    22    1
    31    15    16   ar
    32    12     4    1
    33    12    16   ar
    34    22    23   ar
    35     2     1   ar
    36    31    29    1
    37     4     5   ar
    38    16    17    1
    39    24    23   ar
    40    24    29    1
    41    23    28    1
    42    29    30    1
    43     1     5   ar
    44     1     7    1
    45     5     6    1
