@<TRIPOS>MOLECULE
mol_data/opt/cam/geoms/mol2/13ah13ah13ah-13ah.out
 42 45 0 0 0
SMALL
GASTEIGER

@<TRIPOS>ATOM
      1 C           1.2819   -0.0079    0.4191 C.ar    1  LIG1        0.0040
      2 C           0.8812    1.1181   -0.2541 C.ar    1  LIG1       -0.0230
      3 C          -0.5249    1.0211   -0.4474 C.ar    1  LIG1        0.0516
      4 C          -0.9403   -0.1696    0.1161 C.ar    1  LIG1        0.0839
      5 N           0.1884   -0.7978    0.6256 N.ar    1  LIG1       -0.3580
      6 H           0.1542   -1.5738    1.2654 H       1  LIG1        0.1654
      7 H           2.2604   -0.3033    0.7658 H       1  LIG1        0.0807
      8 H           1.5191    1.9260   -0.5826 H       1  LIG1        0.0651
      9 N          -1.3470    1.9682   -1.0723 N.pl3   1  LIG1       -0.3563
     10 H          -0.8858    2.4369   -1.8413 H       1  LIG1        0.1424
     11 H          -2.2200    1.5613   -1.3881 H       1  LIG1        0.1424
     12 C          -2.2587   -0.7618    0.1677 C.ar    1  LIG1        0.0670
     13 C          -3.5025   -0.1871    0.3211 C.ar    1  LIG1       -0.0135
     14 C          -4.4672   -1.2317    0.2738 C.ar    1  LIG1        0.0523
     15 C          -3.7924   -2.4241    0.0976 C.ar    1  LIG1        0.0843
     16 N          -2.4520   -2.1222    0.0472 N.ar    1  LIG1       -0.3504
     17 H          -1.7360   -2.7688   -0.2400 H       1  LIG1        0.1660
     18 H          -3.6872    0.8618    0.5068 H       1  LIG1        0.0658
     19 N          -5.8911   -1.1480    0.4016 N.pl3   1  LIG1       -0.3563
     20 H          -6.1522   -0.7967    1.3188 H       1  LIG1        0.1424
     21 H          -6.2757   -0.5015   -0.2808 H       1  LIG1        0.1424
     22 C          -4.3014   -3.7710   -0.0208 C.ar    1  LIG1        0.0670
     23 C          -3.6785   -4.9945   -0.1738 C.ar    1  LIG1       -0.0135
     24 C          -4.6996   -5.9779   -0.2386 C.ar    1  LIG1        0.0523
     25 C          -5.9192   -5.3290   -0.1225 C.ar    1  LIG1        0.0843
     26 N          -5.6532   -3.9958    0.0072 N.ar    1  LIG1       -0.3504
     27 H          -6.3040   -3.2260    0.1248 H       1  LIG1        0.1660
     28 H          -2.6134   -5.1763   -0.2288 H       1  LIG1        0.0658
     29 N          -4.5730   -7.3969   -0.3906 N.pl3   1  LIG1       -0.3563
     30 H          -4.0885   -7.6267   -1.2535 H       1  LIG1        0.1424
     31 H          -4.0277   -7.7945    0.3687 H       1  LIG1        0.1424
     32 C          -7.2609   -5.8700   -0.1252 C.ar    1  LIG1        0.0665
     33 C          -8.5014   -5.2656   -0.0196 C.ar    1  LIG1       -0.0142
     34 C          -9.4778   -6.2935   -0.0868 C.ar    1  LIG1        0.0427
     35 C          -8.8059   -7.4876   -0.2315 C.ar    1  LIG1        0.0230
     36 N          -7.4602   -7.2127   -0.2459 N.ar    1  LIG1       -0.3578
     37 H          -6.6766   -7.8478   -0.3423 H       1  LIG1        0.1654
     38 H          -9.1798   -8.4966   -0.3129 H       1  LIG1        0.0826
     39 H          -8.6950   -4.2091    0.1043 H       1  LIG1        0.0658
     40 N         -10.8687   -6.1081    0.0435 N.pl3   1  LIG1       -0.3568
     41 H         -11.1857   -5.2772   -0.4401 H       1  LIG1        0.1424
     42 H         -11.3935   -6.9029   -0.2986 H       1  LIG1        0.1424
@<TRIPOS>BOND
     1    10     9    1
     2    11     9    1
     3    30    29    1
     4     9     3    1
     5     8     2    1
     6     3     2   ar
     7     3     4   ar
     8    41    40    1
     9    29    24    1
    10    29    31    1
    11    37    36    1
    12    38    35    1
    13    42    40    1
    14    21    19    1
    15     2     1   ar
    16    36    35   ar
    17    36    32   ar
    18    17    16    1
    19    24    23   ar
    20    24    25   ar
    21    35    34   ar
    22    28    23    1
    23    23    22   ar
    24    32    25    1
    25    32    33   ar
    26    25    26   ar
    27    34    33   ar
    28    34    40    1
    29    22    26   ar
    30    22    15    1
    31    33    39    1
    32    26    27    1
    33    16    15   ar
    34    16    12   ar
    35    15    14   ar
    36     4    12    1
    37     4     5   ar
    38    12    13   ar
    39    14    13   ar
    40    14    19    1
    41    13    18    1
    42    19    20    1
    43     1     5   ar
    44     1     7    1
    45     5     6    1
