@<TRIPOS>MOLECULE
mol_data/opt/cam/geoms/mol2/13ah13ah13ah.out
 32 34 0 0 0
SMALL
GASTEIGER

@<TRIPOS>ATOM
      1 C           1.2176   -0.0298    0.7304 C.ar    1  LIG1        0.0040
      2 C           0.8866    1.0707   -0.0184 C.ar    1  LIG1       -0.0230
      3 C          -0.4978    0.9722   -0.3313 C.ar    1  LIG1        0.0516
      4 C          -0.9703   -0.1946    0.2369 C.ar    1  LIG1        0.0839
      5 N           0.1044   -0.8078    0.8677 N.ar    1  LIG1       -0.3580
      6 H           0.0054   -1.5479    1.5427 H       1  LIG1        0.1654
      7 H           2.1584   -0.3142    1.1762 H       1  LIG1        0.0807
      8 H           1.5569    1.8631   -0.3191 H       1  LIG1        0.0651
      9 N          -1.2534    1.8986   -1.0619 N.pl3   1  LIG1       -0.3563
     10 H          -0.7302    2.3202   -1.8182 H       1  LIG1        0.1424
     11 H          -2.1115    1.4917   -1.4156 H       1  LIG1        0.1424
     12 C          -2.2919   -0.7813    0.1849 C.ar    1  LIG1        0.0670
     13 C          -3.5393   -0.1848    0.2231 C.ar    1  LIG1       -0.0135
     14 C          -4.5152   -1.2122    0.1303 C.ar    1  LIG1        0.0523
     15 C          -3.8470   -2.4181    0.0369 C.ar    1  LIG1        0.0843
     16 N          -2.4889   -2.1318    0.0709 N.ar    1  LIG1       -0.3504
     17 H          -1.7564   -2.8192    0.0169 H       1  LIG1        0.1660
     18 H          -3.7217    0.8702    0.3697 H       1  LIG1        0.0658
     19 N          -5.9047   -1.0452    0.1786 N.pl3   1  LIG1       -0.3563
     20 H          -6.2118   -0.1931   -0.2716 H       1  LIG1        0.1424
     21 H          -6.3966   -1.8436   -0.2057 H       1  LIG1        0.1424
     22 C          -4.3673   -3.7595   -0.1140 C.ar    1  LIG1        0.0665
     23 C          -5.4943   -4.3487    0.4225 C.ar    1  LIG1       -0.0142
     24 C          -5.5729   -5.6786   -0.0841 C.ar    1  LIG1        0.0427
     25 C          -4.4955   -5.8650   -0.9129 C.ar    1  LIG1        0.0230
     26 N          -3.7487   -4.6979   -0.9022 N.ar    1  LIG1       -0.3578
     27 H          -3.0524   -4.4700   -1.5919 H       1  LIG1        0.1654
     28 H          -4.1777   -6.7322   -1.4706 H       1  LIG1        0.0826
     29 H          -6.1418   -3.9015    1.1634 H       1  LIG1        0.0658
     30 N          -6.5316   -6.6319    0.2949 N.pl3   1  LIG1       -0.3568
     31 H          -7.4417   -6.2209    0.4551 H       1  LIG1        0.1424
     32 H          -6.6165   -7.3908   -0.3681 H       1  LIG1        0.1424
@<TRIPOS>BOND
     1    10     9    1
     2    27    26    1
     3    28    25    1
     4    11     9    1
     5     9     3    1
     6    25    26   ar
     7    25    24   ar
     8    26    22   ar
     9    32    30    1
    10     3     2   ar
    11     3     4   ar
    12     8     2    1
    13    20    19    1
    14    21    19    1
    15    22    15    1
    16    22    23   ar
    17    24    30    1
    18    24    23   ar
    19     2     1   ar
    20    17    16    1
    21    15    16   ar
    22    15    14   ar
    23    16    12   ar
    24    14    19    1
    25    14    13   ar
    26    12    13   ar
    27    12     4    1
    28    13    18    1
    29     4     5   ar
    30    30    31    1
    31    23    29    1
    32     1     5   ar
    33     1     7    1
    34     5     6    1
