@<TRIPOS>MOLECULE
mol_data/opt/cam/geoms/mol2/13ah12al13el6la6dd-4ai-13ah-4fd-.out
 96 103 0 0 0
SMALL
GASTEIGER

@<TRIPOS>ATOM
      1 C           0.0417    0.2674    2.7232 C.ar    1  LIG1        0.0041
      2 C          -0.0852    1.5076    2.1412 C.ar    1  LIG1       -0.0230
      3 C          -1.1713    1.4394    1.2316 C.ar    1  LIG1        0.0532
      4 C          -1.6773    0.1506    1.2924 C.ar    1  LIG1        0.1031
      5 N          -0.9102   -0.5504    2.2036 N.ar    1  LIG1       -0.3568
      6 H          -1.0810   -1.5087    2.4575 H       1  LIG1        0.1655
      7 H           0.7441   -0.0866    3.4620 H       1  LIG1        0.0807
      8 H           0.5328    2.3712    2.3399 H       1  LIG1        0.0651
      9 N          -1.6762    2.4732    0.4336 N.pl3   1  LIG1       -0.3562
     10 H          -1.0285    3.2445    0.3436 H       1  LIG1        0.1424
     11 H          -1.9580    2.1544   -0.4860 H       1  LIG1        0.1424
     12 C          -2.7841   -0.4430    0.6025 C.ar    1  LIG1        0.1573
     13 C          -3.8418    0.0821   -0.0874 C.ar    1  LIG1        0.0282
     14 C          -4.6103   -1.0338   -0.5368 C.ar    1  LIG1        0.1678
     15 C          -3.9949   -2.1698   -0.0810 C.ar    1  LIG1        0.1945
     16 O          -2.8570   -1.7983    0.6097 O.2     1  LIG1       -0.4480
     17 H          -4.0609    1.1315   -0.2006 H       1  LIG1        0.0693
     18 O          -5.7204   -1.0377   -1.2968 O.3     1  LIG1       -0.4912
     19 C          -6.2630    0.2247   -1.6255 C.3     1  LIG1        0.0790
     20 H          -7.1531    0.0278   -2.2221 H       1  LIG1        0.0660
     21 H          -6.5462    0.7850   -0.7273 H       1  LIG1        0.0660
     22 H          -5.5583    0.8225   -2.2153 H       1  LIG1        0.0660
     23 C          -4.2091   -3.5835   -0.2189 C.ar    1  LIG1        0.1054
     24 C          -5.3532   -4.3474   -0.4707 C.ar    1  LIG1        0.0953
     25 C          -4.9235   -5.7047   -0.4960 C.ar    1  LIG1        0.1614
     26 C          -3.5588   -5.7500   -0.2491 C.ar    1  LIG1        0.0956
     27 N          -3.1646   -4.4385   -0.0813 N.ar    1  LIG1       -0.3476
     28 H          -2.2048   -4.1717    0.0730 H       1  LIG1        0.1661
     29 C          -6.6970   -3.9010   -0.5544 C.1     1  LIG1       -0.0637
     30 C          -7.8515   -3.5605   -0.6122 C.1     1  LIG1       -0.1137
     31 H          -8.8691   -3.2481   -0.6438 H       1  LIG1        0.1232
     32 O          -5.7139   -6.7990   -0.6718 O.3     1  LIG1       -0.4917
     33 C          -6.4235   -6.8431   -1.9076 C.3     1  LIG1        0.0789
     34 H          -6.9863   -7.7772   -1.9038 H       1  LIG1        0.0660
     35 H          -7.1138   -6.0018   -1.9972 H       1  LIG1        0.0660
     36 H          -5.7280   -6.8376   -2.7541 H       1  LIG1        0.0660
     37 C          -1.2457   -6.7538    0.0045 C.ar    1  LIG1        0.2245
     38 C          -2.6527   -6.8815   -0.1508 C.ar    1  LIG1        0.0634
     39 C          -3.1188   -8.1942   -0.2118 C.ar    1  LIG1       -0.0454
     40 C          -2.2430   -9.2703   -0.1360 C.ar    1  LIG1       -0.0347
     41 C          -0.8879   -9.0187    0.0183 C.ar    1  LIG1        0.0776
     42 N          -0.4153   -7.7659    0.0894 N.ar    1  LIG1       -0.2123
     43 H          -4.1821   -8.3582   -0.3261 H       1  LIG1        0.0626
     44 O          -0.7308   -5.5040    0.0767 O.3     1  LIG1       -0.4792
     45 C           0.6913   -5.3865    0.1775 C.3     1  LIG1        0.0804
     46 H           0.8912   -4.3154    0.1754 H       1  LIG1        0.0660
     47 H           1.0499   -5.8392    1.1042 H       1  LIG1        0.0660
     48 H           1.1856   -5.8734   -0.6640 H       1  LIG1        0.0660
     49 H          -2.6194  -10.2829   -0.2190 H       1  LIG1        0.0639
     50 C           1.4249  -10.0119   -0.3499 C.ar    1  LIG1        0.1499
     51 C           0.1040  -10.1094    0.1189 C.ar    1  LIG1        0.0376
     52 C          -0.2217  -11.3201    0.7224 C.ar    1  LIG1       -0.0303
     53 C           0.7080  -12.3504    0.8205 C.ar    1  LIG1        0.0784
     54 C           2.0014  -12.1660    0.2825 C.ar    1  LIG1        0.0898
     55 N           2.3181  -10.9957   -0.2717 N.ar    1  LIG1       -0.2344
     56 H          -1.2043  -11.4570    1.1584 H       1  LIG1        0.0638
     57 N           2.4084   -7.9357   -1.5701 N.1     1  LIG1       -0.1893
     58 C           1.9329   -8.8286   -1.0116 C.1     1  LIG1        0.1198
     59 N          -0.0791  -14.4549    2.1086 N.1     1  LIG1       -0.1908
     60 C           0.3045  -13.5320    1.5263 C.1     1  LIG1        0.1013
     61 C           2.8243  -14.5569    0.2487 C.ar    1  LIG1       -0.0519
     62 C           3.8806  -15.4497    0.2415 C.ar    1  LIG1       -0.0518
     63 C           3.0750  -13.1848    0.3019 C.ar    1  LIG1        0.0019
     64 C           5.2121  -15.0222    0.2947 C.ar    1  LIG1        0.0013
     65 H           3.6789  -16.5123    0.1687 H       1  LIG1        0.0624
     66 C           4.4030  -12.7546    0.3415 C.ar    1  LIG1       -0.0490
     67 C           5.4756  -13.6380    0.3495 C.ar    1  LIG1       -0.0407
     68 H           4.5952  -11.6883    0.3771 H       1  LIG1        0.0627
     69 H           1.8141  -14.9399    0.1831 H       1  LIG1        0.0624
     70 C           6.8715  -13.0735    0.4469 C.3     1  LIG1       -0.0391
     71 H           6.8432  -12.0598    0.8506 H       1  LIG1        0.0278
     72 H           7.3564  -13.0013   -0.5343 H       1  LIG1        0.0278
     73 H           7.5107  -13.6790    1.0930 H       1  LIG1        0.0278
     74 C           6.2535  -16.0567    0.3129 C.ar    1  LIG1        0.0490
     75 C           6.2374  -17.2877    0.9379 C.ar    1  LIG1       -0.0151
     76 C           7.4637  -17.9430    0.6665 C.ar    1  LIG1        0.0509
     77 C           8.2140  -17.0953   -0.1436 C.ar    1  LIG1        0.0714
     78 N           7.4511  -15.9535   -0.3343 N.ar    1  LIG1       -0.3526
     79 H           7.7685  -15.1421   -0.8353 H       1  LIG1        0.1660
     80 H           5.4453  -17.6667    1.5670 H       1  LIG1        0.0657
     81 N           7.7936  -19.2024    1.1641 N.pl3   1  LIG1       -0.3563
     82 H           7.0786  -19.9004    1.0193 H       1  LIG1        0.1424
     83 H           8.7136  -19.5255    0.9104 H       1  LIG1        0.1424
     84 C          10.6165  -17.8623   -0.3069 C.ar    1  LIG1        0.1261
     85 C          11.8138  -17.9423   -1.0115 C.ar    1  LIG1       -0.0183
     86 C           9.4818  -17.2367   -0.8590 C.ar    1  LIG1        0.0427
     87 C          11.9300  -17.3913   -2.2760 C.ar    1  LIG1       -0.0409
     88 H          12.6692  -18.4310   -0.5528 H       1  LIG1        0.0655
     89 C           9.6200  -16.7014   -2.1418 C.ar    1  LIG1       -0.0317
     90 C          10.8234  -16.7629   -2.8467 C.ar    1  LIG1        0.0526
     91 H           8.7599  -16.2439   -2.6176 H       1  LIG1        0.0638
     92 H          12.8657  -17.4491   -2.8190 H       1  LIG1        0.0631
     93 O          10.5014  -18.3792    0.9451 O.3     1  LIG1       -0.5061
     94 H          11.3567  -18.7112    1.2434 H       1  LIG1        0.2922
     95 N          10.9872  -15.7303   -5.2173 N.1     1  LIG1       -0.1909
     96 C          10.9133  -16.1930   -4.1594 C.1     1  LIG1        0.0992
@<TRIPOS>BOND
     1    95    96    3
     2    96    90    1
     3    90    87   ar
     4    90    89   ar
     5    92    87    1
     6    36    33    1
     7    91    89    1
     8    87    85   ar
     9    20    19    1
    10    22    19    1
    11    89    86   ar
    12    35    33    1
    13    33    34    1
    14    33    32    1
    15    19    18    1
    16    19    21    1
    17    57    58    3
    18    18    14    1
    19    58    50    1
    20    85    88    1
    21    85    84   ar
    22    86    84   ar
    23    86    77    1
    24    79    78    1
    25    32    25    1
    26    48    45    1
    27    31    30    1
    28    30    29    3
    29    29    24    1
    30    14    13   ar
    31    14    15   ar
    32    72    70    1
    33    25    24   ar
    34    25    26   ar
    35    11     9    1
    36    24    23   ar
    37    50    55   ar
    38    50    51   ar
    39    78    77   ar
    40    78    74   ar
    41    43    39    1
    42    84    93    1
    43    55    54   ar
    44    26    38    1
    45    26    27   ar
    46    49    40    1
    47    23    27   ar
    48    23    15    1
    49    39    38   ar
    50    39    40   ar
    51    17    13    1
    52    38    37   ar
    53    77    76   ar
    54    40    41   ar
    55    13    12   ar
    56    27    28    1
    57    15    16   ar
    58    37    44    1
    59    37    42   ar
    60    41    42   ar
    61    41    51    1
    62    44    45    1
    63    51    52   ar
    64    65    62    1
    65    46    45    1
    66    45    47    1
    67    69    61    1
    68    62    61   ar
    69    62    64   ar
    70    61    63   ar
    71    54    63    1
    72    54    53   ar
    73    64    74    1
    74    64    67   ar
    75    63    66   ar
    76    74    75   ar
    77    66    67   ar
    78    66    68    1
    79    10     9    1
    80    67    70    1
    81     9     3    1
    82    70    71    1
    83    70    73    1
    84    12    16   ar
    85    12     4    1
    86    76    75   ar
    87    76    81    1
    88    52    53   ar
    89    52    56    1
    90    53    60    1
    91    83    81    1
    92    75    80    1
    93    93    94    1
    94    82    81    1
    95     3     4   ar
    96     3     2   ar
    97     4     5   ar
    98    60    59    3
    99     2     8    1
   100     2     1   ar
   101     5     6    1
   102     5     1   ar
   103     1     7    1
