@<TRIPOS>MOLECULE
mol_data/opt/cam/geoms/mol2/13ah13ah13ah-13ah-.out
 42 45 0 0 0
SMALL
GASTEIGER

@<TRIPOS>ATOM
      1 C           1.3160   -0.0226    0.3153 C.ar    1  LIG1        0.0040
      2 C           0.8828    1.1450   -0.2602 C.ar    1  LIG1       -0.0230
      3 C          -0.5321    1.0617   -0.3795 C.ar    1  LIG1        0.0516
      4 C          -0.9203   -0.1627    0.1288 C.ar    1  LIG1        0.0839
      5 N           0.2324   -0.8230    0.5321 N.ar    1  LIG1       -0.3580
      6 H           0.2315   -1.6406    1.1190 H       1  LIG1        0.1654
      7 H           2.3110   -0.3405    0.5866 H       1  LIG1        0.0807
      8 H           1.5049    1.9720   -0.5714 H       1  LIG1        0.0651
      9 N          -1.3848    2.0473   -0.8948 N.pl3   1  LIG1       -0.3563
     10 H          -0.9645    2.5665   -1.6547 H       1  LIG1        0.1424
     11 H          -2.2741    1.6606   -1.1898 H       1  LIG1        0.1424
     12 C          -2.2362   -0.7559    0.2161 C.ar    1  LIG1        0.0670
     13 C          -3.4675   -0.1902    0.4729 C.ar    1  LIG1       -0.0135
     14 C          -4.4373   -1.2289    0.4154 C.ar    1  LIG1        0.0523
     15 C          -3.7784   -2.4092    0.1296 C.ar    1  LIG1        0.0843
     16 N          -2.4421   -2.1055    0.0229 N.ar    1  LIG1       -0.3504
     17 H          -1.7451   -2.7369   -0.3363 H       1  LIG1        0.1660
     18 H          -3.6365    0.8455    0.7330 H       1  LIG1        0.0658
     19 N          -5.8510   -1.1533    0.6357 N.pl3   1  LIG1       -0.3563
     20 H          -6.0508   -0.8748    1.5927 H       1  LIG1        0.1424
     21 H          -6.2690   -0.4490    0.0348 H       1  LIG1        0.1424
     22 C          -4.2964   -3.7470   -0.0369 C.ar    1  LIG1        0.0670
     23 C          -3.6694   -4.9662   -0.2348 C.ar    1  LIG1       -0.0135
     24 C          -4.6807   -5.9564   -0.2927 C.ar    1  LIG1        0.0523
     25 C          -5.9000   -5.3191   -0.1258 C.ar    1  LIG1        0.0843
     26 N          -5.6401   -3.9709    0.0171 N.ar    1  LIG1       -0.3504
     27 H          -6.2782   -3.2255    0.2749 H       1  LIG1        0.1660
     28 H          -2.6052   -5.1401   -0.3176 H       1  LIG1        0.0658
     29 N          -4.4900   -7.3362   -0.4593 N.pl3   1  LIG1       -0.3563
     30 H          -5.3329   -7.7906   -0.7924 H       1  LIG1        0.1424
     31 H          -3.7191   -7.5467   -1.0802 H       1  LIG1        0.1424
     32 C          -7.2370   -5.8684   -0.1510 C.ar    1  LIG1        0.0665
     33 C          -7.7080   -7.1053    0.2472 C.ar    1  LIG1       -0.0142
     34 C          -9.1028   -7.1500   -0.0381 C.ar    1  LIG1        0.0427
     35 C          -9.4451   -5.9453   -0.5997 C.ar    1  LIG1        0.0230
     36 N          -8.3039   -5.1631   -0.6416 N.ar    1  LIG1       -0.3578
     37 H          -8.2157   -4.3070   -1.1623 H       1  LIG1        0.1654
     38 H         -10.3990   -5.5701   -0.9362 H       1  LIG1        0.0826
     39 H          -7.1328   -7.8577    0.7678 H       1  LIG1        0.0658
     40 N          -9.9633   -8.2098    0.2958 N.pl3   1  LIG1       -0.3568
     41 H         -10.8245   -8.1965   -0.2346 H       1  LIG1        0.1424
     42 H          -9.5189   -9.1122    0.1888 H       1  LIG1        0.1424
@<TRIPOS>BOND
     1    10     9    1
     2    11     9    1
     3    37    36    1
     4    31    29    1
     5    38    35    1
     6     9     3    1
     7    30    29    1
     8    36    35   ar
     9    36    32   ar
    10    35    34   ar
    11     8     2    1
    12    29    24    1
    13     3     2   ar
    14     3     4   ar
    15    17    16    1
    16    28    23    1
    17    24    23   ar
    18    24    25   ar
    19     2     1   ar
    20    23    22   ar
    21    41    40    1
    22    32    25    1
    23    32    33   ar
    24    25    26   ar
    25    34    33   ar
    26    34    40    1
    27    22    26   ar
    28    22    15    1
    29    26    27    1
    30    16    15   ar
    31    16    12   ar
    32    21    19    1
    33     4    12    1
    34     4     5   ar
    35    15    14   ar
    36    42    40    1
    37    12    13   ar
    38    33    39    1
    39     1     5   ar
    40     1     7    1
    41    14    13   ar
    42    14    19    1
    43    13    18    1
    44     5     6    1
    45    19    20    1
