@<TRIPOS>MOLECULE
mol_data/opt/cam/geoms/mol2/13ai13ai-13ai-13ai.out
 46 49 0 0 0
SMALL
GASTEIGER

@<TRIPOS>ATOM
      1 C           1.2769   -0.5840   -0.8294 C.ar    1  LIG1        0.0025
      2 C           1.0007    0.7545   -0.7226 C.ar    1  LIG1       -0.0409
      3 C          -0.3709    0.8940   -0.3726 C.ar    1  LIG1       -0.0238
      4 C          -0.8917   -0.3852   -0.2796 C.ar    1  LIG1        0.0658
      5 N           0.1262   -1.2677   -0.5565 N.ar    1  LIG1       -0.3593
      6 H           0.0013   -2.2643   -0.6165 H       1  LIG1        0.1654
      7 H           2.1922   -1.1004   -1.0745 H       1  LIG1        0.0807
      8 H           1.7061    1.5610   -0.8653 H       1  LIG1        0.0635
      9 C          -1.0937    2.1831   -0.1237 C.3     1  LIG1       -0.0377
     10 H          -1.9219    2.0477    0.5773 H       1  LIG1        0.0278
     11 H          -1.5028    2.6186   -1.0440 H       1  LIG1        0.0278
     12 H          -0.4199    2.9296    0.3046 H       1  LIG1        0.0278
     13 C          -2.2155   -0.8745    0.0551 C.ar    1  LIG1        0.0639
     14 C          -2.6175   -2.0420    0.6680 C.ar    1  LIG1       -0.0314
     15 C          -4.0379   -2.0571    0.7211 C.ar    1  LIG1       -0.0231
     16 C          -4.4726   -0.8857    0.1334 C.ar    1  LIG1        0.0663
     17 N          -3.3543   -0.1694   -0.2496 N.ar    1  LIG1       -0.3517
     18 H          -3.3731    0.6124   -0.8840 H       1  LIG1        0.1660
     19 H          -1.9590   -2.7878    1.0926 H       1  LIG1        0.0642
     20 C          -4.8947   -3.1152    1.3416 C.3     1  LIG1       -0.0376
     21 H          -4.4501   -3.4887    2.2684 H       1  LIG1        0.0278
     22 H          -5.0267   -3.9763    0.6769 H       1  LIG1        0.0278
     23 H          -5.8886   -2.7259    1.5745 H       1  LIG1        0.0278
     24 C          -5.8060   -0.3514   -0.0685 C.ar    1  LIG1        0.0639
     25 C          -6.9964   -0.9577   -0.4097 C.ar    1  LIG1       -0.0314
     26 C          -8.0044    0.0399   -0.4817 C.ar    1  LIG1       -0.0231
     27 C          -7.3967    1.2482   -0.1882 C.ar    1  LIG1        0.0663
     28 N          -6.0659    0.9928    0.0504 N.ar    1  LIG1       -0.3517
     29 H          -5.4070    1.6851    0.3676 H       1  LIG1        0.1660
     30 H          -7.1246   -2.0112   -0.6131 H       1  LIG1        0.0642
     31 C          -9.4499   -0.1883   -0.8042 C.3     1  LIG1       -0.0376
     32 H          -9.7770   -1.1662   -0.4419 H       1  LIG1        0.0278
     33 H          -9.6464   -0.1700   -1.8835 H       1  LIG1        0.0278
     34 H         -10.0888    0.5653   -0.3356 H       1  LIG1        0.0278
     35 C          -7.9158    2.5995   -0.0814 C.ar    1  LIG1        0.0634
     36 C          -7.5301    3.6516    0.7234 C.ar    1  LIG1       -0.0321
     37 C          -8.3503    4.7730    0.4146 C.ar    1  LIG1       -0.0325
     38 C          -9.2146    4.3654   -0.5705 C.ar    1  LIG1        0.0051
     39 N          -8.9508    3.0514   -0.8620 N.ar    1  LIG1       -0.3593
     40 H          -9.3782    2.5177   -1.5995 H       1  LIG1        0.1654
     41 H          -9.9988    4.9060   -1.0790 H       1  LIG1        0.0809
     42 H          -6.7674    3.6106    1.4895 H       1  LIG1        0.0642
     43 C          -8.2995    6.1270    1.0516 C.3     1  LIG1       -0.0383
     44 H          -9.0451    6.7957    0.6146 H       1  LIG1        0.0278
     45 H          -7.3190    6.5966    0.9233 H       1  LIG1        0.0278
     46 H          -8.4936    6.0745    2.1277 H       1  LIG1        0.0278
@<TRIPOS>BOND
     1    33    31    1
     2    40    39    1
     3    41    38    1
     4     7     1    1
     5    11     9    1
     6    18    17    1
     7     8     2    1
     8    39    38   ar
     9    39    35   ar
    10     1     2   ar
    11     1     5   ar
    12    31    26    1
    13    31    32    1
    14    31    34    1
    15     2     3   ar
    16     6     5    1
    17    30    25    1
    18    38    37   ar
    19     5     4   ar
    20    26    25   ar
    21    26    27   ar
    22    25    24   ar
    23     3     4   ar
    24     3     9    1
    25     4    13    1
    26    17    13   ar
    27    17    16   ar
    28    27    35    1
    29    27    28   ar
    30     9    12    1
    31     9    10    1
    32    35    36   ar
    33    24    28   ar
    34    24    16    1
    35    28    29    1
    36    13    14   ar
    37    16    15   ar
    38    37    36   ar
    39    37    43    1
    40    44    43    1
    41    14    15   ar
    42    14    19    1
    43    22    20    1
    44    15    20    1
    45    36    42    1
    46    45    43    1
    47    43    46    1
    48    20    23    1
    49    20    21    1
