@<TRIPOS>MOLECULE
mol_data/opt/cam/geoms/mol2/13ai13ai-.out
 24 25 0 0 0
SMALL
GASTEIGER

@<TRIPOS>ATOM
      1 C           1.2165   -0.3021   -0.3221 C.ar    1  LIG1        0.0025
      2 C           0.8535    0.9820   -0.0090 C.ar    1  LIG1       -0.0409
      3 C          -0.5627    1.0189    0.1231 C.ar    1  LIG1       -0.0238
      4 C          -1.0205   -0.2635   -0.1220 C.ar    1  LIG1        0.0658
      5 N           0.0757   -1.0509   -0.3861 N.ar    1  LIG1       -0.3593
      6 H           0.0160   -2.0189   -0.6542 H       1  LIG1        0.1654
      7 H           2.1865   -0.7398   -0.5013 H       1  LIG1        0.0807
      8 H           1.5276    1.8159    0.1284 H       1  LIG1        0.0635
      9 C          -1.3867    2.2158    0.4905 C.3     1  LIG1       -0.0377
     10 H          -2.3270    1.9235    0.9658 H       1  LIG1        0.0278
     11 H          -1.6309    2.8388   -0.3788 H       1  LIG1        0.0278
     12 H          -0.8495    2.8563    1.1950 H       1  LIG1        0.0278
     13 C          -2.3538   -0.8405   -0.1185 C.ar    1  LIG1        0.0634
     14 C          -2.7888   -2.1012    0.2332 C.ar    1  LIG1       -0.0321
     15 C          -4.1952   -2.1624    0.0212 C.ar    1  LIG1       -0.0325
     16 C          -4.5730   -0.9309   -0.4521 C.ar    1  LIG1        0.0051
     17 N          -3.4577   -0.1363   -0.5301 N.ar    1  LIG1       -0.3593
     18 H          -3.4241    0.7917   -0.9166 H       1  LIG1        0.1654
     19 H          -5.5474   -0.5591   -0.7316 H       1  LIG1        0.0809
     20 H          -2.1689   -2.8867    0.6439 H       1  LIG1        0.0642
     21 C          -5.0939   -3.3310    0.2822 C.3     1  LIG1       -0.0383
     22 H          -5.0757   -3.6273    1.3360 H       1  LIG1        0.0278
     23 H          -4.7977   -4.2068   -0.3040 H       1  LIG1        0.0278
     24 H          -6.1296   -3.0966    0.0240 H       1  LIG1        0.0278
@<TRIPOS>BOND
     1    18    17    1
     2    19    16    1
     3     6     5    1
     4    17    16   ar
     5    17    13   ar
     6     7     1    1
     7    16    15   ar
     8     5     1   ar
     9     5     4   ar
    10    11     9    1
    11     1     2   ar
    12    23    21    1
    13     4    13    1
    14     4     3   ar
    15    13    14   ar
    16     2     3   ar
    17     2     8    1
    18    15    14   ar
    19    15    21    1
    20    24    21    1
    21     3     9    1
    22    14    20    1
    23    21    22    1
    24     9    10    1
    25     9    12    1
