@<TRIPOS>MOLECULE
mol_data/opt/cam/geoms/mol2/13ai13ai.out
 24 25 0 0 0
SMALL
GASTEIGER

@<TRIPOS>ATOM
      1 C           1.2161   -0.3465   -0.4463 C.ar    1  LIG1        0.0025
      2 C           0.8754    0.9424   -0.1331 C.ar    1  LIG1       -0.0409
      3 C          -0.5313    0.9867    0.0862 C.ar    1  LIG1       -0.0238
      4 C          -1.0061   -0.2951   -0.1062 C.ar    1  LIG1        0.0658
      5 N           0.0737   -1.0992   -0.4140 N.ar    1  LIG1       -0.3593
      6 H          -0.0078   -2.0470   -0.7426 H       1  LIG1        0.1654
      7 H           2.1719   -0.7882   -0.6837 H       1  LIG1        0.0807
      8 H           1.5594    1.7754   -0.0506 H       1  LIG1        0.0635
      9 C          -1.3362    2.1853    0.4806 C.3     1  LIG1       -0.0377
     10 H          -2.3170    1.8890    0.8597 H       1  LIG1        0.0278
     11 H          -1.5014    2.8622   -0.3649 H       1  LIG1        0.0278
     12 H          -0.8303    2.7622    1.2604 H       1  LIG1        0.0278
     13 C          -2.3455   -0.8515   -0.0020 C.ar    1  LIG1        0.0634
     14 C          -3.5686   -0.3840   -0.4264 C.ar    1  LIG1       -0.0321
     15 C          -4.5629   -1.3375   -0.0617 C.ar    1  LIG1       -0.0325
     16 C          -3.9090   -2.3624    0.5730 C.ar    1  LIG1        0.0051
     17 N          -2.5666   -2.0738    0.5938 N.ar    1  LIG1       -0.3593
     18 H          -1.8757   -2.5692    1.1324 H       1  LIG1        0.1654
     19 H          -4.2933   -3.2751    1.0036 H       1  LIG1        0.0809
     20 H          -3.7268    0.5318   -0.9780 H       1  LIG1        0.0642
     21 C          -6.0322   -1.2518   -0.3359 C.3     1  LIG1       -0.0383
     22 H          -6.5600   -2.1188    0.0694 H       1  LIG1        0.0278
     23 H          -6.2416   -1.2102   -1.4097 H       1  LIG1        0.0278
     24 H          -6.4732   -0.3563    0.1132 H       1  LIG1        0.0278
@<TRIPOS>BOND
     1    23    21    1
     2    20    14    1
     3     6     5    1
     4     7     1    1
     5     1     5   ar
     6     1     2   ar
     7    14    15   ar
     8    14    13   ar
     9     5     4   ar
    10    11     9    1
    11    21    15    1
    12    21    22    1
    13    21    24    1
    14     2     8    1
    15     2     3   ar
    16     4    13    1
    17     4     3   ar
    18    15    16   ar
    19    13    17   ar
    20     3     9    1
    21     9    10    1
    22     9    12    1
    23    16    17   ar
    24    16    19    1
    25    17    18    1
