@<TRIPOS>MOLECULE
mol_data/opt/cam/geoms/mol2/13ai13ai-13ai-13ai-.out
 46 49 0 0 0
SMALL
GASTEIGER

@<TRIPOS>ATOM
      1 C           1.2738   -0.4725   -0.8941 C.ar    1  LIG1        0.0025
      2 C           0.9889    0.8521   -0.6861 C.ar    1  LIG1       -0.0409
      3 C          -0.3787    0.9538   -0.3085 C.ar    1  LIG1       -0.0238
      4 C          -0.8882   -0.3333   -0.3021 C.ar    1  LIG1        0.0658
      5 N           0.1326   -1.1843   -0.6561 N.ar    1  LIG1       -0.3593
      6 H           0.0140   -2.1747   -0.7888 H       1  LIG1        0.1654
      7 H           2.1894   -0.9616   -1.1891 H       1  LIG1        0.0807
      8 H           1.6860    1.6730   -0.7793 H       1  LIG1        0.0635
      9 C          -1.1076    2.2150    0.0437 C.3     1  LIG1       -0.0377
     10 H          -1.9346    2.0186    0.7316 H       1  LIG1        0.0278
     11 H          -1.5198    2.7207   -0.8383 H       1  LIG1        0.0278
     12 H          -0.4373    2.9281    0.5306 H       1  LIG1        0.0278
     13 C          -2.2034   -0.8578    0.0135 C.ar    1  LIG1        0.0639
     14 C          -2.5863   -2.0674    0.5518 C.ar    1  LIG1       -0.0314
     15 C          -4.0064   -2.1027    0.6157 C.ar    1  LIG1       -0.0231
     16 C          -4.4596   -0.9008    0.1103 C.ar    1  LIG1        0.0663
     17 N          -3.3528   -0.1466   -0.2331 N.ar    1  LIG1       -0.3517
     18 H          -3.3862    0.6672   -0.8256 H       1  LIG1        0.1660
     19 H          -1.9154   -2.8316    0.9204 H       1  LIG1        0.0642
     20 C          -4.8457   -3.2096    1.1717 C.3     1  LIG1       -0.0376
     21 H          -4.4061   -3.6171    2.0868 H       1  LIG1        0.0278
     22 H          -4.9458   -4.0402    0.4643 H       1  LIG1        0.0278
     23 H          -5.8523   -2.8562    1.4062 H       1  LIG1        0.0278
     24 C          -5.8018   -0.3707   -0.0455 C.ar    1  LIG1        0.0639
     25 C          -6.9803   -0.9600   -0.4496 C.ar    1  LIG1       -0.0314
     26 C          -8.0045    0.0247   -0.4374 C.ar    1  LIG1       -0.0231
     27 C          -7.4205    1.2079   -0.0283 C.ar    1  LIG1        0.0663
     28 N          -6.0849    0.9513    0.2066 N.ar    1  LIG1       -0.3517
     29 H          -5.4155    1.6337    0.5223 H       1  LIG1        0.1660
     30 H          -7.0889   -1.9930   -0.7478 H       1  LIG1        0.0642
     31 C          -9.4438   -0.1819   -0.7912 C.3     1  LIG1       -0.0376
     32 H          -9.8250   -1.1127   -0.3613 H       1  LIG1        0.0278
     33 H          -9.5933   -0.2423   -1.8748 H       1  LIG1        0.0278
     34 H         -10.0589    0.6413   -0.4207 H       1  LIG1        0.0278
     35 C          -7.9814    2.5305    0.1926 C.ar    1  LIG1        0.0634
     36 C          -8.8754    3.2793   -0.5389 C.ar    1  LIG1       -0.0321
     37 C          -9.0833    4.5156    0.1384 C.ar    1  LIG1       -0.0325
     38 C          -8.3022    4.4812    1.2650 C.ar    1  LIG1        0.0051
     39 N          -7.6237    3.2875    1.2875 N.ar    1  LIG1       -0.3593
     40 H          -7.1163    2.9281    2.0791 H       1  LIG1        0.1654
     41 H          -8.1716    5.2150    2.0465 H       1  LIG1        0.0809
     42 H          -9.3049    2.9842   -1.4857 H       1  LIG1        0.0642
     43 C          -9.9637    5.6434   -0.3024 C.3     1  LIG1       -0.0383
     44 H         -11.0040    5.3212   -0.4124 H       1  LIG1        0.0278
     45 H          -9.6481    6.0490   -1.2690 H       1  LIG1        0.0278
     46 H          -9.9463    6.4629    0.4204 H       1  LIG1        0.0278
@<TRIPOS>BOND
     1    33    31    1
     2    42    36    1
     3    45    43    1
     4     7     1    1
     5     1     2   ar
     6     1     5   ar
     7    11     9    1
     8    18    17    1
     9    31    26    1
    10    31    34    1
    11    31    32    1
    12     6     5    1
    13     8     2    1
    14    30    25    1
    15     2     3   ar
    16     5     4   ar
    17    36    37   ar
    18    36    35   ar
    19    25    26   ar
    20    25    24   ar
    21    26    27   ar
    22    44    43    1
    23     3     4   ar
    24     3     9    1
    25    43    37    1
    26    43    46    1
    27     4    13    1
    28    17    13   ar
    29    17    16   ar
    30    24    16    1
    31    24    28   ar
    32    27    35    1
    33    27    28   ar
    34    13    14   ar
    35     9    12    1
    36     9    10    1
    37    16    15   ar
    38    37    38   ar
    39    35    39   ar
    40    28    29    1
    41    22    20    1
    42    14    15   ar
    43    14    19    1
    44    15    20    1
    45    20    23    1
    46    20    21    1
    47    38    39   ar
    48    38    41    1
    49    39    40    1
