@<TRIPOS>MOLECULE
mol_data/opt/cam/geoms/mol2/13ai13ai13ai-13ai-.out
 46 49 0 0 0
SMALL
GASTEIGER

@<TRIPOS>ATOM
      1 C           1.0801   -0.2303   -1.3867 C.ar    1  LIG1        0.0025
      2 C           0.9734    0.8911   -0.6078 C.ar    1  LIG1       -0.0409
      3 C          -0.3398    0.9238   -0.0582 C.ar    1  LIG1       -0.0238
      4 C          -0.9983   -0.1944   -0.5298 C.ar    1  LIG1        0.0658
      5 N          -0.1136   -0.8963   -1.3253 N.ar    1  LIG1       -0.3593
      6 H          -0.3757   -1.6709   -1.9121 H       1  LIG1        0.1654
      7 H           1.9038   -0.6096   -1.9720 H       1  LIG1        0.0807
      8 H           1.7566    1.6142   -0.4286 H       1  LIG1        0.0635
      9 C          -0.8899    1.9547    0.8771 C.3     1  LIG1       -0.0377
     10 H          -1.7776    1.5812    1.3927 H       1  LIG1        0.0278
     11 H          -1.1769    2.8720    0.3510 H       1  LIG1        0.0278
     12 H          -0.1509    2.2353    1.6331 H       1  LIG1        0.0278
     13 C          -2.3438   -0.6874   -0.2916 C.ar    1  LIG1        0.0639
     14 C          -3.5585   -0.0405   -0.2186 C.ar    1  LIG1       -0.0314
     15 C          -4.5691   -1.0070    0.0275 C.ar    1  LIG1       -0.0231
     16 C          -3.9407   -2.2389    0.0925 C.ar    1  LIG1        0.0663
     17 N          -2.5966   -2.0263   -0.1115 N.ar    1  LIG1       -0.3517
     18 H          -1.8933   -2.7426   -0.0321 H       1  LIG1        0.1660
     19 H          -3.7087    1.0210   -0.3547 H       1  LIG1        0.0642
     20 C          -6.0325   -0.7299    0.1923 C.3     1  LIG1       -0.0376
     21 H          -6.5046   -1.4572    0.8587 H       1  LIG1        0.0278
     22 H          -6.5733   -0.7504   -0.7622 H       1  LIG1        0.0278
     23 H          -6.1914    0.2620    0.6227 H       1  LIG1        0.0278
     24 C          -4.4438   -3.5752    0.3414 C.ar    1  LIG1        0.0639
     25 C          -3.8386   -4.6752    0.9114 C.ar    1  LIG1       -0.0314
     26 C          -4.7568   -5.7600    0.8836 C.ar    1  LIG1       -0.0231
     27 C          -5.9122   -5.2907    0.2917 C.ar    1  LIG1        0.0663
     28 N          -5.7145   -3.9580   -0.0148 N.ar    1  LIG1       -0.3517
     29 H          -6.3061   -3.4292   -0.6348 H       1  LIG1        0.1660
     30 H          -2.8546   -4.6909    1.3609 H       1  LIG1        0.0642
     31 C          -4.5311   -7.1321    1.4361 C.3     1  LIG1       -0.0376
     32 H          -4.0067   -7.0899    2.3951 H       1  LIG1        0.0278
     33 H          -3.9244   -7.7483    0.7633 H       1  LIG1        0.0278
     34 H          -5.4797   -7.6515    1.5898 H       1  LIG1        0.0278
     35 C          -7.1842   -5.9360    0.0200 C.ar    1  LIG1        0.0634
     36 C          -7.4943   -7.2027   -0.4228 C.ar    1  LIG1       -0.0321
     37 C          -8.9120   -7.3074   -0.5188 C.ar    1  LIG1       -0.0325
     38 C          -9.4219   -6.0939   -0.1332 C.ar    1  LIG1        0.0051
     39 N          -8.3748   -5.2614    0.1766 N.ar    1  LIG1       -0.3593
     40 H          -8.4598   -4.3686    0.6335 H       1  LIG1        0.1654
     41 H         -10.4455   -5.7573   -0.0629 H       1  LIG1        0.0809
     42 H          -6.7740   -7.9627   -0.6900 H       1  LIG1        0.0642
     43 C          -9.6948   -8.4998   -0.9732 C.3     1  LIG1       -0.0383
     44 H          -9.4937   -9.3747   -0.3470 H       1  LIG1        0.0278
     45 H          -9.4480   -8.7769   -2.0031 H       1  LIG1        0.0278
     46 H         -10.7693   -8.3046   -0.9329 H       1  LIG1        0.0278
@<TRIPOS>BOND
     1    45    43    1
     2     7     1    1
     3     6     5    1
     4     1     5   ar
     5     1     2   ar
     6     5     4   ar
     7    43    46    1
     8    43    37    1
     9    43    44    1
    10    22    20    1
    11    42    36    1
    12    29    28    1
    13     2     8    1
    14     2     3   ar
    15     4    13    1
    16     4     3   ar
    17    37    36   ar
    18    37    38   ar
    19    36    35   ar
    20    19    14    1
    21    13    14   ar
    22    13    17   ar
    23    14    15   ar
    24    38    41    1
    25    38    39   ar
    26    17    18    1
    27    17    16   ar
    28     3     9    1
    29    28    27   ar
    30    28    24   ar
    31    35    39   ar
    32    35    27    1
    33    15    16   ar
    34    15    20    1
    35    16    24    1
    36    39    40    1
    37    20    23    1
    38    20    21    1
    39    27    26   ar
    40    24    25   ar
    41    11     9    1
    42    33    31    1
    43     9    10    1
    44     9    12    1
    45    26    25   ar
    46    26    31    1
    47    25    30    1
    48    31    34    1
    49    31    32    1
