@<TRIPOS>MOLECULE
mol_data/opt/cam/geoms/mol2/13ai13ai-13ai13ai-.out
 46 49 0 0 0
SMALL
GASTEIGER

@<TRIPOS>ATOM
      1 C           1.1914   -0.3287   -1.0489 C.ar    1  LIG1        0.0025
      2 C           0.9325    0.9515   -0.6329 C.ar    1  LIG1       -0.0409
      3 C          -0.4102    0.9996   -0.1659 C.ar    1  LIG1       -0.0238
      4 C          -0.9320   -0.2732   -0.3190 C.ar    1  LIG1        0.0658
      5 N           0.0578   -1.0653   -0.8525 N.ar    1  LIG1       -0.3593
      6 H          -0.0777   -2.0256   -1.1206 H       1  LIG1        0.1654
      7 H           2.0837   -0.7713   -1.4640 H       1  LIG1        0.0807
      8 H           1.6318    1.7757   -0.6442 H       1  LIG1        0.0635
      9 C          -1.1050    2.1967    0.4090 C.3     1  LIG1       -0.0377
     10 H          -1.8763    1.9064    1.1277 H       1  LIG1        0.0278
     11 H          -1.5829    2.8138   -0.3622 H       1  LIG1        0.0278
     12 H          -0.3954    2.8423    0.9328 H       1  LIG1        0.0278
     13 C          -2.2322   -0.8349   -0.0058 C.ar    1  LIG1        0.0639
     14 C          -2.5966   -2.1115    0.3710 C.ar    1  LIG1       -0.0314
     15 C          -4.0067   -2.1470    0.5315 C.ar    1  LIG1       -0.0231
     16 C          -4.4739   -0.8757    0.2454 C.ar    1  LIG1        0.0663
     17 N          -3.3852   -0.0962   -0.0709 N.ar    1  LIG1       -0.3517
     18 H          -3.4484    0.8380   -0.4403 H       1  LIG1        0.1660
     19 H          -1.9154   -2.9279    0.5693 H       1  LIG1        0.0642
     20 C          -4.8155   -3.3278    0.9752 C.3     1  LIG1       -0.0376
     21 H          -4.2314   -3.9704    1.6390 H       1  LIG1        0.0278
     22 H          -5.1386   -3.9534    0.1337 H       1  LIG1        0.0278
     23 H          -5.7100   -3.0182    1.5224 H       1  LIG1        0.0278
     24 C          -5.8047   -0.3035    0.2572 C.ar    1  LIG1        0.0639
     25 C          -6.2260    0.9906    0.4875 C.ar    1  LIG1       -0.0314
     26 C          -7.6390    1.0321    0.3559 C.ar    1  LIG1       -0.0231
     27 C          -8.0502   -0.2517    0.0432 C.ar    1  LIG1        0.0663
     28 N          -6.9277   -1.0457   -0.0051 N.ar    1  LIG1       -0.3517
     29 H          -6.9260   -1.9971   -0.3332 H       1  LIG1        0.1660
     30 H          -5.5912    1.8166    0.7784 H       1  LIG1        0.0642
     31 C          -8.5102    2.2325    0.5692 C.3     1  LIG1       -0.0376
     32 H          -9.5136    1.9455    0.8950 H       1  LIG1        0.0278
     33 H          -8.6136    2.8406   -0.3381 H       1  LIG1        0.0278
     34 H          -8.0904    2.8853    1.3390 H       1  LIG1        0.0278
     35 C          -9.3617   -0.8265   -0.1901 C.ar    1  LIG1        0.0634
     36 C          -9.8429   -2.0962    0.0544 C.ar    1  LIG1       -0.0321
     37 C         -11.1940   -2.1533   -0.3895 C.ar    1  LIG1       -0.0325
     38 C         -11.4939   -0.9113   -0.8903 C.ar    1  LIG1        0.0051
     39 N         -10.3856   -0.1131   -0.7624 N.ar    1  LIG1       -0.3593
     40 H         -10.2932    0.8223   -1.1202 H       1  LIG1        0.1654
     41 H         -12.4099   -0.5340   -1.3199 H       1  LIG1        0.0809
     42 H          -9.2953   -2.8909    0.5428 H       1  LIG1        0.0642
     43 C         -12.1178   -3.3286   -0.3087 C.3     1  LIG1       -0.0383
     44 H         -12.2760   -3.6475    0.7266 H       1  LIG1        0.0278
     45 H         -11.7220   -4.1909   -0.8547 H       1  LIG1        0.0278
     46 H         -13.0963   -3.0904   -0.7330 H       1  LIG1        0.0278
@<TRIPOS>BOND
     1     7     1    1
     2    41    38    1
     3     6     5    1
     4    40    39    1
     5     1     5   ar
     6     1     2   ar
     7    38    39   ar
     8    38    37   ar
     9    45    43    1
    10     5     4   ar
    11    39    35   ar
    12    46    43    1
    13     8     2    1
    14     2     3   ar
    15    18    17    1
    16    37    43    1
    17    37    36   ar
    18    11     9    1
    19    33    31    1
    20    29    28    1
    21     4     3   ar
    22     4    13    1
    23    43    44    1
    24    35    27    1
    25    35    36   ar
    26     3     9    1
    27    17    13   ar
    28    17    16   ar
    29    13    14   ar
    30    28    27   ar
    31    28    24   ar
    32    27    26   ar
    33    36    42    1
    34    22    20    1
    35    16    24    1
    36    16    15   ar
    37    24    25   ar
    38    26    25   ar
    39    26    31    1
    40    14    15   ar
    41    14    19    1
    42     9    12    1
    43     9    10    1
    44    25    30    1
    45    15    20    1
    46    31    32    1
    47    31    34    1
    48    20    23    1
    49    20    21    1
