@<TRIPOS>MOLECULE
mol_data/opt/cam/geoms/mol2/13ai13ai13ai13ai-.out
 46 49 0 0 0
SMALL
GASTEIGER

@<TRIPOS>ATOM
      1 C           0.6779    0.3828   -1.9146 C.ar    1  LIG1        0.0025
      2 C           0.7899    1.1258   -0.7698 C.ar    1  LIG1       -0.0409
      3 C          -0.3634    0.8819    0.0296 C.ar    1  LIG1       -0.0238
      4 C          -1.1506   -0.0129   -0.6669 C.ar    1  LIG1        0.0658
      5 N          -0.4934   -0.3212   -1.8427 N.ar    1  LIG1       -0.3593
      6 H          -0.9129   -0.8254   -2.6062 H       1  LIG1        0.1654
      7 H           1.3335    0.2940   -2.7674 H       1  LIG1        0.0807
      8 H           1.6185    1.7705   -0.5124 H       1  LIG1        0.0635
      9 C          -0.6516    1.4593    1.3800 C.3     1  LIG1       -0.0377
     10 H          -1.4421    0.8985    1.8840 H       1  LIG1        0.0278
     11 H          -0.9787    2.5028    1.3155 H       1  LIG1        0.0278
     12 H           0.2379    1.4398    2.0166 H       1  LIG1        0.0278
     13 C          -2.4237   -0.6318   -0.3361 C.ar    1  LIG1        0.0639
     14 C          -3.5809   -0.1176    0.2063 C.ar    1  LIG1       -0.0314
     15 C          -4.5355   -1.1648    0.3104 C.ar    1  LIG1       -0.0231
     16 C          -3.9349   -2.3072   -0.1827 C.ar    1  LIG1        0.0663
     17 N          -2.6543   -1.9675   -0.5700 N.ar    1  LIG1       -0.3517
     18 H          -1.9795   -2.6069   -0.9565 H       1  LIG1        0.1660
     19 H          -3.7319    0.9165    0.4814 H       1  LIG1        0.0642
     20 C          -5.9233   -1.0544    0.8591 C.3     1  LIG1       -0.0376
     21 H          -6.3185   -2.0379    1.1236 H       1  LIG1        0.0278
     22 H          -6.6143   -0.6056    0.1369 H       1  LIG1        0.0278
     23 H          -5.9425   -0.4276    1.7552 H       1  LIG1        0.0278
     24 C          -4.4207   -3.6710   -0.3000 C.ar    1  LIG1        0.0639
     25 C          -5.6376   -4.1783   -0.7012 C.ar    1  LIG1       -0.0314
     26 C          -5.5794   -5.5957   -0.6340 C.ar    1  LIG1       -0.0231
     27 C          -4.3089   -5.9255   -0.1958 C.ar    1  LIG1        0.0663
     28 N          -3.6192   -4.7497   -0.0084 N.ar    1  LIG1       -0.3517
     29 H          -2.7005   -4.6977    0.4009 H       1  LIG1        0.1660
     30 H          -6.4793   -3.5882   -1.0345 H       1  LIG1        0.0642
     31 C          -6.6935   -6.5413   -0.9660 C.3     1  LIG1       -0.0376
     32 H          -6.6136   -7.4708   -0.3956 H       1  LIG1        0.0278
     33 H          -6.7180   -6.8029   -2.0312 H       1  LIG1        0.0278
     34 H          -7.6626   -6.0946   -0.7299 H       1  LIG1        0.0278
     35 C          -3.6770   -7.2006    0.0907 C.ar    1  LIG1        0.0634
     36 C          -2.7131   -7.5396    1.0178 C.ar    1  LIG1       -0.0321
     37 C          -2.4176   -8.9238    0.8680 C.ar    1  LIG1       -0.0325
     38 C          -3.2163   -9.3858   -0.1481 C.ar    1  LIG1        0.0051
     39 N          -3.9772   -8.3425   -0.6098 N.ar    1  LIG1       -0.3593
     40 H          -4.5967   -8.3747   -1.4015 H       1  LIG1        0.1654
     41 H          -3.3058  -10.3753   -0.5708 H       1  LIG1        0.0809
     42 H          -2.2937   -6.8749    1.7612 H       1  LIG1        0.0642
     43 C          -1.4441   -9.7274    1.6728 C.3     1  LIG1       -0.0383
     44 H          -1.7039   -9.7291    2.7362 H       1  LIG1        0.0278
     45 H          -0.4273   -9.3304    1.5899 H       1  LIG1        0.0278
     46 H          -1.4203  -10.7674    1.3380 H       1  LIG1        0.0278
@<TRIPOS>BOND
     1     7     1    1
     2     6     5    1
     3    33    31    1
     4     1     5   ar
     5     1     2   ar
     6     5     4   ar
     7    40    39    1
     8    30    25    1
     9    31    34    1
    10    31    26    1
    11    31    32    1
    12    18    17    1
    13     2     8    1
    14     2     3   ar
    15    25    26   ar
    16    25    24   ar
    17     4    13    1
    18     4     3   ar
    19    26    27   ar
    20    39    38   ar
    21    39    35   ar
    22    41    38    1
    23    17    13   ar
    24    17    16   ar
    25    13    14   ar
    26    24    16    1
    27    24    28   ar
    28    27    28   ar
    29    27    35    1
    30    16    15   ar
    31    38    37   ar
    32    28    29    1
    33     3     9    1
    34    35    36   ar
    35    22    20    1
    36    14    15   ar
    37    14    19    1
    38    15    20    1
    39    20    21    1
    40    20    23    1
    41    37    36   ar
    42    37    43    1
    43    36    42    1
    44    11     9    1
    45    46    43    1
    46     9    10    1
    47     9    12    1
    48    45    43    1
    49    43    44    1
