@<TRIPOS>MOLECULE
mol_data/opt/cam/geoms/mol2/13ai13ai13ai-13ai.out
 46 49 0 0 0
SMALL
GASTEIGER

@<TRIPOS>ATOM
      1 C           1.0809   -0.1636   -1.3514 C.ar    1  LIG1        0.0025
      2 C           0.9635    0.9328   -0.5391 C.ar    1  LIG1       -0.0409
      3 C          -0.3494    0.9354    0.0125 C.ar    1  LIG1       -0.0238
      4 C          -0.9968   -0.1751   -0.4916 C.ar    1  LIG1        0.0658
      5 N          -0.1057   -0.8437   -1.3085 N.ar    1  LIG1       -0.3593
      6 H          -0.3616   -1.6017   -1.9192 H       1  LIG1        0.1654
      7 H           1.9077   -0.5164   -1.9487 H       1  LIG1        0.0807
      8 H           1.7394    1.6583   -0.3391 H       1  LIG1        0.0635
      9 C          -0.9092    1.9319    0.9788 C.3     1  LIG1       -0.0377
     10 H          -1.7938    1.5346    1.4818 H       1  LIG1        0.0278
     11 H          -1.2041    2.8624    0.4811 H       1  LIG1        0.0278
     12 H          -0.1732    2.1956    1.7439 H       1  LIG1        0.0278
     13 C          -2.3367   -0.6893   -0.2675 C.ar    1  LIG1        0.0639
     14 C          -3.5581   -0.0581   -0.1719 C.ar    1  LIG1       -0.0314
     15 C          -4.5582   -1.0425    0.0446 C.ar    1  LIG1       -0.0231
     16 C          -3.9167   -2.2691    0.0689 C.ar    1  LIG1        0.0663
     17 N          -2.5751   -2.0361   -0.1307 N.ar    1  LIG1       -0.3517
     18 H          -1.8632   -2.7457   -0.0719 H       1  LIG1        0.1660
     19 H          -3.7202    1.0054   -0.2738 H       1  LIG1        0.0642
     20 C          -6.0243   -0.7861    0.2189 C.3     1  LIG1       -0.0376
     21 H          -6.4825   -1.5127    0.8959 H       1  LIG1        0.0278
     22 H          -6.5723   -0.8227   -0.7311 H       1  LIG1        0.0278
     23 H          -6.1937    0.2074    0.6412 H       1  LIG1        0.0278
     24 C          -4.4066   -3.6169    0.2769 C.ar    1  LIG1        0.0639
     25 C          -3.7834   -4.7338    0.7966 C.ar    1  LIG1       -0.0314
     26 C          -4.7003   -5.8171    0.7612 C.ar    1  LIG1       -0.0231
     27 C          -5.8742   -5.3298    0.2138 C.ar    1  LIG1        0.0663
     28 N          -5.6786   -3.9975   -0.0662 N.ar    1  LIG1       -0.3517
     29 H          -6.3317   -3.4295   -0.5797 H       1  LIG1        0.1660
     30 H          -2.7867   -4.7632    1.2164 H       1  LIG1        0.0642
     31 C          -4.4485   -7.2043    1.2689 C.3     1  LIG1       -0.0376
     32 H          -3.7707   -7.1875    2.1263 H       1  LIG1        0.0278
     33 H          -3.9842   -7.8488    0.5121 H       1  LIG1        0.0278
     34 H          -5.3749   -7.6856    1.5940 H       1  LIG1        0.0278
     35 C          -7.1575   -5.9511   -0.0543 C.ar    1  LIG1        0.0634
     36 C          -8.4300   -5.4181   -0.0589 C.ar    1  LIG1       -0.0321
     37 C          -9.3431   -6.4490   -0.4184 C.ar    1  LIG1       -0.0325
     38 C          -8.5946   -7.5815   -0.6200 C.ar    1  LIG1        0.0051
     39 N          -7.2765   -7.2759   -0.3938 N.ar    1  LIG1       -0.3593
     40 H          -6.4978   -7.8940   -0.5454 H       1  LIG1        0.1654
     41 H          -8.8988   -8.5791   -0.8994 H       1  LIG1        0.0809
     42 H          -8.6855   -4.4024    0.2113 H       1  LIG1        0.0642
     43 C         -10.8310   -6.3313   -0.5358 C.3     1  LIG1       -0.0383
     44 H         -11.2793   -7.2834   -0.8303 H       1  LIG1        0.0278
     45 H         -11.1185   -5.5854   -1.2837 H       1  LIG1        0.0278
     46 H         -11.2883   -6.0303    0.4122 H       1  LIG1        0.0278
@<TRIPOS>BOND
     1     7     1    1
     2     6     5    1
     3     1     5   ar
     4     1     2   ar
     5     5     4   ar
     6    45    43    1
     7    41    38    1
     8    44    43    1
     9    22    20    1
    10    38    37   ar
    11    38    39   ar
    12    29    28    1
    13    40    39    1
    14     2     8    1
    15     2     3   ar
    16    43    37    1
    17    43    46    1
    18     4    13    1
    19     4     3   ar
    20    37    36   ar
    21    39    35   ar
    22    19    14    1
    23    13    14   ar
    24    13    17   ar
    25    14    15   ar
    26    17    18    1
    27    17    16   ar
    28    28    27   ar
    29    28    24   ar
    30    36    35   ar
    31    36    42    1
    32    35    27    1
    33     3     9    1
    34    15    16   ar
    35    15    20    1
    36    16    24    1
    37    27    26   ar
    38    20    23    1
    39    20    21    1
    40    24    25   ar
    41    11     9    1
    42    33    31    1
    43    26    25   ar
    44    26    31    1
    45    25    30    1
    46     9    10    1
    47     9    12    1
    48    31    34    1
    49    31    32    1
