@<TRIPOS>MOLECULE
mol_data/opt/cam/geoms/mol2/13ai13ai-4ai13ai.out
 48 51 0 0 0
SMALL
GASTEIGER

@<TRIPOS>ATOM
      1 C           1.2527   -0.4266   -0.9078 C.ar    1  LIG1        0.0025
      2 C           0.9573    0.8926   -0.6801 C.ar    1  LIG1       -0.0409
      3 C          -0.4018    0.9746   -0.2692 C.ar    1  LIG1       -0.0238
      4 C          -0.8961   -0.3184   -0.2636 C.ar    1  LIG1        0.0658
      5 N           0.1257   -1.1541   -0.6501 N.ar    1  LIG1       -0.3593
      6 H           0.0165   -2.1449   -0.7873 H       1  LIG1        0.1654
      7 H           2.1668   -0.9021   -1.2285 H       1  LIG1        0.0807
      8 H           1.6424    1.7226   -0.7814 H       1  LIG1        0.0635
      9 C          -1.1375    2.2232    0.1128 C.3     1  LIG1       -0.0377
     10 H          -1.9278    2.0159    0.8397 H       1  LIG1        0.0278
     11 H          -1.5995    2.7178   -0.7507 H       1  LIG1        0.0278
     12 H          -0.4584    2.9503    0.5653 H       1  LIG1        0.0278
     13 C          -2.1968   -0.8599    0.0807 C.ar    1  LIG1        0.0638
     14 C          -2.5531   -2.0814    0.6148 C.ar    1  LIG1       -0.0315
     15 C          -3.9676   -2.1312    0.7179 C.ar    1  LIG1       -0.0246
     16 C          -4.4498   -0.9225    0.2437 C.ar    1  LIG1        0.0499
     17 N          -3.3583   -0.1629   -0.1224 N.ar    1  LIG1       -0.3528
     18 H          -3.4167    0.7010   -0.6359 H       1  LIG1        0.1660
     19 H          -1.8663   -2.8454    0.9534 H       1  LIG1        0.0642
     20 C          -4.7550   -3.2644    1.3018 C.3     1  LIG1       -0.0377
     21 H          -4.1671   -3.7902    2.0587 H       1  LIG1        0.0278
     22 H          -5.0401   -4.0045    0.5451 H       1  LIG1        0.0278
     23 H          -5.6735   -2.9132    1.7780 H       1  LIG1        0.0278
     24 C          -6.0474    0.9873    0.3075 C.ar    1  LIG1       -0.0520
     25 C          -7.3274    1.4940    0.1781 C.ar    1  LIG1       -0.0518
     26 C          -5.8040   -0.3801    0.1352 C.ar    1  LIG1       -0.0012
     27 C          -8.4231    0.6699   -0.1046 C.ar    1  LIG1        0.0012
     28 H          -7.4986    2.5586    0.2956 H       1  LIG1        0.0624
     29 C          -6.8980   -1.2001   -0.1534 C.ar    1  LIG1       -0.0491
     30 C          -8.1972   -0.7110   -0.2634 C.ar    1  LIG1       -0.0407
     31 H          -6.7315   -2.2611   -0.3063 H       1  LIG1        0.0627
     32 H          -5.2310    1.6555    0.5638 H       1  LIG1        0.0624
     33 C          -9.3141   -1.6884   -0.5366 C.3     1  LIG1       -0.0391
     34 H          -9.0185   -2.6972   -0.2413 H       1  LIG1        0.0278
     35 H          -9.5702   -1.7375   -1.6020 H       1  LIG1        0.0278
     36 H         -10.2231   -1.4248    0.0078 H       1  LIG1        0.0278
     37 C          -9.7510    1.2951   -0.1853 C.ar    1  LIG1        0.0470
     38 C         -10.2922    2.3083    0.5777 C.ar    1  LIG1       -0.0335
     39 C         -11.5927    2.6016    0.0826 C.ar    1  LIG1       -0.0326
     40 C         -11.8037    1.7562   -0.9782 C.ar    1  LIG1        0.0051
     41 N         -10.6962    0.9631   -1.1270 N.ar    1  LIG1       -0.3604
     42 H         -10.5503    0.3094   -1.8767 H       1  LIG1        0.1653
     43 H         -12.6577    1.6542   -1.6314 H       1  LIG1        0.0809
     44 H          -9.8109    2.7698    1.4288 H       1  LIG1        0.0641
     45 C         -12.5528    3.6182    0.6177 C.3     1  LIG1       -0.0383
     46 H         -13.4745    3.6371    0.0307 H       1  LIG1        0.0278
     47 H         -12.1264    4.6261    0.5955 H       1  LIG1        0.0278
     48 H         -12.8275    3.4073    1.6563 H       1  LIG1        0.0278
@<TRIPOS>BOND
     1    42    41    1
     2    43    40    1
     3    35    33    1
     4     7     1    1
     5    41    40   ar
     6    41    37   ar
     7    40    39   ar
     8     1     2   ar
     9     1     5   ar
    10     6     5    1
    11     8     2    1
    12    11     9    1
    13     2     3   ar
    14     5     4   ar
    15    18    17    1
    16    33    30    1
    17    33    34    1
    18    33    36    1
    19    31    29    1
    20     3     4   ar
    21     3     9    1
    22     4    13    1
    23    30    29   ar
    24    30    27   ar
    25    37    27    1
    26    37    38   ar
    27    29    26   ar
    28    17    13   ar
    29    17    16   ar
    30    27    25   ar
    31    46    45    1
    32    13    14   ar
    33    39    38   ar
    34    39    45    1
    35     9    12    1
    36     9    10    1
    37    26    16    1
    38    26    24   ar
    39    25    28    1
    40    25    24   ar
    41    16    15   ar
    42    24    32    1
    43    22    20    1
    44    38    44    1
    45    47    45    1
    46    14    15   ar
    47    14    19    1
    48    45    48    1
    49    15    20    1
    50    20    23    1
    51    20    21    1
