@<TRIPOS>MOLECULE
mol_data/opt/cam/geoms/mol2/13ai13ai13ai13ai.out
 46 49 0 0 0
SMALL
GASTEIGER

@<TRIPOS>ATOM
      1 C           0.8036    0.2726   -1.7919 C.ar    1  LIG1        0.0025
      2 C           0.8641    1.0632   -0.6755 C.ar    1  LIG1       -0.0409
      3 C          -0.3332    0.8664    0.0704 C.ar    1  LIG1       -0.0238
      4 C          -1.0936   -0.0494   -0.6285 C.ar    1  LIG1        0.0658
      5 N          -0.3788   -0.4153   -1.7531 N.ar    1  LIG1       -0.3593
      6 H          -0.7636   -0.9471   -2.5162 H       1  LIG1        0.1654
      7 H           1.5022    0.1403   -2.6040 H       1  LIG1        0.0807
      8 H           1.6858    1.7100   -0.4018 H       1  LIG1        0.0635
      9 C          -0.6855    1.5054    1.3771 C.3     1  LIG1       -0.0377
     10 H          -1.5124    0.9789    1.8592 H       1  LIG1        0.0278
     11 H          -0.9902    2.5500    1.2503 H       1  LIG1        0.0278
     12 H           0.1670    1.5001    2.0627 H       1  LIG1        0.0278
     13 C          -2.3912   -0.6393   -0.3417 C.ar    1  LIG1        0.0639
     14 C          -3.5713   -0.0879    0.1063 C.ar    1  LIG1       -0.0314
     15 C          -4.5444   -1.1193    0.2017 C.ar    1  LIG1       -0.0231
     16 C          -3.9311   -2.2898   -0.2008 C.ar    1  LIG1        0.0663
     17 N          -2.6247   -1.9824   -0.5247 N.ar    1  LIG1       -0.3517
     18 H          -1.9401   -2.6445   -0.8510 H       1  LIG1        0.1660
     19 H          -3.7247    0.9597    0.3227 H       1  LIG1        0.0642
     20 C          -5.9613   -0.9692    0.6593 C.3     1  LIG1       -0.0376
     21 H          -6.4009   -1.9413    0.8939 H       1  LIG1        0.0278
     22 H          -6.5892   -0.5001   -0.1059 H       1  LIG1        0.0278
     23 H          -6.0224   -0.3426    1.5539 H       1  LIG1        0.0278
     24 C          -4.4279   -3.6532   -0.2866 C.ar    1  LIG1        0.0639
     25 C          -5.6020   -4.1697   -0.7891 C.ar    1  LIG1       -0.0314
     26 C          -5.5765   -5.5824   -0.6371 C.ar    1  LIG1       -0.0231
     27 C          -4.3705   -5.9010   -0.0437 C.ar    1  LIG1        0.0663
     28 N          -3.6853   -4.7210    0.1626 N.ar    1  LIG1       -0.3517
     29 H          -2.7815   -4.6531    0.6011 H       1  LIG1        0.1660
     30 H          -6.3919   -3.5879   -1.2424 H       1  LIG1        0.0642
     31 C          -6.6538   -6.5417   -1.0353 C.3     1  LIG1       -0.0376
     32 H          -6.5104   -7.5115   -0.5535 H       1  LIG1        0.0278
     33 H          -6.6699   -6.7113   -2.1175 H       1  LIG1        0.0278
     34 H          -7.6409   -6.1638   -0.7541 H       1  LIG1        0.0278
     35 C          -3.8114   -7.1771    0.3722 C.ar    1  LIG1        0.0634
     36 C          -3.7694   -8.4040   -0.2504 C.ar    1  LIG1       -0.0321
     37 C          -3.0956   -9.3192    0.6092 C.ar    1  LIG1       -0.0325
     38 C          -2.7442   -8.6152    1.7324 C.ar    1  LIG1        0.0051
     39 N          -3.1625   -7.3162    1.5802 N.ar    1  LIG1       -0.3593
     40 H          -3.1881   -6.6295    2.3158 H       1  LIG1        0.1654
     41 H          -2.2238   -8.9358    2.6227 H       1  LIG1        0.0809
     42 H          -4.1497   -8.6118   -1.2404 H       1  LIG1        0.0642
     43 C          -2.8059  -10.7620    0.3338 C.3     1  LIG1       -0.0383
     44 H          -2.2939  -11.2295    1.1786 H       1  LIG1        0.0278
     45 H          -2.1687  -10.8857   -0.5478 H       1  LIG1        0.0278
     46 H          -3.7246  -11.3276    0.1494 H       1  LIG1        0.0278
@<TRIPOS>BOND
     1     7     1    1
     2     6     5    1
     3    33    31    1
     4     1     5   ar
     5     1     2   ar
     6     5     4   ar
     7    30    25    1
     8    42    36    1
     9    31    34    1
    10    31    26    1
    11    31    32    1
    12    18    17    1
    13    25    26   ar
    14    25    24   ar
    15     2     8    1
    16     2     3   ar
    17    26    27   ar
    18     4    13    1
    19     4     3   ar
    20    45    43    1
    21    17    13   ar
    22    17    16   ar
    23    13    14   ar
    24    24    16    1
    25    24    28   ar
    26    36    35   ar
    27    36    37   ar
    28    16    15   ar
    29    22    20    1
    30    27    28   ar
    31    27    35    1
    32     3     9    1
    33    14    15   ar
    34    14    19    1
    35    46    43    1
    36    28    29    1
    37    15    20    1
    38    43    37    1
    39    43    44    1
    40    35    39   ar
    41    37    38   ar
    42    20    21    1
    43    20    23    1
    44    11     9    1
    45     9    10    1
    46     9    12    1
    47    39    38   ar
    48    39    40    1
    49    38    41    1
