@<TRIPOS>MOLECULE
mol_data/opt/cam/geoms/mol2/13ai12hf-4fe6ai-.out
 48 51 0 0 0
SMALL
GASTEIGER

@<TRIPOS>ATOM
      1 C           1.1752   -0.0642   -0.6568 C.ar    1  LIG1        0.0025
      2 C           0.8745    1.0734    0.0471 C.ar    1  LIG1       -0.0408
      3 C          -0.5118    1.0441    0.3660 C.ar    1  LIG1       -0.0221
      4 C          -1.0164   -0.1246   -0.1798 C.ar    1  LIG1        0.0870
      5 N           0.0256   -0.7853   -0.7930 N.ar    1  LIG1       -0.3580
      6 H          -0.0746   -1.6717   -1.2587 H       1  LIG1        0.1654
      7 H           2.1101   -0.4164   -1.0653 H       1  LIG1        0.0807
      8 H           1.5739    1.8487    0.3271 H       1  LIG1        0.0635
      9 C          -1.2362    2.0502    1.2085 C.3     1  LIG1       -0.0376
     10 H          -2.3118    1.8689    1.2340 H       1  LIG1        0.0278
     11 H          -1.0744    3.0682    0.8384 H       1  LIG1        0.0278
     12 H          -0.8726    2.0268    2.2412 H       1  LIG1        0.0278
     13 C          -2.3399   -0.7055   -0.2058 C.ar    1  LIG1        0.1762
     14 C          -3.6028   -0.1967   -0.3001 C.ar    1  LIG1        0.1152
     15 C          -4.4828   -1.3192   -0.3533 C.ar    1  LIG1        0.1846
     16 C          -3.7144   -2.4553   -0.3237 C.ar    1  LIG1        0.1824
     17 O          -2.3970   -2.0753   -0.2323 O.2     1  LIG1       -0.4475
     18 N          -4.0425    1.1273   -0.3217 N.pl3   1  LIG1       -0.3521
     19 H          -3.4273    1.7420   -0.8397 H       1  LIG1        0.1425
     20 H          -4.9930    1.1896   -0.6655 H       1  LIG1        0.1425
     21 O          -5.8156   -1.1318   -0.4261 O.3     1  LIG1       -0.5020
     22 H          -6.2259   -1.9844   -0.6528 H       1  LIG1        0.2924
     23 C          -5.1614   -4.4921   -0.6746 C.ar    1  LIG1        0.1283
     24 C          -5.3300   -5.8652   -0.6231 C.ar    1  LIG1       -0.0105
     25 C          -3.9529   -3.8891   -0.2967 C.ar    1  LIG1        0.0635
     26 C          -4.3060   -6.7196   -0.2180 C.ar    1  LIG1        0.0024
     27 H          -6.2771   -6.2936   -0.9417 H       1  LIG1        0.0661
     28 C          -2.9315   -4.7512    0.1102 C.ar    1  LIG1       -0.0314
     29 C          -3.0785   -6.1387    0.1536 C.ar    1  LIG1        0.0333
     30 H          -1.9883   -4.3187    0.4172 H       1  LIG1        0.0638
     31 O          -6.1790   -3.6865   -1.1300 O.3     1  LIG1       -0.5060
     32 H          -6.9379   -4.2255   -1.3819 H       1  LIG1        0.2922
     33 C          -1.9749   -6.9221    0.6257 C.1     1  LIG1       -0.0690
     34 C          -1.0287   -7.5452    1.0324 C.1     1  LIG1       -0.1139
     35 H          -0.1987   -8.1087    1.3919 H       1  LIG1        0.1232
     36 C          -3.6774   -9.0891   -0.7893 C.ar    1  LIG1        0.0353
     37 C          -4.5544   -8.1799   -0.1879 C.ar    1  LIG1        0.0018
     38 C          -5.6993   -8.7011    0.4089 C.ar    1  LIG1       -0.0482
     39 C          -5.9348  -10.0734    0.4025 C.ar    1  LIG1       -0.0318
     40 C          -4.9817  -10.8701   -0.2257 C.ar    1  LIG1        0.0305
     41 N          -3.8810  -10.4008   -0.8124 N.ar    1  LIG1       -0.2624
     42 H          -6.4018   -8.0323    0.8997 H       1  LIG1        0.0627
     43 H          -5.1173  -11.9499   -0.2563 H       1  LIG1        0.0832
     44 H          -2.7772   -8.7300   -1.2793 H       1  LIG1        0.0836
     45 C          -7.1541  -10.6700    1.0494 C.3     1  LIG1       -0.0383
     46 H          -7.1575  -11.7579    0.9550 H       1  LIG1        0.0278
     47 H          -8.0736  -10.2925    0.5918 H       1  LIG1        0.0278
     48 H          -7.1973  -10.4267    2.1151 H       1  LIG1        0.0278
@<TRIPOS>BOND
     1    32    31    1
     2    44    36    1
     3     6     5    1
     4    31    23    1
     5     7     1    1
     6    27    24    1
     7    19    18    1
     8    41    36   ar
     9    41    40   ar
    10     5     1   ar
    11     5     4   ar
    12    36    37   ar
    13    23    24   ar
    14    23    25   ar
    15    20    18    1
    16     1     2   ar
    17    22    21    1
    18    24    26   ar
    19    21    15    1
    20    15    16   ar
    21    15    14   ar
    22    16    25    1
    23    16    17   ar
    24    18    14    1
    25    14    13   ar
    26    25    28   ar
    27    43    40    1
    28    17    13   ar
    29    40    39   ar
    30    26    37    1
    31    26    29   ar
    32    13     4    1
    33    37    38   ar
    34     4     3   ar
    35     2     8    1
    36     2     3   ar
    37    28    29   ar
    38    28    30    1
    39    29    33    1
    40     3     9    1
    41    39    38   ar
    42    39    45    1
    43    38    42    1
    44    47    45    1
    45    33    34    3
    46    11     9    1
    47    46    45    1
    48    34    35    1
    49    45    48    1
    50     9    10    1
    51     9    12    1
