@<TRIPOS>MOLECULE
mol_data/opt/cam/geoms/mol2/13al13al.out
 26 27 0 0 0
SMALL
GASTEIGER

@<TRIPOS>ATOM
      1 C           1.3196   -0.3733   -0.0016 C.ar    1  LIG1        0.0058
      2 C           0.9194    0.9407   -0.0004 C.ar    1  LIG1       -0.0019
      3 C          -0.4995    0.9328    0.0005 C.ar    1  LIG1        0.1467
      4 C          -0.9372   -0.3798    0.0001 C.ar    1  LIG1        0.1052
      5 N           0.2040   -1.1590   -0.0010 N.ar    1  LIG1       -0.3566
      6 H           0.2241   -2.1634   -0.0021 H       1  LIG1        0.1655
      7 H           2.3086   -0.8038   -0.0026 H       1  LIG1        0.0808
      8 H           1.5713    1.8000   -0.0003 H       1  LIG1        0.0669
      9 O          -1.3596    1.9877    0.0016 O.3     1  LIG1       -0.4929
     10 C          -0.7614    3.2640    0.0020 C.3     1  LIG1        0.0789
     11 H          -1.5748    3.9898    0.0029 H       1  LIG1        0.0660
     12 H          -0.1416    3.4174    0.8939 H       1  LIG1        0.0660
     13 H          -0.1428    3.4184   -0.8906 H       1  LIG1        0.0660
     14 C          -2.2862   -0.9027    0.0008 C.ar    1  LIG1        0.0701
     15 C          -3.4877   -0.2166    0.0009 C.ar    1  LIG1        0.0069
     16 C          -4.5214   -1.1888    0.0016 C.ar    1  LIG1        0.1379
     17 C          -3.9449   -2.4342    0.0020 C.ar    1  LIG1        0.0444
     18 N          -2.5789   -2.2417    0.0015 N.ar    1  LIG1       -0.3564
     19 H          -1.9133   -2.9938    0.0016 H       1  LIG1        0.1655
     20 H          -4.3902   -3.4149    0.0026 H       1  LIG1        0.0844
     21 H          -3.5759    0.8568    0.0005 H       1  LIG1        0.0676
     22 O          -5.8690   -0.9992    0.0020 O.3     1  LIG1       -0.4936
     23 C          -6.2932    0.3444    0.0016 C.3     1  LIG1        0.0789
     24 H          -7.3836    0.3271    0.0020 H       1  LIG1        0.0660
     25 H          -5.9416    0.8794    0.8925 H       1  LIG1        0.0660
     26 H          -5.9423    0.8787   -0.8899 H       1  LIG1        0.0660
@<TRIPOS>BOND
     1    13    10    1
     2    26    23    1
     3     7     1    1
     4     6     5    1
     5     1     5   ar
     6     1     2   ar
     7     5     4   ar
     8     2     8    1
     9     2     3   ar
    10     4     3   ar
    11     4    14    1
    12     3     9    1
    13    21    15    1
    14    14    15   ar
    15    14    18   ar
    16    15    16   ar
    17    18    19    1
    18    18    17   ar
    19    23    24    1
    20    23    22    1
    21    23    25    1
    22    16    17   ar
    23    16    22    1
    24     9    10    1
    25    17    20    1
    26    10    11    1
    27    10    12    1
