@<TRIPOS>MOLECULE
mol_data/opt/cam/geoms/mol2/13al12la-6fe-4ff4dh-6af-4ei-13fe-.out
 98 105 0 0 0
SMALL
GASTEIGER

@<TRIPOS>ATOM
      1 C           1.1749    0.9077   -0.0486 C.ar    1  LIG1        0.0058
      2 C           0.6517    1.6228   -1.1026 C.ar    1  LIG1       -0.0018
      3 C          -0.7373    1.3404   -1.1310 C.ar    1  LIG1        0.1484
      4 C          -1.0343    0.4779   -0.0915 C.ar    1  LIG1        0.1279
      5 N           0.1659    0.2313    0.5545 N.ar    1  LIG1       -0.3552
      6 H           0.2579   -0.3797    1.3488 H       1  LIG1        0.1655
      7 H           2.1913    0.8392    0.3073 H       1  LIG1        0.0808
      8 H           1.2075    2.2611   -1.7714 H       1  LIG1        0.0669
      9 O          -1.6860    1.8101   -1.9828 O.3     1  LIG1       -0.4929
     10 C          -1.2127    2.5833   -3.0661 C.3     1  LIG1        0.0789
     11 H          -2.0848    2.8420   -3.6663 H       1  LIG1        0.0660
     12 H          -0.7268    3.5038   -2.7208 H       1  LIG1        0.0660
     13 H          -0.5049    2.0160   -3.6813 H       1  LIG1        0.0660
     14 C          -2.2611   -0.1877    0.2948 C.ar    1  LIG1        0.1967
     15 C          -3.5105    0.1655    0.7295 C.ar    1  LIG1        0.1678
     16 C          -4.2747   -1.0305    0.8905 C.ar    1  LIG1        0.0269
     17 C          -3.4555   -2.0642    0.5674 C.ar    1  LIG1        0.1445
     18 O          -2.2370   -1.5791    0.2022 O.2     1  LIG1       -0.4493
     19 O          -4.0605    1.3585    1.0132 O.3     1  LIG1       -0.4912
     20 C          -3.2447    2.5142    0.8914 C.3     1  LIG1        0.0790
     21 H          -3.8705    3.3528    1.1967 H       1  LIG1        0.0660
     22 H          -2.3730    2.4515    1.5508 H       1  LIG1        0.0660
     23 H          -2.9128    2.6511   -0.1406 H       1  LIG1        0.0660
     24 H          -5.3060   -1.0754    1.2040 H       1  LIG1        0.0692
     25 C          -2.7539   -4.4035   -0.1000 C.ar    1  LIG1        0.2239
     26 C          -3.6390   -3.5108    0.5498 C.ar    1  LIG1        0.0799
     27 C          -4.7302   -4.0839    1.1896 C.ar    1  LIG1       -0.0285
     28 C          -4.9588   -5.4581    1.1520 C.ar    1  LIG1        0.0516
     29 C          -4.0429   -6.2406    0.4218 C.ar    1  LIG1        0.0938
     30 N          -2.9664   -5.7072   -0.1532 N.ar    1  LIG1       -0.2111
     31 H          -5.4132   -3.4563    1.7510 H       1  LIG1        0.0639
     32 O          -1.6310   -4.0009   -0.7123 O.3     1  LIG1       -0.4919
     33 H          -1.5359   -3.0393   -0.6205 H       1  LIG1        0.2938
     34 C          -6.0386   -6.0132    1.9066 C.1     1  LIG1       -0.0675
     35 C          -6.9344   -6.4420    2.5868 C.1     1  LIG1       -0.1138
     36 H          -7.7214   -6.8458    3.1813 H       1  LIG1        0.1232
     37 C          -5.3391   -8.3450   -0.1164 C.ar    1  LIG1        0.1268
     38 C          -5.3919   -9.7309   -0.1835 C.ar    1  LIG1       -0.0083
     39 C          -4.1658   -7.7155    0.3041 C.ar    1  LIG1        0.0465
     40 C          -4.3035  -10.5329    0.1581 C.ar    1  LIG1        0.0283
     41 H          -6.3067  -10.2005   -0.5289 H       1  LIG1        0.0661
     42 C          -3.0574   -8.5085    0.5906 C.ar    1  LIG1       -0.0069
     43 C          -3.1125   -9.8928    0.5323 C.ar    1  LIG1        0.1254
     44 H          -2.1336   -8.0133    0.8756 H       1  LIG1        0.0662
     45 O          -6.3863   -7.5686   -0.5145 O.3     1  LIG1       -0.5061
     46 H          -7.2081   -8.0626   -0.4134 H       1  LIG1        0.2922
     47 O          -2.0260  -10.6610    0.8469 O.3     1  LIG1       -0.5061
     48 H          -1.3140  -10.0822    1.1429 H       1  LIG1        0.2922
     49 C          -5.5252  -12.6989    0.6280 C.ar    1  LIG1        0.0603
     50 C          -5.6008  -14.0881    0.5093 C.ar    1  LIG1       -0.0342
     51 C          -4.4155  -12.0117    0.0931 C.ar    1  LIG1        0.0048
     52 C          -4.6147  -14.8372   -0.1165 C.ar    1  LIG1        0.0056
     53 H          -6.4527  -14.6015    0.9418 H       1  LIG1        0.0637
     54 C          -3.4313  -12.7610   -0.5348 C.ar    1  LIG1       -0.0314
     55 C          -3.5020  -14.1531   -0.6554 C.ar    1  LIG1        0.0331
     56 H          -2.5699  -12.2473   -0.9451 H       1  LIG1        0.0643
     57 N          -7.4636  -11.5281    1.8853 N.1     1  LIG1       -0.1908
     58 C          -6.5831  -12.0305    1.3257 C.1     1  LIG1        0.0998
     59 N          -2.4774  -14.8274   -1.2849 N.pl3   1  LIG1       -0.3575
     60 H          -2.6808  -15.7477   -1.6431 H       1  LIG1        0.1423
     61 H          -1.8732  -14.2752   -1.8729 H       1  LIG1        0.1423
     62 C          -3.7419  -17.1918    0.1560 C.ar    1  LIG1        0.0363
     63 C          -4.7644  -16.3101   -0.2139 C.ar    1  LIG1        0.0055
     64 C          -5.9552  -16.8861   -0.6392 C.ar    1  LIG1       -0.0088
     65 C          -6.0971  -18.2690   -0.6924 C.ar    1  LIG1        0.1433
     66 C          -5.0050  -19.0723   -0.3106 C.ar    1  LIG1        0.1134
     67 N          -3.8646  -18.5103    0.1110 N.ar    1  LIG1       -0.2507
     68 H          -6.7997  -16.2770   -0.9428 H       1  LIG1        0.0661
     69 H          -2.7940  -16.8079    0.5235 H       1  LIG1        0.0836
     70 O          -7.3172  -18.7337   -1.0503 O.3     1  LIG1       -0.5046
     71 H          -7.2377  -19.5592   -1.5514 H       1  LIG1        0.2922
     72 C          -5.5097  -21.4286   -1.2179 C.ar    1  LIG1        0.0346
     73 C          -5.4584  -22.8093   -1.0202 C.ar    1  LIG1       -0.0362
     74 C          -5.0330  -20.5595   -0.2212 C.ar    1  LIG1        0.0196
     75 C          -4.9474  -23.3755    0.1480 C.ar    1  LIG1        0.0060
     76 H          -5.8277  -23.4592   -1.8030 H       1  LIG1        0.0637
     77 C          -4.5142  -21.1389    0.9354 C.ar    1  LIG1       -0.0477
     78 C          -4.4680  -22.5101    1.1548 C.ar    1  LIG1       -0.0405
     79 H          -4.1356  -20.4712    1.7011 H       1  LIG1        0.0627
     80 C          -6.0157  -20.9483   -2.4696 C.1     1  LIG1       -0.0690
     81 C          -6.4702  -20.5477   -3.5121 C.1     1  LIG1       -0.1139
     82 H          -6.8527  -20.1925   -4.4417 H       1  LIG1        0.1232
     83 C          -3.9330  -23.0022    2.4763 C.3     1  LIG1       -0.0391
     84 H          -3.9513  -22.1985    3.2142 H       1  LIG1        0.0278
     85 H          -2.8875  -23.3289    2.4042 H       1  LIG1        0.0278
     86 H          -4.5211  -23.8348    2.8690 H       1  LIG1        0.0278
     87 C          -4.9557  -24.8364    0.2545 C.ar    1  LIG1        0.0900
     88 C          -5.8126  -25.7586   -0.3108 C.ar    1  LIG1        0.1574
     89 C          -5.3854  -27.0687    0.0518 C.ar    1  LIG1        0.0839
     90 C          -4.2562  -26.9101    0.8323 C.ar    1  LIG1        0.0213
     91 N          -4.0142  -25.5844    0.9515 N.ar    1  LIG1       -0.3566
     92 H          -3.2172  -25.1909    1.4200 H       1  LIG1        0.1655
     93 H          -3.6280  -27.6519    1.2995 H       1  LIG1        0.0820
     94 O          -6.8890  -25.4668   -1.0809 O.3     1  LIG1       -0.5035
     95 H          -7.3280  -26.3001   -1.3019 H       1  LIG1        0.2923
     96 C          -6.0516  -28.2571   -0.3429 C.1     1  LIG1       -0.0645
     97 C          -6.6733  -29.2191   -0.7200 C.1     1  LIG1       -0.1137
     98 H          -7.2040  -30.0867   -1.0380 H       1  LIG1        0.1232
@<TRIPOS>BOND
     1    82    81    1
     2    13    10    1
     3    11    10    1
     4    81    80    3
     5    10    12    1
     6    10     9    1
     7    80    72    1
     8     9     3    1
     9    61    59    1
    10    76    73    1
    11     8     2    1
    12    60    59    1
    13    71    70    1
    14    95    94    1
    15    59    55    1
    16    72    73   ar
    17    72    74   ar
    18     3     2   ar
    19     3     4   ar
    20     2     1   ar
    21    94    88    1
    22    70    65    1
    23    98    97    1
    24    73    75   ar
    25    56    54    1
    26    68    64    1
    27    97    96    3
    28    32    33    1
    29    32    25    1
    30    65    64   ar
    31    65    66   ar
    32    55    54   ar
    33    55    52   ar
    34    64    63   ar
    35    54    51   ar
    36    41    38    1
    37    45    46    1
    38    45    37    1
    39    96    89    1
    40    88    89   ar
    41    88    87   ar
    42    66    74    1
    43    66    67   ar
    44    74    77   ar
    45    63    52    1
    46    63    62   ar
    47    38    37   ar
    48    38    40   ar
    49    30    25   ar
    50    30    29   ar
    51    23    20    1
    52    52    50   ar
    53    37    39   ar
    54    25    26   ar
    55     4    14    1
    56     4     5   ar
    57     1     7    1
    58     1     5   ar
    59    89    90   ar
    60    51    40    1
    61    51    49   ar
    62    67    62   ar
    63    75    87    1
    64    75    78   ar
    65    62    69    1
    66    40    43   ar
    67    18    14   ar
    68    18    17   ar
    69    87    91   ar
    70    14    15   ar
    71    39    29    1
    72    39    42   ar
    73    29    28   ar
    74    50    49   ar
    75    50    53    1
    76    43    42   ar
    77    43    47    1
    78    26    17    1
    79    26    27   ar
    80     5     6    1
    81    17    16   ar
    82    42    44    1
    83    49    58    1
    84    15    16   ar
    85    15    19    1
    86    90    91   ar
    87    90    93    1
    88    47    48    1
    89    16    24    1
    90    20    19    1
    91    20    21    1
    92    20    22    1
    93    77    78   ar
    94    77    79    1
    95    91    92    1
    96    28    27   ar
    97    28    34    1
    98    78    83    1
    99    27    31    1
   100    58    57    3
   101    34    35    3
   102    85    83    1
   103    83    86    1
   104    83    84    1
   105    35    36    1
