@<TRIPOS>MOLECULE
mol_data/opt/cam/geoms/mol2/13al13al-.out
 26 27 0 0 0
SMALL
GASTEIGER

@<TRIPOS>ATOM
      1 C           1.2791   -0.3802   -0.0006 C.ar    1  LIG1        0.0058
      2 C           0.9061    0.9441   -0.0000 C.ar    1  LIG1       -0.0019
      3 C          -0.5115    0.9590    0.0003 C.ar    1  LIG1        0.1467
      4 C          -0.9700   -0.3444    0.0005 C.ar    1  LIG1        0.1052
      5 N           0.1499   -1.1435    0.0001 N.ar    1  LIG1       -0.3566
      6 H           0.1247   -2.1489   -0.0000 H       1  LIG1        0.1655
      7 H           2.2602   -0.8283   -0.0011 H       1  LIG1        0.0808
      8 H           1.5750    1.7904   -0.0001 H       1  LIG1        0.0669
      9 O          -1.3694    2.0256    0.0007 O.3     1  LIG1       -0.4929
     10 C          -0.7620    3.2995    0.0005 C.3     1  LIG1        0.0789
     11 H          -1.5689    4.0325    0.0008 H       1  LIG1        0.0660
     12 H          -0.1419    3.4449    0.8929 H       1  LIG1        0.0660
     13 H          -0.1424    3.4450   -0.8922 H       1  LIG1        0.0660
     14 C          -2.3209   -0.8577    0.0009 C.ar    1  LIG1        0.0701
     15 C          -2.8128   -2.1488    0.0010 C.ar    1  LIG1        0.0069
     16 C          -4.2262   -2.0477    0.0014 C.ar    1  LIG1        0.1379
     17 C          -4.5667   -0.7137    0.0017 C.ar    1  LIG1        0.0444
     18 N          -3.3864   -0.0036    0.0014 N.ar    1  LIG1       -0.3564
     19 H          -3.2801    0.9987    0.0013 H       1  LIG1        0.1655
     20 H          -5.5233   -0.2191    0.0022 H       1  LIG1        0.0844
     21 H          -2.2502   -3.0706    0.0007 H       1  LIG1        0.0676
     22 O          -5.0358   -3.1395    0.0015 O.3     1  LIG1       -0.4936
     23 C          -6.4147   -2.8566    0.0018 C.3     1  LIG1        0.0789
     24 H          -6.9362   -3.8140    0.0018 H       1  LIG1        0.0660
     25 H          -6.7049   -2.2859    0.8937 H       1  LIG1        0.0660
     26 H          -6.7054   -2.2856   -0.8898 H       1  LIG1        0.0660
@<TRIPOS>BOND
     1    13    10    1
     2    26    23    1
     3     7     1    1
     4     1     2   ar
     5     1     5   ar
     6     8     2    1
     7     6     5    1
     8     2     3   ar
     9     5     4   ar
    10     3     4   ar
    11     3     9    1
    12     4    14    1
    13    10     9    1
    14    10    11    1
    15    10    12    1
    16    21    15    1
    17    14    15   ar
    18    14    18   ar
    19    15    16   ar
    20    19    18    1
    21    16    22    1
    22    16    17   ar
    23    18    17   ar
    24    22    23    1
    25    17    20    1
    26    24    23    1
    27    23    25    1
