@<TRIPOS>MOLECULE
mol_data/opt/cam/geoms/mol2/13al6ah-4af-13la.out
 48 51 0 0 0
SMALL
GASTEIGER

@<TRIPOS>ATOM
      1 C           1.5514   -0.1885    1.0652 C.ar    1  LIG1        0.0057
      2 C           1.3195    1.0172    0.4451 C.ar    1  LIG1       -0.0019
      3 C          -0.0465    1.0177    0.0657 C.ar    1  LIG1        0.1453
      4 C          -0.6173   -0.1848    0.4517 C.ar    1  LIG1        0.0902
      5 N           0.3966   -0.9041    1.0560 N.ar    1  LIG1       -0.3577
      6 H           0.2599   -1.7847    1.5221 H       1  LIG1        0.1654
      7 H           2.4514   -0.5790    1.5141 H       1  LIG1        0.0808
      8 H           2.0470    1.7974    0.2859 H       1  LIG1        0.0669
      9 O          -0.7427    1.9895   -0.5851 O.3     1  LIG1       -0.4930
     10 C          -0.0010    3.1290   -0.9614 C.3     1  LIG1        0.0789
     11 H          -0.6928    3.7949   -1.4775 H       1  LIG1        0.0660
     12 H           0.4113    3.6463   -0.0868 H       1  LIG1        0.0660
     13 H           0.8200    2.8660   -1.6390 H       1  LIG1        0.0660
     14 C          -2.2377   -2.0807    0.4179 C.ar    1  LIG1        0.0376
     15 C          -1.9635   -0.7132    0.2891 C.ar    1  LIG1        0.0217
     16 C          -3.0458    0.1097   -0.0138 C.ar    1  LIG1       -0.0283
     17 C          -4.3279   -0.4188   -0.1458 C.ar    1  LIG1        0.0515
     18 C          -4.5032   -1.8053    0.0698 C.ar    1  LIG1        0.0917
     19 N          -3.4526   -2.5941    0.3172 N.ar    1  LIG1       -0.2525
     20 H          -2.8850    1.1720   -0.1586 H       1  LIG1        0.0644
     21 H          -1.4363   -2.7968    0.5899 H       1  LIG1        0.0836
     22 N          -5.3865    0.4279   -0.4586 N.pl3   1  LIG1       -0.3563
     23 H          -5.1067    1.2850   -0.9136 H       1  LIG1        0.1424
     24 H          -6.1684   -0.0162   -0.9189 H       1  LIG1        0.1424
     25 C          -7.0216   -1.9087    0.4048 C.ar    1  LIG1       -0.0517
     26 C          -8.2138   -2.6137    0.3270 C.ar    1  LIG1       -0.0484
     27 C          -5.8194   -2.4868   -0.0118 C.ar    1  LIG1        0.0056
     28 C          -8.2831   -3.9235   -0.1659 C.ar    1  LIG1        0.0433
     29 H          -9.1293   -2.1476    0.6649 H       1  LIG1        0.0625
     30 C          -5.8673   -3.7989   -0.4855 C.ar    1  LIG1       -0.0103
     31 C          -7.0584   -4.4967   -0.5631 C.ar    1  LIG1        0.1267
     32 H          -4.9373   -4.2767   -0.7800 H       1  LIG1        0.0661
     33 H          -7.0277   -0.9126    0.8313 H       1  LIG1        0.0624
     34 O          -7.0617   -5.7874   -1.0439 O.3     1  LIG1       -0.5061
     35 H          -6.1551   -6.0460   -1.2443 H       1  LIG1        0.2922
     36 C          -9.5588   -4.6280   -0.2423 C.ar    1  LIG1        0.0922
     37 C         -10.8499   -4.2221    0.0844 C.ar    1  LIG1        0.1453
     38 C         -11.7425   -5.2889   -0.1731 C.ar    1  LIG1       -0.0019
     39 C         -10.9772   -6.3287   -0.6539 C.ar    1  LIG1        0.0057
     40 N          -9.6852   -5.9283   -0.6919 N.ar    1  LIG1       -0.3576
     41 H          -8.8884   -6.4642   -0.9969 H       1  LIG1        0.1654
     42 H         -11.2685   -7.3191   -0.9683 H       1  LIG1        0.0808
     43 O         -11.1479   -2.9835    0.5690 O.3     1  LIG1       -0.4930
     44 C         -12.5083   -2.7441    0.8490 C.3     1  LIG1        0.0789
     45 H         -12.5744   -1.7224    1.2238 H       1  LIG1        0.0660
     46 H         -13.1259   -2.8385   -0.0524 H       1  LIG1        0.0660
     47 H         -12.8879   -3.4336    1.6126 H       1  LIG1        0.0660
     48 H         -12.8110   -5.3015   -0.0274 H       1  LIG1        0.0669
@<TRIPOS>BOND
     1    13    10    1
     2    11    10    1
     3    35    34    1
     4    34    31    1
     5    41    40    1
     6    42    39    1
     7    10     9    1
     8    10    12    1
     9    24    22    1
    10    23    22    1
    11    32    30    1
    12    40    39   ar
    13    40    36   ar
    14    39    38   ar
    15     9     3    1
    16    31    30   ar
    17    31    28   ar
    18    30    27   ar
    19    22    17    1
    20    36    28    1
    21    36    37   ar
    22    38    48    1
    23    38    37   ar
    24    28    26   ar
    25    20    16    1
    26    17    16   ar
    27    17    18   ar
    28    46    44    1
    29    16    15   ar
    30    27    18    1
    31    27    25   ar
    32     3     2   ar
    33     3     4   ar
    34    18    19   ar
    35    37    43    1
    36     8     2    1
    37    15    14   ar
    38    15     4    1
    39    19    14   ar
    40    26    25   ar
    41    26    29    1
    42    25    33    1
    43    14    21    1
    44     2     1   ar
    45     4     5   ar
    46    43    44    1
    47    44    45    1
    48    44    47    1
    49     5     1   ar
    50     5     6    1
    51     1     7    1
