@<TRIPOS>MOLECULE
mol_data/opt/cam/geoms/mol2/13al13al-13al-13al.out
 50 53 0 0 0
SMALL
GASTEIGER

@<TRIPOS>ATOM
      1 C           1.1668   -0.6368   -0.6198 C.ar    1  LIG1        0.0058
      2 C           0.8489    0.6906   -0.7921 C.ar    1  LIG1       -0.0019
      3 C          -0.5625    0.7776   -0.6992 C.ar    1  LIG1        0.1467
      4 C          -1.0727   -0.4876   -0.4749 C.ar    1  LIG1        0.1052
      5 N           0.0113   -1.3342   -0.4294 N.ar    1  LIG1       -0.3566
      6 H          -0.0527   -2.3268   -0.2802 H       1  LIG1        0.1655
      7 H           2.1265   -1.1290   -0.6187 H       1  LIG1        0.0808
      8 H           1.5498    1.4924   -0.9637 H       1  LIG1        0.0669
      9 O          -1.3746    1.8749   -0.8006 O.3     1  LIG1       -0.4929
     10 C          -0.7269    3.0888   -1.1202 C.3     1  LIG1        0.0789
     11 H          -1.5035    3.8504   -1.1919 H       1  LIG1        0.0660
     12 H          -0.0122    3.3743   -0.3397 H       1  LIG1        0.0660
     13 H          -0.2005    3.0174   -2.0788 H       1  LIG1        0.0660
     14 C          -2.4401   -0.9203   -0.3201 C.ar    1  LIG1        0.0705
     15 C          -3.0056   -2.1702   -0.1523 C.ar    1  LIG1        0.0076
     16 C          -4.4074   -1.9834   -0.1053 C.ar    1  LIG1        0.1473
     17 C          -4.6781   -0.6336   -0.2332 C.ar    1  LIG1        0.1057
     18 N          -3.4596   -0.0031   -0.3536 N.ar    1  LIG1       -0.3488
     19 H          -3.2994    0.9614   -0.6055 H       1  LIG1        0.1661
     20 H          -2.4926   -3.1185   -0.0833 H       1  LIG1        0.0676
     21 O          -5.3453   -2.9702    0.0365 O.3     1  LIG1       -0.4929
     22 C          -5.7415   -3.1926    1.3816 C.3     1  LIG1        0.0789
     23 H          -6.4516   -4.0214    1.3699 H       1  LIG1        0.0660
     24 H          -4.8825   -3.4618    2.0076 H       1  LIG1        0.0660
     25 H          -6.2267   -2.3055    1.8035 H       1  LIG1        0.0660
     26 C          -5.9375    0.0712   -0.2282 C.ar    1  LIG1        0.0706
     27 C          -7.2092   -0.3820   -0.5289 C.ar    1  LIG1        0.0076
     28 C          -8.0818    0.7182   -0.3572 C.ar    1  LIG1        0.1473
     29 C          -7.3465    1.8190    0.0394 C.ar    1  LIG1        0.1057
     30 N          -6.0330    1.4009    0.0977 N.ar    1  LIG1       -0.3488
     31 H          -5.2972    1.9354    0.5288 H       1  LIG1        0.1661
     32 H          -7.4418   -1.3818   -0.8583 H       1  LIG1        0.0676
     33 O          -9.4354    0.7855   -0.5389 O.3     1  LIG1       -0.4929
     34 C         -10.0536   -0.4050   -0.9804 C.3     1  LIG1        0.0789
     35 H         -11.1176   -0.1888   -1.0780 H       1  LIG1        0.0660
     36 H          -9.6571   -0.7214   -1.9519 H       1  LIG1        0.0660
     37 H          -9.9141   -1.2170   -0.2574 H       1  LIG1        0.0660
     38 C          -7.7749    3.1610    0.3476 C.ar    1  LIG1        0.0701
     39 C          -7.0646    4.2933    0.7175 C.ar    1  LIG1        0.0069
     40 C          -8.0180    5.3290    0.9001 C.ar    1  LIG1        0.1379
     41 C          -9.2669    4.8165    0.6415 C.ar    1  LIG1        0.0444
     42 N          -9.0969    3.4950    0.3079 N.ar    1  LIG1       -0.3564
     43 H          -9.8151    2.8347    0.0533 H       1  LIG1        0.1655
     44 H         -10.2344    5.2891    0.6706 H       1  LIG1        0.0844
     45 H          -5.9938    4.3665    0.8328 H       1  LIG1        0.0676
     46 O          -7.8115    6.6256    1.2639 O.3     1  LIG1       -0.4936
     47 C          -6.4727    6.9860    1.5007 C.3     1  LIG1        0.0789
     48 H          -6.4764    8.0393    1.7834 H       1  LIG1        0.0660
     49 H          -6.0328    6.3979    2.3165 H       1  LIG1        0.0660
     50 H          -5.8537    6.8591    0.6030 H       1  LIG1        0.0660
@<TRIPOS>BOND
     1    13    10    1
     2    36    34    1
     3    11    10    1
     4    10     9    1
     5    10    12    1
     6    35    34    1
     7    34    33    1
     8    34    37    1
     9     8     2    1
    10    32    27    1
    11     9     3    1
    12     2     3   ar
    13     2     1   ar
    14     3     4   ar
    15     1     7    1
    16     1     5   ar
    17    19    18    1
    18    33    28    1
    19    27    28   ar
    20    27    26   ar
    21     4     5   ar
    22     4    14    1
    23     5     6    1
    24    28    29   ar
    25    18    14   ar
    26    18    17   ar
    27    14    15   ar
    28    17    26    1
    29    17    16   ar
    30    26    30   ar
    31    15    16   ar
    32    15    20    1
    33    16    21    1
    34    21    22    1
    35    29    30   ar
    36    29    38    1
    37    43    42    1
    38    30    31    1
    39    42    38   ar
    40    42    41   ar
    41    38    39   ar
    42    50    47    1
    43    41    44    1
    44    41    40   ar
    45    39    45    1
    46    39    40   ar
    47    40    46    1
    48    46    47    1
    49    23    22    1
    50    22    25    1
    51    22    24    1
    52    47    48    1
    53    47    49    1
