@<TRIPOS>MOLECULE
mol_data/opt/cam/geoms/mol2/13al13al13al.out
 38 40 0 0 0
SMALL
GASTEIGER

@<TRIPOS>ATOM
      1 C           1.3672   -0.2507    0.1609 C.ar    1  LIG1        0.0058
      2 C           0.9731    1.0210   -0.1799 C.ar    1  LIG1       -0.0019
      3 C          -0.4469    1.0200   -0.1861 C.ar    1  LIG1        0.1467
      4 C          -0.8858   -0.2485    0.1425 C.ar    1  LIG1        0.1052
      5 N           0.2497   -1.0131    0.3379 N.ar    1  LIG1       -0.3566
      6 H           0.2384   -1.9300    0.7520 H       1  LIG1        0.1655
      7 H           2.3554   -0.6635    0.2910 H       1  LIG1        0.0808
      8 H           1.6297    1.8464   -0.4067 H       1  LIG1        0.0669
      9 O          -1.3051    2.0362   -0.4667 O.3     1  LIG1       -0.4929
     10 C          -0.7076    3.2485   -0.8682 C.3     1  LIG1        0.0789
     11 H          -1.5213    3.9436   -1.0756 H       1  LIG1        0.0660
     12 H          -0.0721    3.6654   -0.0771 H       1  LIG1        0.0660
     13 H          -0.1049    3.1183   -1.7753 H       1  LIG1        0.0660
     14 C          -2.2204   -0.7864    0.2512 C.ar    1  LIG1        0.0705
     15 C          -3.4195   -0.1557    0.4957 C.ar    1  LIG1        0.0076
     16 C          -4.4283   -1.1565    0.4660 C.ar    1  LIG1        0.1473
     17 C          -3.8359   -2.3751    0.2172 C.ar    1  LIG1        0.1057
     18 N          -2.4671   -2.1382    0.1192 N.ar    1  LIG1       -0.3488
     19 H          -1.8760   -2.7310   -0.4437 H       1  LIG1        0.1661
     20 H          -3.5313    0.8986    0.6906 H       1  LIG1        0.0676
     21 O          -5.7647   -1.0226    0.6676 O.3     1  LIG1       -0.4929
     22 C          -6.2113    0.2794    0.9754 C.3     1  LIG1        0.0789
     23 H          -7.2908    0.2136    1.1124 H       1  LIG1        0.0660
     24 H          -5.7529    0.6535    1.8989 H       1  LIG1        0.0660
     25 H          -5.9935    0.9824    0.1623 H       1  LIG1        0.0660
     26 C          -4.3995   -3.6991    0.1038 C.ar    1  LIG1        0.0701
     27 C          -5.6728   -4.1077   -0.2415 C.ar    1  LIG1        0.0069
     28 C          -5.6777   -5.5279   -0.1912 C.ar    1  LIG1        0.1379
     29 C          -4.4258   -5.9536    0.1763 C.ar    1  LIG1        0.0444
     30 N          -3.6474   -4.8241    0.3318 N.ar    1  LIG1       -0.3564
     31 H          -2.7548   -4.8126    0.7953 H       1  LIG1        0.1655
     32 H          -4.0385   -6.9486    0.3188 H       1  LIG1        0.0844
     33 H          -6.4795   -3.4449   -0.5090 H       1  LIG1        0.0676
     34 O          -6.6988   -6.3851   -0.4638 O.3     1  LIG1       -0.4936
     35 C          -7.9239   -5.7813   -0.8092 C.3     1  LIG1        0.0789
     36 H          -8.6338   -6.5912   -0.9808 H       1  LIG1        0.0660
     37 H          -8.2991   -5.1385   -0.0033 H       1  LIG1        0.0660
     38 H          -7.8353   -5.1818   -1.7239 H       1  LIG1        0.0660
@<TRIPOS>BOND
     1    13    10    1
     2    38    35    1
     3    11    10    1
     4    36    35    1
     5    10     9    1
     6    10    12    1
     7    35    34    1
     8    35    37    1
     9    33    27    1
    10     9     3    1
    11    34    28    1
    12    19    18    1
    13     8     2    1
    14    27    28   ar
    15    27    26   ar
    16    28    29   ar
    17     3     2   ar
    18     3     4   ar
    19     2     1   ar
    20    26    17    1
    21    26    30   ar
    22    18    17   ar
    23    18    14   ar
    24     4    14    1
    25     4     5   ar
    26     1     7    1
    27     1     5   ar
    28    25    22    1
    29    29    32    1
    30    29    30   ar
    31    17    16   ar
    32    14    15   ar
    33    30    31    1
    34     5     6    1
    35    16    15   ar
    36    16    21    1
    37    15    20    1
    38    21    22    1
    39    22    23    1
    40    22    24    1
