@<TRIPOS>MOLECULE
mol_data/opt/cam/geoms/mol2/13al6ee-13ha12ee.out
 48 51 0 0 0
SMALL
GASTEIGER

@<TRIPOS>ATOM
      1 C           1.3626   -0.3065    0.2988 C.ar    1  LIG1        0.0057
      2 C           0.9757    1.0105    0.1900 C.ar    1  LIG1       -0.0019
      3 C          -0.4314    1.0018    0.0578 C.ar    1  LIG1        0.1453
      4 C          -0.8788   -0.3187    0.0879 C.ar    1  LIG1        0.0914
      5 N           0.2599   -1.0877    0.2376 N.ar    1  LIG1       -0.3577
      6 H           0.2435   -2.0943    0.2941 H       1  LIG1        0.1654
      7 H           2.3464   -0.7343    0.4150 H       1  LIG1        0.0808
      8 H           1.6291    1.8681    0.2054 H       1  LIG1        0.0669
      9 O          -1.2612    2.0706   -0.0749 O.3     1  LIG1       -0.4930
     10 C          -0.6450    3.3410   -0.0562 C.3     1  LIG1        0.0789
     11 H          -1.4440    4.0742   -0.1640 H       1  LIG1        0.0660
     12 H          -0.1193    3.5143    0.8898 H       1  LIG1        0.0660
     13 H           0.0634    3.4527   -0.8851 H       1  LIG1        0.0660
     14 C          -2.5804   -2.2232    0.1128 C.ar    1  LIG1        0.1231
     15 C          -2.2284   -0.8579   -0.0020 C.ar    1  LIG1        0.0369
     16 C          -3.3049   -0.0001   -0.2566 C.ar    1  LIG1       -0.0323
     17 C          -4.6157   -0.4571   -0.3275 C.ar    1  LIG1        0.0528
     18 C          -4.8700   -1.8265   -0.0704 C.ar    1  LIG1        0.1056
     19 N          -3.8392   -2.6628    0.0915 N.ar    1  LIG1       -0.2350
     20 H          -3.1094    1.0481   -0.4334 H       1  LIG1        0.0638
     21 C          -1.6167   -3.2835    0.2688 C.1     1  LIG1       -0.0491
     22 C          -0.8468   -4.2021    0.3946 C.1     1  LIG1       -0.1124
     23 H          -0.1885   -5.0329    0.5102 H       1  LIG1        0.1232
     24 C          -5.6145    0.4627   -0.7727 C.1     1  LIG1       -0.0674
     25 C          -6.4086    1.2688   -1.1889 C.1     1  LIG1       -0.1138
     26 H          -7.1058    1.9719   -1.5835 H       1  LIG1        0.1232
     27 C          -6.1742   -2.4658   -0.0025 C.ar    1  LIG1        0.0876
     28 C          -7.4668   -2.0813    0.3810 C.ar    1  LIG1        0.0524
     29 C          -8.2746   -3.2404    0.3461 C.ar    1  LIG1       -0.0120
     30 C          -7.4693   -4.3030   -0.0283 C.ar    1  LIG1        0.0856
     31 N          -6.2177   -3.8255   -0.2347 N.ar    1  LIG1       -0.3490
     32 H          -5.3857   -4.3637   -0.4212 H       1  LIG1        0.1661
     33 N          -7.8972   -0.8489    0.8544 N.pl3   1  LIG1       -0.3563
     34 H          -7.4806   -0.0438    0.4078 H       1  LIG1        0.1424
     35 H          -8.9031   -0.7740    0.8988 H       1  LIG1        0.1424
     36 H          -9.3258   -3.3002    0.5837 H       1  LIG1        0.0658
     37 C          -7.7771   -5.6949   -0.2135 C.ar    1  LIG1        0.1674
     38 C          -8.9214   -6.4403   -0.0888 C.ar    1  LIG1        0.0872
     39 C          -8.5467   -7.8007   -0.4162 C.ar    1  LIG1        0.0784
     40 C          -7.2215   -7.7614   -0.7077 C.ar    1  LIG1        0.1092
     41 O          -6.7453   -6.4989   -0.5897 O.2     1  LIG1       -0.4589
     42 H          -6.5151   -8.5196   -1.0029 H       1  LIG1        0.1042
     43 C         -10.2105   -5.9858    0.2831 C.1     1  LIG1       -0.0646
     44 C         -11.3100   -5.6093    0.5983 C.1     1  LIG1       -0.1138
     45 H         -12.2863   -5.2868    0.8779 H       1  LIG1        0.1232
     46 C          -9.3921   -8.9419   -0.4299 C.1     1  LIG1       -0.0653
     47 C         -10.1100   -9.9070   -0.4408 C.1     1  LIG1       -0.1138
     48 H         -10.7487  -10.7598   -0.4492 H       1  LIG1        0.1232
@<TRIPOS>BOND
     1    26    25    1
     2    25    24    3
     3    42    40    1
     4    13    10    1
     5    24    17    1
     6    40    41   ar
     7    40    39   ar
     8    41    37   ar
     9    48    47    1
    10    47    46    3
    11    20    16    1
    12    46    39    1
    13    32    31    1
    14    39    38   ar
    15    17    16   ar
    16    17    18   ar
    17    16    15   ar
    18    31    30   ar
    19    31    27   ar
    20    37    38   ar
    21    37    30    1
    22    11    10    1
    23    38    43    1
    24     9    10    1
    25     9     3    1
    26    18    27    1
    27    18    19   ar
    28    10    12    1
    29    30    29   ar
    30    27    28   ar
    31    15     4    1
    32    15    14   ar
    33     3     4   ar
    34     3     2   ar
    35     4     5   ar
    36    19    14   ar
    37    14    21    1
    38     2     8    1
    39     2     1   ar
    40     5     6    1
    41     5     1   ar
    42    21    22    3
    43    43    44    3
    44     1     7    1
    45    29    28   ar
    46    29    36    1
    47    28    33    1
    48    22    23    1
    49    34    33    1
    50    44    45    1
    51    33    35    1
