@<TRIPOS>MOLECULE
mol_data/opt/cam/geoms/mol2/13al13al13al-13al-.out
 50 53 0 0 0
SMALL
GASTEIGER

@<TRIPOS>ATOM
      1 C           1.3298   -0.1875   -0.6105 C.ar    1  LIG1        0.0058
      2 C           0.9707    1.0235   -0.0695 C.ar    1  LIG1       -0.0019
      3 C          -0.4364    0.9847    0.1182 C.ar    1  LIG1        0.1467
      4 C          -0.9010   -0.2460   -0.3039 C.ar    1  LIG1        0.1052
      5 N           0.2072   -0.9527   -0.7349 N.ar    1  LIG1       -0.3566
      6 H           0.1543   -1.8087   -1.2617 H       1  LIG1        0.1655
      7 H           2.2967   -0.5558   -0.9161 H       1  LIG1        0.0808
      8 H           1.6429    1.8323    0.1709 H       1  LIG1        0.0669
      9 O          -1.2611    1.9372    0.6289 O.3     1  LIG1       -0.4929
     10 C          -0.6288    3.1091    1.0924 C.3     1  LIG1        0.0789
     11 H          -1.4155    3.7534    1.4854 H       1  LIG1        0.0660
     12 H           0.0892    2.8889    1.8918 H       1  LIG1        0.0660
     13 H          -0.1074    3.6328    0.2817 H       1  LIG1        0.0660
     14 C          -2.2349   -0.7981   -0.3055 C.ar    1  LIG1        0.0705
     15 C          -3.4620   -0.1660   -0.3635 C.ar    1  LIG1        0.0076
     16 C          -4.4441   -1.1843   -0.3318 C.ar    1  LIG1        0.1473
     17 C          -3.8172   -2.4132   -0.2618 C.ar    1  LIG1        0.1057
     18 N          -2.4609   -2.1525   -0.2638 N.ar    1  LIG1       -0.3488
     19 H          -1.7688   -2.8337    0.0010 H       1  LIG1        0.1661
     20 H          -3.6015    0.9003   -0.4348 H       1  LIG1        0.0676
     21 O          -5.8066   -1.0731   -0.3755 O.3     1  LIG1       -0.4929
     22 C          -6.3093    0.2382   -0.5305 C.3     1  LIG1        0.0789
     23 H          -7.3959    0.1566   -0.5608 H       1  LIG1        0.0660
     24 H          -6.0173    0.8768    0.3110 H       1  LIG1        0.0660
     25 H          -5.9539    0.6917   -1.4627 H       1  LIG1        0.0660
     26 C          -4.3761   -3.7396   -0.2118 C.ar    1  LIG1        0.0706
     27 C          -3.7916   -4.9927   -0.2162 C.ar    1  LIG1        0.0076
     28 C          -4.8441   -5.9384   -0.1923 C.ar    1  LIG1        0.1473
     29 C          -6.0473   -5.2586   -0.1654 C.ar    1  LIG1        0.1057
     30 N          -5.7354   -3.9161   -0.1636 N.ar    1  LIG1       -0.3488
     31 H          -6.3778   -3.1494   -0.2998 H       1  LIG1        0.1661
     32 H          -2.7371   -5.2245   -0.2516 H       1  LIG1        0.0676
     33 O          -4.6882   -7.2973   -0.2081 O.3     1  LIG1       -0.4929
     34 C          -4.8348   -7.9109    1.0637 C.3     1  LIG1        0.0789
     35 H          -4.6393   -8.9755    0.9243 H       1  LIG1        0.0660
     36 H          -4.1160   -7.5023    1.7840 H       1  LIG1        0.0660
     37 H          -5.8497   -7.7795    1.4538 H       1  LIG1        0.0660
     38 C          -7.4076   -5.7475   -0.1196 C.ar    1  LIG1        0.0701
     39 C          -7.9398   -6.9469   -0.5397 C.ar    1  LIG1        0.0069
     40 C          -9.3270   -6.9104   -0.2436 C.ar    1  LIG1        0.1379
     41 C          -9.6166   -5.7022    0.3450 C.ar    1  LIG1        0.0444
     42 N          -8.4315   -4.9900    0.3944 N.ar    1  LIG1       -0.3564
     43 H          -8.2921   -4.1670    0.9561 H       1  LIG1        0.1655
     44 H         -10.5399   -5.2844    0.7092 H       1  LIG1        0.0844
     45 H          -7.4043   -7.7409   -1.0358 H       1  LIG1        0.0676
     46 O         -10.1641   -7.9358   -0.5458 O.3     1  LIG1       -0.4936
     47 C         -11.5100   -7.7320   -0.1880 C.3     1  LIG1        0.0789
     48 H         -12.0579   -8.6260   -0.4865 H       1  LIG1        0.0660
     49 H         -11.6176   -7.5859    0.8949 H       1  LIG1        0.0660
     50 H         -11.9322   -6.8593   -0.7034 H       1  LIG1        0.0660
@<TRIPOS>BOND
     1    25    22    1
     2     6     5    1
     3    45    39    1
     4     7     1    1
     5     5     1   ar
     6     5     4   ar
     7    50    47    1
     8     1     2   ar
     9    23    22    1
    10    46    40    1
    11    46    47    1
    12    39    40   ar
    13    39    38   ar
    14    22    21    1
    15    22    24    1
    16    48    47    1
    17    20    15    1
    18    21    16    1
    19    15    16   ar
    20    15    14   ar
    21    16    17   ar
    22    14     4    1
    23    14    18   ar
    24     4     3   ar
    25    31    30    1
    26    18    17   ar
    27    18    19    1
    28    17    26    1
    29    32    27    1
    30    40    41   ar
    31    27    26   ar
    32    27    28   ar
    33    26    30   ar
    34    33    28    1
    35    33    34    1
    36    28    29   ar
    37    47    49    1
    38    29    30   ar
    39    29    38    1
    40    38    42   ar
    41     2     3   ar
    42     2     8    1
    43     3     9    1
    44    13    10    1
    45    41    42   ar
    46    41    44    1
    47    42    43    1
    48     9    10    1
    49    35    34    1
    50    34    37    1
    51    34    36    1
    52    10    11    1
    53    10    12    1
