@<TRIPOS>MOLECULE
mol_data/opt/cam/geoms/mol2/13al13al13al13al.out
 50 53 0 0 0
SMALL
GASTEIGER

@<TRIPOS>ATOM
      1 C           1.3915   -0.1558   -0.1795 C.ar    1  LIG1        0.0058
      2 C           0.9697    1.1216   -0.4609 C.ar    1  LIG1       -0.0019
      3 C          -0.4466    1.1146   -0.3605 C.ar    1  LIG1        0.1467
      4 C          -0.8562   -0.1630   -0.0287 C.ar    1  LIG1        0.1052
      5 N           0.2928   -0.9270    0.0634 N.ar    1  LIG1       -0.3566
      6 H           0.3157   -1.8536    0.4549 H       1  LIG1        0.1655
      7 H           2.3878   -0.5670   -0.1333 H       1  LIG1        0.0808
      8 H           1.6054    1.9546   -0.7174 H       1  LIG1        0.0669
      9 O          -1.3262    2.1326   -0.5524 O.3     1  LIG1       -0.4929
     10 C          -0.7642    3.3576   -0.9679 C.3     1  LIG1        0.0789
     11 H          -1.5936    4.0529   -1.0978 H       1  LIG1        0.0660
     12 H          -0.0735    3.7588   -0.2161 H       1  LIG1        0.0660
     13 H          -0.2302    3.2519   -1.9201 H       1  LIG1        0.0660
     14 C          -2.1775   -0.7079    0.1669 C.ar    1  LIG1        0.0705
     15 C          -3.3589   -0.0844    0.4989 C.ar    1  LIG1        0.0076
     16 C          -4.3642   -1.0886    0.5266 C.ar    1  LIG1        0.1473
     17 C          -3.7868   -2.3028    0.2256 C.ar    1  LIG1        0.1057
     18 N          -2.4265   -2.0608    0.0384 N.ar    1  LIG1       -0.3488
     19 H          -1.8803   -2.6308   -0.5902 H       1  LIG1        0.1661
     20 H          -3.4604    0.9672    0.7128 H       1  LIG1        0.0676
     21 O          -5.6833   -0.9626    0.8214 O.3     1  LIG1       -0.4929
     22 C          -6.1159    0.3367    1.1612 C.3     1  LIG1        0.0789
     23 H          -7.1836    0.2642    1.3692 H       1  LIG1        0.0660
     24 H          -5.5996    0.7114    2.0531 H       1  LIG1        0.0660
     25 H          -5.9563    1.0418    0.3367 H       1  LIG1        0.0660
     26 C          -4.3598   -3.6232    0.1437 C.ar    1  LIG1        0.0706
     27 C          -5.6558   -4.0232   -0.1298 C.ar    1  LIG1        0.0076
     28 C          -5.6641   -5.4389   -0.1154 C.ar    1  LIG1        0.1473
     29 C          -4.3888   -5.8895    0.1694 C.ar    1  LIG1        0.1057
     30 N          -3.6085   -4.7556    0.3230 N.ar    1  LIG1       -0.3488
     31 H          -2.6238   -4.7677    0.5266 H       1  LIG1        0.1661
     32 H          -6.4774   -3.3510   -0.3163 H       1  LIG1        0.0676
     33 O          -6.7024   -6.2891   -0.3314 O.3     1  LIG1       -0.4929
     34 C          -7.9579   -5.6791   -0.5296 C.3     1  LIG1        0.0789
     35 H          -8.6795   -6.4861   -0.6594 H       1  LIG1        0.0660
     36 H          -8.2493   -5.0692    0.3340 H       1  LIG1        0.0660
     37 H          -7.9610   -5.0460   -1.4255 H       1  LIG1        0.0660
     38 C          -3.8681   -7.2271    0.3356 C.ar    1  LIG1        0.0701
     39 C          -4.2465   -8.4161   -0.2535 C.ar    1  LIG1        0.0069
     40 C          -3.4027   -9.4291    0.2790 C.ar    1  LIG1        0.1379
     41 C          -2.5356   -8.8472    1.1684 C.ar    1  LIG1        0.0444
     42 N          -2.8139   -7.4940    1.1760 N.ar    1  LIG1       -0.3564
     43 H          -2.5127   -6.8680    1.9041 H       1  LIG1        0.1655
     44 H          -1.7507   -9.2803    1.7658 H       1  LIG1        0.0844
     45 H          -5.0268   -8.5157   -0.9905 H       1  LIG1        0.0676
     46 O          -3.3824  -10.7584   -0.0114 O.3     1  LIG1       -0.4936
     47 C          -4.3612  -11.1967   -0.9251 C.3     1  LIG1        0.0789
     48 H          -4.2254  -12.2731   -1.0355 H       1  LIG1        0.0660
     49 H          -5.3754  -10.9976   -0.5575 H       1  LIG1        0.0660
     50 H          -4.2427  -10.7179   -1.9052 H       1  LIG1        0.0660
@<TRIPOS>BOND
     1    13    10    1
     2    50    47    1
     3    37    34    1
     4    11    10    1
     5    48    47    1
     6    45    39    1
     7    10     9    1
     8    10    12    1
     9    47    49    1
    10    47    46    1
    11     8     2    1
    12    35    34    1
    13    19    18    1
    14     9     3    1
    15    34    33    1
    16    34    36    1
    17     2     3   ar
    18     2     1   ar
    19     3     4   ar
    20    33    28    1
    21    32    27    1
    22    39    40   ar
    23    39    38   ar
    24     1     7    1
    25     1     5   ar
    26    27    28   ar
    27    27    26   ar
    28    28    29   ar
    29     4     5   ar
    30     4    14    1
    31    46    40    1
    32    18    14   ar
    33    18    17   ar
    34     5     6    1
    35    26    17    1
    36    26    30   ar
    37    14    15   ar
    38    29    30   ar
    39    29    38    1
    40    17    16   ar
    41    40    41   ar
    42    30    31    1
    43    38    42   ar
    44    25    22    1
    45    15    16   ar
    46    15    20    1
    47    16    21    1
    48    21    22    1
    49    22    23    1
    50    22    24    1
    51    41    42   ar
    52    41    44    1
    53    42    43    1
