@<TRIPOS>MOLECULE
mol_data/opt/cam/geoms/mol2/13al13al-13al13al-.out
 50 53 0 0 0
SMALL
GASTEIGER

@<TRIPOS>ATOM
      1 C           1.2550   -0.3808    0.1009 C.ar    1  LIG1        0.0058
      2 C           0.8785    0.9402    0.0247 C.ar    1  LIG1       -0.0019
      3 C          -0.5384    0.9508    0.0054 C.ar    1  LIG1        0.1467
      4 C          -0.9944   -0.3531    0.0697 C.ar    1  LIG1        0.1052
      5 N           0.1282   -1.1477    0.1273 N.ar    1  LIG1       -0.3566
      6 H           0.1091   -2.1516    0.1817 H       1  LIG1        0.1655
      7 H           2.2374   -0.8247    0.1379 H       1  LIG1        0.0808
      8 H           1.5452    1.7874   -0.0122 H       1  LIG1        0.0669
      9 O          -1.3994    2.0115   -0.0632 O.3     1  LIG1       -0.4929
     10 C          -0.7978    3.2875   -0.1242 C.3     1  LIG1        0.0789
     11 H          -1.6083    4.0145   -0.1742 H       1  LIG1        0.0660
     12 H          -0.1909    3.4836    0.7673 H       1  LIG1        0.0660
     13 H          -0.1675    3.3873   -1.0155 H       1  LIG1        0.0660
     14 C          -2.3439   -0.8614    0.0791 C.ar    1  LIG1        0.0705
     15 C          -2.8425   -2.1547    0.1412 C.ar    1  LIG1        0.0076
     16 C          -4.2513   -2.0414    0.1170 C.ar    1  LIG1        0.1473
     17 C          -4.5925   -0.7020    0.0415 C.ar    1  LIG1        0.1057
     18 N          -3.4064   -0.0064    0.0201 N.ar    1  LIG1       -0.3488
     19 H          -3.2962    0.9950   -0.0321 H       1  LIG1        0.1661
     20 H          -2.2628   -3.0635    0.1968 H       1  LIG1        0.0676
     21 O          -5.2011   -3.0237    0.1568 O.3     1  LIG1       -0.4929
     22 C          -4.7175   -4.3471    0.2327 C.3     1  LIG1        0.0789
     23 H          -5.5903   -4.9995    0.2559 H       1  LIG1        0.0660
     24 H          -4.1034   -4.5964   -0.6407 H       1  LIG1        0.0660
     25 H          -4.1261   -4.5024    1.1428 H       1  LIG1        0.0660
     26 C          -5.8918   -0.0826   -0.0083 C.ar    1  LIG1        0.0706
     27 C          -6.2732    1.2495   -0.0841 C.ar    1  LIG1        0.0076
     28 C          -7.6869    1.2591   -0.1030 C.ar    1  LIG1        0.1473
     29 C          -8.1462   -0.0441   -0.0397 C.ar    1  LIG1        0.1057
     30 N          -7.0272   -0.8407    0.0172 N.ar    1  LIG1       -0.3488
     31 H          -7.0112   -1.8480    0.0706 H       1  LIG1        0.1661
     32 H          -5.6115    2.1012   -0.1207 H       1  LIG1        0.0676
     33 O          -8.5449    2.3240   -0.1708 O.3     1  LIG1       -0.4929
     34 C          -7.9388    3.5958   -0.2294 C.3     1  LIG1        0.0789
     35 H          -8.7456    4.3275   -0.2786 H       1  LIG1        0.0660
     36 H          -7.3306    3.7888    0.6624 H       1  LIG1        0.0660
     37 H          -7.3068    3.6953   -1.1200 H       1  LIG1        0.0660
     38 C          -9.4957   -0.5548   -0.0300 C.ar    1  LIG1        0.0701
     39 C          -9.9879   -1.8450    0.0328 C.ar    1  LIG1        0.0069
     40 C         -11.4009   -1.7448    0.0089 C.ar    1  LIG1        0.1379
     41 C         -11.7426   -0.4132   -0.0670 C.ar    1  LIG1        0.0444
     42 N         -10.5621    0.2972   -0.0896 N.ar    1  LIG1       -0.3564
     43 H         -10.4558    1.2979   -0.1417 H       1  LIG1        0.1655
     44 H         -12.6993    0.0797   -0.1060 H       1  LIG1        0.0844
     45 H          -9.4220   -2.7628    0.0896 H       1  LIG1        0.0676
     46 O         -12.2123   -2.8356    0.0568 O.3     1  LIG1       -0.4936
     47 C         -13.5897   -2.5512    0.0236 C.3     1  LIG1        0.0789
     48 H         -14.1140   -3.5063    0.0680 H       1  LIG1        0.0660
     49 H         -13.8909   -1.9326    0.8794 H       1  LIG1        0.0660
     50 H         -13.8676   -2.0281   -0.9010 H       1  LIG1        0.0660
@<TRIPOS>BOND
     1    37    34    1
     2    13    10    1
     3    50    47    1
     4    24    22    1
     5    35    34    1
     6    34    33    1
     7    34    36    1
     8    11    10    1
     9    33    28    1
    10    43    42    1
    11    10     9    1
    12    10    12    1
    13    32    27    1
    14    44    41    1
    15    28    27   ar
    16    28    29   ar
    17    42    41   ar
    18    42    38   ar
    19    27    26   ar
    20    41    40   ar
    21     9     3    1
    22    29    38    1
    23    29    30   ar
    24    19    18    1
    25    38    39   ar
    26     8     2    1
    27    26    30   ar
    28    26    17    1
    29     3     2   ar
    30     3     4   ar
    31    40    39   ar
    32    40    46    1
    33    30    31    1
    34    18    17   ar
    35    18    14   ar
    36    47    46    1
    37    47    48    1
    38    47    49    1
    39     2     1   ar
    40    39    45    1
    41    17    16   ar
    42     4    14    1
    43     4     5   ar
    44    14    15   ar
    45     1     5   ar
    46     1     7    1
    47    16    15   ar
    48    16    21    1
    49     5     6    1
    50    15    20    1
    51    21    22    1
    52    22    23    1
    53    22    25    1
