@<TRIPOS>MOLECULE
mol_data/opt/cam/geoms/mol2/13al4ei6eh13al.out
 54 57 0 0 0
SMALL
GASTEIGER

@<TRIPOS>ATOM
      1 C           1.4457   -0.2857    0.1746 C.ar    1  LIG1        0.0057
      2 C           1.0846    1.0374    0.2746 C.ar    1  LIG1       -0.0019
      3 C          -0.3321    1.0803    0.1862 C.ar    1  LIG1        0.1452
      4 C          -0.8016   -0.2107    0.0270 C.ar    1  LIG1        0.0899
      5 N           0.3138   -1.0286    0.0520 N.ar    1  LIG1       -0.3577
      6 H           0.2815   -2.0152   -0.1436 H       1  LIG1        0.1654
      7 H           2.4227   -0.7438    0.1734 H       1  LIG1        0.0808
      8 H           1.7586    1.8692    0.4064 H       1  LIG1        0.0669
      9 O          -1.1547    2.1517    0.3029 O.3     1  LIG1       -0.4930
     10 C          -0.5253    3.4110    0.3350 C.3     1  LIG1        0.0789
     11 H          -1.3209    4.1552    0.3767 H       1  LIG1        0.0660
     12 H           0.1143    3.5209    1.2200 H       1  LIG1        0.0660
     13 H           0.0813    3.5811   -0.5629 H       1  LIG1        0.0660
     14 C          -3.1511   -0.2473   -0.8871 C.ar    1  LIG1        0.0345
     15 C          -4.4167   -0.8419   -0.8840 C.ar    1  LIG1       -0.0376
     16 C          -2.1515   -0.7695   -0.0441 C.ar    1  LIG1        0.0175
     17 C          -4.7147   -1.9535   -0.1049 C.ar    1  LIG1       -0.0111
     18 H          -5.1794   -0.4331   -1.5379 H       1  LIG1        0.0636
     19 C          -2.4704   -1.8843    0.7384 C.ar    1  LIG1       -0.0478
     20 C          -3.7192   -2.4940    0.7275 C.ar    1  LIG1       -0.0420
     21 H          -1.7134   -2.2671    1.4168 H       1  LIG1        0.0627
     22 C          -2.9107    0.8321   -1.7959 C.1     1  LIG1       -0.0690
     23 C          -2.7599    1.7139   -2.6014 C.1     1  LIG1       -0.1139
     24 H          -2.6075    2.5000   -3.3037 H       1  LIG1        0.1232
     25 C          -3.9873   -3.6765    1.6191 C.3     1  LIG1       -0.0391
     26 H          -3.1843   -3.8027    2.3482 H       1  LIG1        0.0278
     27 H          -4.0642   -4.5983    1.0357 H       1  LIG1        0.0278
     28 H          -4.9274   -3.5607    2.1648 H       1  LIG1        0.0278
     29 C          -6.4096   -3.7500   -0.7154 C.ar    1  LIG1        0.1217
     30 C          -6.0968   -2.5042   -0.1472 C.ar    1  LIG1        0.0180
     31 C          -7.1576   -1.7514    0.3435 C.ar    1  LIG1       -0.0285
     32 C          -8.4645   -2.2281    0.3058 C.ar    1  LIG1        0.0530
     33 C          -8.6636   -3.5251   -0.2199 C.ar    1  LIG1        0.1092
     34 N          -7.6568   -4.2289   -0.7353 N.ar    1  LIG1       -0.2345
     35 H          -6.9593   -0.7671    0.7585 H       1  LIG1        0.0643
     36 C          -5.4012   -4.5688   -1.3306 C.1     1  LIG1       -0.0492
     37 C          -4.5618   -5.2563   -1.8515 C.1     1  LIG1       -0.1124
     38 H          -3.8232   -5.8635   -2.3220 H       1  LIG1        0.1232
     39 N          -9.5218   -1.4721    0.7865 N.pl3   1  LIG1       -0.3563
     40 H          -9.3214   -0.4873    0.8880 H       1  LIG1        0.1424
     41 H         -10.4034   -1.6424    0.3215 H       1  LIG1        0.1424
     42 C          -9.9729   -4.1731   -0.2840 C.ar    1  LIG1        0.0704
     43 C         -11.1892   -3.9676    0.3599 C.ar    1  LIG1        0.0070
     44 C         -12.0688   -4.9781   -0.1025 C.ar    1  LIG1        0.1379
     45 C         -11.3838   -5.7633   -1.0035 C.ar    1  LIG1        0.0444
     46 N         -10.1197   -5.2550   -1.0979 N.ar    1  LIG1       -0.3563
     47 H          -9.3383   -5.6256   -1.6175 H       1  LIG1        0.1655
     48 H         -11.7120   -6.6196   -1.5694 H       1  LIG1        0.0844
     49 H         -11.3878   -3.2401    1.1296 H       1  LIG1        0.0676
     50 O         -13.3684   -5.1999    0.2310 O.3     1  LIG1       -0.4936
     51 C         -13.9074   -4.3302    1.1986 C.3     1  LIG1        0.0789
     52 H         -14.9426   -4.6360    1.3521 H       1  LIG1        0.0660
     53 H         -13.3673   -4.4001    2.1511 H       1  LIG1        0.0660
     54 H         -13.8887   -3.2867    0.8588 H       1  LIG1        0.0660
@<TRIPOS>BOND
     1    24    23    1
     2    23    22    3
     3    38    37    1
     4    37    36    3
     5    22    14    1
     6    47    46    1
     7    48    45    1
     8    18    15    1
     9    36    29    1
    10    46    45   ar
    11    46    42   ar
    12    45    44   ar
    13    14    15   ar
    14    14    16   ar
    15    15    17   ar
    16    34    29   ar
    17    34    33   ar
    18    29    30   ar
    19    13    10    1
    20    42    33    1
    21    42    43   ar
    22    33    32   ar
    23    30    17    1
    24    30    31   ar
    25     6     5    1
    26    17    20   ar
    27    44    50    1
    28    44    43   ar
    29    16     4    1
    30    16    19   ar
    31     4     5   ar
    32     4     3   ar
    33     5     1   ar
    34     7     1    1
    35     1     2   ar
    36     3     2   ar
    37     3     9    1
    38    50    51    1
    39     2     8    1
    40     9    10    1
    41    32    31   ar
    42    32    39    1
    43    41    39    1
    44    10    11    1
    45    10    12    1
    46    31    35    1
    47    43    49    1
    48    20    19   ar
    49    20    25    1
    50    19    21    1
    51    39    40    1
    52    54    51    1
    53    27    25    1
    54    51    52    1
    55    51    53    1
    56    25    28    1
    57    25    26    1
