@<TRIPOS>MOLECULE
mol_data/opt/cam/geoms/mol2/13al12ea-13el6li.out
 53 56 0 0 0
SMALL
GASTEIGER

@<TRIPOS>ATOM
      1 C           1.1834   -0.1731    0.8088 C.ar    1  LIG1        0.0058
      2 C           0.9167    1.0680    0.2753 C.ar    1  LIG1       -0.0018
      3 C          -0.4719    1.1009   -0.0086 C.ar    1  LIG1        0.1483
      4 C          -1.0193   -0.1169    0.3673 C.ar    1  LIG1        0.1255
      5 N           0.0261   -0.8791    0.8549 N.ar    1  LIG1       -0.3553
      6 H          -0.0924   -1.8084    1.2215 H       1  LIG1        0.1655
      7 H           2.1135   -0.5940    1.1581 H       1  LIG1        0.0808
      8 H           1.6380    1.8511    0.1039 H       1  LIG1        0.0669
      9 O          -1.1994    2.0862   -0.5777 O.3     1  LIG1       -0.4929
     10 C          -0.5022    3.2698   -0.8955 C.3     1  LIG1        0.0789
     11 H          -1.2339    3.9509   -1.3294 H       1  LIG1        0.0660
     12 H          -0.0656    3.7304   -0.0011 H       1  LIG1        0.0660
     13 H           0.2949    3.0829   -1.6255 H       1  LIG1        0.0660
     14 C          -2.3481   -0.6575    0.2997 C.ar    1  LIG1        0.1707
     15 C          -3.6240   -0.1446    0.2734 C.ar    1  LIG1        0.0726
     16 C          -4.5104   -1.2726    0.2286 C.ar    1  LIG1        0.0018
     17 C          -3.7348   -2.3852    0.2484 C.ar    1  LIG1        0.1544
     18 O          -2.4124   -2.0225    0.2892 O.2     1  LIG1       -0.4505
     19 C          -4.0306    1.2138    0.3463 C.1     1  LIG1       -0.0658
     20 C          -4.4285    2.3470    0.4264 C.1     1  LIG1       -0.1138
     21 H          -4.7652    3.3549    0.4967 H       1  LIG1        0.1232
     22 H          -5.5876   -1.2445    0.1975 H       1  LIG1        0.0668
     23 C          -3.9953   -3.7996    0.2276 C.ar    1  LIG1        0.1018
     24 C          -5.1936   -4.5093    0.2901 C.ar    1  LIG1        0.0951
     25 C          -4.8419   -5.8880    0.2199 C.ar    1  LIG1        0.1614
     26 C          -3.4627   -5.9905    0.1193 C.ar    1  LIG1        0.0956
     27 N          -2.9847   -4.6988    0.1344 N.ar    1  LIG1       -0.3477
     28 H          -2.0064   -4.4801    0.0220 H       1  LIG1        0.1661
     29 C          -6.4926   -3.9618    0.4410 C.1     1  LIG1       -0.0637
     30 C          -7.5974   -3.4947    0.5649 C.1     1  LIG1       -0.1137
     31 H          -8.5735   -3.0880    0.6943 H       1  LIG1        0.1232
     32 O          -5.7031   -6.9416    0.2861 O.3     1  LIG1       -0.4917
     33 C          -6.6381   -7.0183   -0.7859 C.3     1  LIG1        0.0789
     34 H          -7.2438   -7.9066   -0.6032 H       1  LIG1        0.0660
     35 H          -7.2843   -6.1373   -0.8112 H       1  LIG1        0.0660
     36 H          -6.1211   -7.1183   -1.7467 H       1  LIG1        0.0660
     37 C          -1.2045   -7.0901   -0.2204 C.ar    1  LIG1        0.2239
     38 C          -2.5957   -7.1621    0.0359 C.ar    1  LIG1        0.0637
     39 C          -3.1011   -8.4479    0.2070 C.ar    1  LIG1       -0.0430
     40 C          -2.2812   -9.5748    0.1128 C.ar    1  LIG1       -0.0315
     41 C          -0.9418   -9.3531   -0.1525 C.ar    1  LIG1        0.0343
     42 N          -0.4148   -8.1337   -0.3127 N.ar    1  LIG1       -0.2205
     43 H          -4.1578   -8.5592    0.4197 H       1  LIG1        0.0629
     44 H          -0.2486  -10.1868   -0.2398 H       1  LIG1        0.0833
     45 O          -0.6492   -5.8557   -0.3799 O.3     1  LIG1       -0.4792
     46 C           0.7415   -5.8088   -0.6816 C.3     1  LIG1        0.0804
     47 H           0.9793   -4.7513   -0.7979 H       1  LIG1        0.0660
     48 H           1.3324   -6.2488    0.1243 H       1  LIG1        0.0660
     49 H           0.9588   -6.3498   -1.6044 H       1  LIG1        0.0660
     50 C          -2.8319  -10.9620    0.2976 C.3     1  LIG1       -0.0383
     51 H          -2.0479  -11.7146    0.1873 H       1  LIG1        0.0278
     52 H          -3.6123  -11.1827   -0.4368 H       1  LIG1        0.0278
     53 H          -3.2761  -11.0852    1.2899 H       1  LIG1        0.0278
@<TRIPOS>BOND
     1    36    33    1
     2    13    10    1
     3    49    46    1
     4    11    10    1
     5    10     9    1
     6    10    12    1
     7    35    33    1
     8    47    46    1
     9    33    34    1
    10    33    32    1
    11    46    45    1
    12    46    48    1
    13     9     3    1
    14    52    50    1
    15    45    37    1
    16    42    37   ar
    17    42    41   ar
    18    44    41    1
    19    37    38   ar
    20    41    40   ar
    21     3     2   ar
    22     3     4   ar
    23    28    27    1
    24    38    26    1
    25    38    39   ar
    26     8     2    1
    27    40    39   ar
    28    40    50    1
    29    26    27   ar
    30    26    25   ar
    31    27    23   ar
    32    51    50    1
    33    22    16    1
    34    39    43    1
    35    25    32    1
    36    25    24   ar
    37    23    17    1
    38    23    24   ar
    39    16    17   ar
    40    16    15   ar
    41    17    18   ar
    42    15    14   ar
    43    15    19    1
    44     2     1   ar
    45    18    14   ar
    46    24    29    1
    47    50    53    1
    48    14     4    1
    49    19    20    3
    50     4     5   ar
    51    20    21    1
    52    29    30    3
    53    30    31    1
    54     1     5   ar
    55     1     7    1
    56     5     6    1
