@<TRIPOS>MOLECULE
mol_data/opt/cam/geoms/mol2/13al13al-13al-13al-.out
 50 53 0 0 0
SMALL
GASTEIGER

@<TRIPOS>ATOM
      1 C           1.1937   -0.6278   -0.2780 C.ar    1  LIG1        0.0058
      2 C           0.8823    0.6918   -0.5106 C.ar    1  LIG1       -0.0019
      3 C          -0.5317    0.7795   -0.4758 C.ar    1  LIG1        0.1467
      4 C          -1.0498   -0.4776   -0.2256 C.ar    1  LIG1        0.1052
      5 N           0.0319   -1.3199   -0.1071 N.ar    1  LIG1       -0.3566
      6 H          -0.0375   -2.3069    0.0734 H       1  LIG1        0.1655
      7 H           2.1528   -1.1181   -0.2222 H       1  LIG1        0.0808
      8 H           1.5890    1.4880   -0.6842 H       1  LIG1        0.0669
      9 O          -1.3397    1.8715   -0.6480 O.3     1  LIG1       -0.4929
     10 C          -0.6814    3.0711   -0.9988 C.3     1  LIG1        0.0789
     11 H          -1.4547    3.8283   -1.1289 H       1  LIG1        0.0660
     12 H           0.0075    3.3910   -0.2085 H       1  LIG1        0.0660
     13 H          -0.1239    2.9585   -1.9356 H       1  LIG1        0.0660
     14 C          -2.4222   -0.9072   -0.1096 C.ar    1  LIG1        0.0705
     15 C          -2.9941   -2.1503    0.0822 C.ar    1  LIG1        0.0076
     16 C          -4.3967   -1.9635    0.0647 C.ar    1  LIG1        0.1473
     17 C          -4.6625   -0.6200   -0.1249 C.ar    1  LIG1        0.1057
     18 N          -3.4394    0.0069   -0.2189 N.ar    1  LIG1       -0.3488
     19 H          -3.2637    0.9597   -0.5026 H       1  LIG1        0.1661
     20 H          -2.4849   -3.0948    0.2084 H       1  LIG1        0.0676
     21 O          -5.3379   -2.9471    0.2046 O.3     1  LIG1       -0.4929
     22 C          -5.8020   -3.1103    1.5363 C.3     1  LIG1        0.0789
     23 H          -6.5080   -3.9425    1.5259 H       1  LIG1        0.0660
     24 H          -4.9754   -3.3462    2.2170 H       1  LIG1        0.0660
     25 H          -6.3116   -2.2079    1.8918 H       1  LIG1        0.0660
     26 C          -5.9251    0.0770   -0.1992 C.ar    1  LIG1        0.0706
     27 C          -7.1785   -0.3977   -0.5442 C.ar    1  LIG1        0.0076
     28 C          -8.0701    0.6999   -0.4767 C.ar    1  LIG1        0.1473
     29 C          -7.3633    1.8222   -0.0866 C.ar    1  LIG1        0.1057
     30 N          -6.0523    1.4117    0.0825 N.ar    1  LIG1       -0.3488
     31 H          -5.2952    2.0319    0.3155 H       1  LIG1        0.1661
     32 H          -7.3890   -1.4171   -0.8249 H       1  LIG1        0.0676
     33 O          -9.4041    0.7339   -0.7278 O.3     1  LIG1       -0.4929
     34 C          -9.9912   -0.4993   -1.0775 C.3     1  LIG1        0.0789
     35 H         -11.0531   -0.3060   -1.2308 H       1  LIG1        0.0660
     36 H          -9.5606   -0.9021   -2.0023 H       1  LIG1        0.0660
     37 H          -9.8711   -1.2425   -0.2796 H       1  LIG1        0.0660
     38 C          -7.7958    3.1775    0.1672 C.ar    1  LIG1        0.0701
     39 C          -8.8294    3.9054   -0.3738 C.ar    1  LIG1        0.0069
     40 C          -8.8084    5.1819    0.2486 C.ar    1  LIG1        0.1379
     41 C          -7.7706    5.2138    1.1473 C.ar    1  LIG1        0.0444
     42 N          -7.1336    3.9850    1.0663 N.ar    1  LIG1       -0.3564
     43 H          -6.5482    3.6216    1.8003 H       1  LIG1        0.1655
     44 H          -7.4160    5.9882    1.8065 H       1  LIG1        0.0844
     45 H          -9.5082    3.5739   -1.1431 H       1  LIG1        0.0676
     46 O          -9.6910    6.1619   -0.0732 O.3     1  LIG1       -0.4936
     47 C          -9.5389    7.3612    0.6476 C.3     1  LIG1        0.0789
     48 H         -10.3107    8.0454    0.2942 H       1  LIG1        0.0660
     49 H          -9.6655    7.1974    1.7258 H       1  LIG1        0.0660
     50 H          -8.5513    7.8086    0.4743 H       1  LIG1        0.0660
@<TRIPOS>BOND
     1    36    34    1
     2    13    10    1
     3    35    34    1
     4    45    39    1
     5    11    10    1
     6    34    33    1
     7    34    37    1
     8    10     9    1
     9    10    12    1
    10    32    27    1
    11    33    28    1
    12     8     2    1
    13     9     3    1
    14    27    28   ar
    15    27    26   ar
    16     2     3   ar
    17     2     1   ar
    18    19    18    1
    19    28    29   ar
    20     3     4   ar
    21    39    38   ar
    22    39    40   ar
    23     1     7    1
    24     1     5   ar
    25     4    14    1
    26     4     5   ar
    27    18    17   ar
    28    18    14   ar
    29    26    17    1
    30    26    30   ar
    31    17    16   ar
    32    14    15   ar
    33     5     6    1
    34    29    30   ar
    35    29    38    1
    36    46    40    1
    37    46    47    1
    38    16    15   ar
    39    16    21    1
    40    15    20    1
    41    30    31    1
    42    38    42   ar
    43    21    22    1
    44    40    41   ar
    45    48    47    1
    46    50    47    1
    47    47    49    1
    48    42    41   ar
    49    42    43    1
    50    41    44    1
    51    23    22    1
    52    22    25    1
    53    22    24    1
