@<TRIPOS>MOLECULE
mol_data/opt/cam/geoms/mol2/13al13al13al13al-.out
 50 53 0 0 0
SMALL
GASTEIGER

@<TRIPOS>ATOM
      1 C           1.3831   -0.0873    0.0390 C.ar    1  LIG1        0.0058
      2 C           0.9554    1.1938   -0.2161 C.ar    1  LIG1       -0.0019
      3 C          -0.4636    1.1646   -0.1792 C.ar    1  LIG1        0.1467
      4 C          -0.8685   -0.1294    0.0890 C.ar    1  LIG1        0.1052
      5 N           0.2864   -0.8810    0.2056 N.ar    1  LIG1       -0.3566
      6 H           0.3062   -1.8201    0.5665 H       1  LIG1        0.1655
      7 H           2.3822   -0.4868    0.1156 H       1  LIG1        0.0808
      8 H           1.5894    2.0437   -0.4146 H       1  LIG1        0.0669
      9 O          -1.3488    2.1771   -0.3748 O.3     1  LIG1       -0.4929
     10 C          -0.7869    3.4236   -0.7199 C.3     1  LIG1        0.0789
     11 H          -1.6197    4.1127   -0.8611 H       1  LIG1        0.0660
     12 H          -0.1357    3.8055    0.0760 H       1  LIG1        0.0660
     13 H          -0.2099    3.3603   -1.6505 H       1  LIG1        0.0660
     14 C          -2.1891   -0.6978    0.2068 C.ar    1  LIG1        0.0705
     15 C          -3.3923   -0.1025    0.5153 C.ar    1  LIG1        0.0076
     16 C          -4.3826   -1.1194    0.4646 C.ar    1  LIG1        0.1473
     17 C          -3.7754   -2.3138    0.1398 C.ar    1  LIG1        0.1057
     18 N          -2.4147   -2.0457    0.0150 N.ar    1  LIG1       -0.3488
     19 H          -1.8276   -2.5980   -0.5918 H       1  LIG1        0.1661
     20 H          -3.5172    0.9387    0.7646 H       1  LIG1        0.0676
     21 O          -5.7148   -1.0232    0.7091 O.3     1  LIG1       -0.4929
     22 C          -6.1773    0.2534    1.0933 C.3     1  LIG1        0.0789
     23 H          -7.2510    0.1590    1.2567 H       1  LIG1        0.0660
     24 H          -5.6995    0.5907    2.0208 H       1  LIG1        0.0660
     25 H          -5.9959    0.9987    0.3098 H       1  LIG1        0.0660
     26 C          -4.3202   -3.6377   -0.0157 C.ar    1  LIG1        0.0706
     27 C          -5.6123   -4.0510   -0.2842 C.ar    1  LIG1        0.0076
     28 C          -5.5834   -5.4653   -0.3288 C.ar    1  LIG1        0.1473
     29 C          -4.2929   -5.8981   -0.0969 C.ar    1  LIG1        0.1057
     30 N          -3.5311   -4.7584    0.0731 N.ar    1  LIG1       -0.3488
     31 H          -2.6090   -4.7665    0.4761 H       1  LIG1        0.1661
     32 H          -6.4497   -3.3903   -0.4379 H       1  LIG1        0.0676
     33 O          -6.6043   -6.3429   -0.5684 O.3     1  LIG1       -0.4929
     34 C          -7.8710   -5.7611   -0.7937 C.3     1  LIG1        0.0789
     35 H          -8.5686   -6.5823   -0.9594 H       1  LIG1        0.0660
     36 H          -8.1994   -5.1756    0.0727 H       1  LIG1        0.0660
     37 H          -7.8587   -5.1128   -1.6773 H       1  LIG1        0.0660
     38 C          -3.7529   -7.2335   -0.0324 C.ar    1  LIG1        0.0701
     39 C          -2.4617   -7.6934    0.1495 C.ar    1  LIG1        0.0069
     40 C          -2.5255   -9.1088    0.1350 C.ar    1  LIG1        0.1379
     41 C          -3.8364   -9.4835   -0.0547 C.ar    1  LIG1        0.0444
     42 N          -4.5703   -8.3211   -0.1526 N.ar    1  LIG1       -0.3564
     43 H          -5.5629   -8.2400   -0.3071 H       1  LIG1        0.1655
     44 H          -4.3008  -10.4523   -0.1276 H       1  LIG1        0.0844
     45 H          -1.5633   -7.1064    0.2693 H       1  LIG1        0.0676
     46 O          -1.4237   -9.8911    0.2879 O.3     1  LIG1       -0.4936
     47 C          -1.6684  -11.2761    0.2419 C.3     1  LIG1        0.0789
     48 H          -0.7080  -11.7745    0.3762 H       1  LIG1        0.0660
     49 H          -2.3530  -11.5876    1.0418 H       1  LIG1        0.0660
     50 H          -2.0992  -11.5738   -0.7232 H       1  LIG1        0.0660
@<TRIPOS>BOND
     1    37    34    1
     2    13    10    1
     3    35    34    1
     4    11    10    1
     5    34    33    1
     6    34    36    1
     7    50    47    1
     8    10     9    1
     9    10    12    1
    10    19    18    1
    11    33    28    1
    12    32    27    1
    13     8     2    1
    14     9     3    1
    15    28    27   ar
    16    28    29   ar
    17    43    42    1
    18    27    26   ar
    19     2     3   ar
    20     2     1   ar
    21     3     4   ar
    22    42    41   ar
    23    42    38   ar
    24    44    41    1
    25    29    38    1
    26    29    30   ar
    27    41    40   ar
    28    38    39   ar
    29    26    30   ar
    30    26    17    1
    31    18    17   ar
    32    18    14   ar
    33     1     7    1
    34     1     5   ar
    35    30    31    1
    36     4     5   ar
    37     4    14    1
    38    40    39   ar
    39    40    46    1
    40    17    16   ar
    41    39    45    1
    42     5     6    1
    43    14    15   ar
    44    47    46    1
    45    47    48    1
    46    47    49    1
    47    25    22    1
    48    16    15   ar
    49    16    21    1
    50    15    20    1
    51    21    22    1
    52    22    23    1
    53    22    24    1
