@<TRIPOS>MOLECULE
mol_data/opt/cam/geoms/mol2/13al13al-13al.out
 38 40 0 0 0
SMALL
GASTEIGER

@<TRIPOS>ATOM
      1 C           1.0979   -0.5542    0.1067 C.ar    1  LIG1        0.0058
      2 C           0.7898    0.7852    0.0480 C.ar    1  LIG1       -0.0019
      3 C          -0.6248    0.8688    0.0237 C.ar    1  LIG1        0.1467
      4 C          -1.1474   -0.4105    0.0676 C.ar    1  LIG1        0.1052
      5 N          -0.0672   -1.2625    0.1180 N.ar    1  LIG1       -0.3566
      6 H          -0.1384   -2.2646    0.1576 H       1  LIG1        0.1655
      7 H           2.0559   -1.0486    0.1408 H       1  LIG1        0.0808
      8 H           1.4991    1.5976    0.0257 H       1  LIG1        0.0669
      9 O          -1.4298    1.9732   -0.0327 O.3     1  LIG1       -0.4929
     10 C          -0.7635    3.2173   -0.0743 C.3     1  LIG1        0.0789
     11 H          -1.5355    3.9855   -0.1170 H       1  LIG1        0.0660
     12 H          -0.1509    3.3700    0.8218 H       1  LIG1        0.0660
     13 H          -0.1252    3.2966   -0.9620 H       1  LIG1        0.0660
     14 C          -2.5213   -0.8497    0.0650 C.ar    1  LIG1        0.0705
     15 C          -3.0851   -2.1162    0.1081 C.ar    1  LIG1        0.0076
     16 C          -4.4868   -1.9306    0.0797 C.ar    1  LIG1        0.1473
     17 C          -4.7591   -0.5757    0.0207 C.ar    1  LIG1        0.1057
     18 N          -3.5396    0.0585    0.0131 N.ar    1  LIG1       -0.3488
     19 H          -3.3805    1.0540   -0.0247 H       1  LIG1        0.1661
     20 H          -2.5526   -3.0541    0.1540 H       1  LIG1        0.0676
     21 O          -5.4854   -2.8664    0.1028 O.3     1  LIG1       -0.4929
     22 C          -5.0648   -4.2111    0.1638 C.3     1  LIG1        0.0789
     23 H          -5.9668   -4.8232    0.1752 H       1  LIG1        0.0660
     24 H          -4.4585   -4.4787   -0.7099 H       1  LIG1        0.0660
     25 H          -4.4851   -4.4061    1.0739 H       1  LIG1        0.0660
     26 C          -6.0254    0.1144   -0.0261 C.ar    1  LIG1        0.0701
     27 C          -6.3348    1.4645   -0.0854 C.ar    1  LIG1        0.0069
     28 C          -7.7510    1.5557   -0.1101 C.ar    1  LIG1        0.1379
     29 C          -8.2668    0.2823   -0.0661 C.ar    1  LIG1        0.0444
     30 N          -7.1994   -0.5809   -0.0153 N.ar    1  LIG1       -0.3564
     31 H          -7.2338   -1.5876    0.0250 H       1  LIG1        0.1655
     32 H          -9.2892   -0.0567   -0.0675 H       1  LIG1        0.0844
     33 H          -5.6274    2.2794   -0.1080 H       1  LIG1        0.0676
     34 O          -8.5344    2.6692   -0.1669 O.3     1  LIG1       -0.4936
     35 C          -7.8455    3.8954   -0.2056 C.3     1  LIG1        0.0789
     36 H          -8.6027    4.6792   -0.2484 H       1  LIG1        0.0660
     37 H          -7.2285    4.0420    0.6903 H       1  LIG1        0.0660
     38 H          -7.2016    3.9708   -1.0913 H       1  LIG1        0.0660
@<TRIPOS>BOND
     1    38    35    1
     2    13    10    1
     3    24    22    1
     4    36    35    1
     5    35    34    1
     6    35    37    1
     7    34    28    1
     8    11    10    1
     9    28    27   ar
    10    28    29   ar
    11    33    27    1
    12    27    26   ar
    13    10     9    1
    14    10    12    1
    15    32    29    1
    16    29    30   ar
    17     9     3    1
    18    26    30   ar
    19    26    17    1
    20    19    18    1
    21    30    31    1
    22    18    17   ar
    23    18    14   ar
    24    17    16   ar
    25     3     2   ar
    26     3     4   ar
    27     8     2    1
    28     2     1   ar
    29    14     4    1
    30    14    15   ar
    31     4     5   ar
    32    16    21    1
    33    16    15   ar
    34    21    22    1
    35     1     5   ar
    36     1     7    1
    37    15    20    1
    38     5     6    1
    39    22    23    1
    40    22    25    1
