@<TRIPOS>MOLECULE
mol_data/opt/cam/geoms/mol2/13al13dl-6fa6ee.out
 50 53 0 0 0
SMALL
GASTEIGER

@<TRIPOS>ATOM
      1 C           1.2405    0.0042   -0.9815 C.ar    1  LIG1        0.0058
      2 C           0.7035    1.2106   -1.3634 C.ar    1  LIG1       -0.0019
      3 C          -0.6766    1.1630   -1.0380 C.ar    1  LIG1        0.1467
      4 C          -0.9447   -0.0656   -0.4592 C.ar    1  LIG1        0.1065
      5 N           0.2494   -0.7716   -0.4643 N.ar    1  LIG1       -0.3565
      6 H           0.4014   -1.6290    0.0406 H       1  LIG1        0.1655
      7 H           2.2576   -0.3520   -1.0366 H       1  LIG1        0.0808
      8 H           1.2371    2.0223   -1.8321 H       1  LIG1        0.0669
      9 O          -1.6423    2.0748   -1.2650 O.3     1  LIG1       -0.4929
     10 C          -1.2167    3.3588   -1.6755 C.3     1  LIG1        0.0789
     11 H          -2.1130    3.9754   -1.7257 H       1  LIG1        0.0660
     12 H          -0.5180    3.7944   -0.9529 H       1  LIG1        0.0660
     13 H          -0.7419    3.3240   -2.6633 H       1  LIG1        0.0660
     14 C          -2.1831   -0.6365    0.0038 C.ar    1  LIG1        0.0882
     15 C          -3.2970   -0.0603    0.5995 C.ar    1  LIG1        0.1207
     16 C          -4.2545   -1.1076    0.8099 C.ar    1  LIG1        0.1634
     17 C          -3.7093   -2.2885    0.3684 C.ar    1  LIG1        0.0956
     18 N          -2.4299   -1.9809   -0.0998 N.ar    1  LIG1       -0.3488
     19 H          -1.9359   -2.5701   -0.7545 H       1  LIG1        0.1661
     20 N          -3.6136    2.3869    1.3381 N.1     1  LIG1       -0.1907
     21 C          -3.4521    1.2961    0.9842 C.1     1  LIG1        0.1050
     22 O          -5.5043   -0.9874    1.3183 O.3     1  LIG1       -0.4917
     23 C          -5.5894   -0.5049    2.6591 C.3     1  LIG1        0.0789
     24 H          -6.6486   -0.5049    2.9149 H       1  LIG1        0.0660
     25 H          -5.0486   -1.1683    3.3422 H       1  LIG1        0.0660
     26 H          -5.1965    0.5110    2.7444 H       1  LIG1        0.0660
     27 C          -3.4609   -4.7895    0.4445 C.ar    1  LIG1        0.2223
     28 C          -4.2672   -3.6368    0.3206 C.ar    1  LIG1        0.0633
     29 C          -5.6315   -3.8570    0.1489 C.ar    1  LIG1       -0.0454
     30 C          -6.1197   -5.1526    0.0651 C.ar    1  LIG1       -0.0347
     31 C          -5.2182   -6.2114    0.1383 C.ar    1  LIG1        0.0775
     32 N          -3.9099   -6.0196    0.3344 N.ar    1  LIG1       -0.2124
     33 H          -6.2972   -3.0048    0.0807 H       1  LIG1        0.0626
     34 O          -2.1219   -4.6885    0.6676 O.3     1  LIG1       -0.4919
     35 H          -1.9415   -3.8219    1.0555 H       1  LIG1        0.2937
     36 H          -7.1802   -5.3387   -0.0553 H       1  LIG1        0.0639
     37 C          -5.2944   -8.6516    0.8522 C.ar    1  LIG1        0.1223
     38 C          -5.6808   -7.6138   -0.0193 C.ar    1  LIG1        0.0354
     39 C          -6.5380   -7.9393   -1.0632 C.ar    1  LIG1       -0.0330
     40 C          -6.9711   -9.2530   -1.2361 C.ar    1  LIG1        0.0435
     41 C          -6.5069  -10.2057   -0.3221 C.ar    1  LIG1        0.0444
     42 N          -5.7048   -9.9178    0.6898 N.ar    1  LIG1       -0.2448
     43 H          -6.8563   -7.1722   -1.7604 H       1  LIG1        0.0638
     44 H          -6.8100  -11.2442   -0.4248 H       1  LIG1        0.0842
     45 C          -4.4748   -8.4136    2.0067 C.1     1  LIG1       -0.0491
     46 C          -3.8197   -8.2555    3.0024 C.1     1  LIG1       -0.1124
     47 H          -3.2248   -8.1099    3.8742 H       1  LIG1        0.1232
     48 C          -7.8449   -9.6228   -2.3041 C.1     1  LIG1       -0.0681
     49 C          -8.5820   -9.9383   -3.2018 C.1     1  LIG1       -0.1139
     50 H          -9.2337  -10.2194   -3.9969 H       1  LIG1        0.1232
@<TRIPOS>BOND
     1    50    49    1
     2    49    48    3
     3    13    10    1
     4    48    40    1
     5     8     2    1
     6    43    39    1
     7    11    10    1
     8    10     9    1
     9    10    12    1
    10     2     3   ar
    11     2     1   ar
    12     9     3    1
    13    40    39   ar
    14    40    41   ar
    15    39    38   ar
    16     3     4   ar
    17     7     1    1
    18     1     5   ar
    19    19    18    1
    20     5     4   ar
    21     5     6    1
    22     4    14    1
    23    44    41    1
    24    41    42   ar
    25    18    14   ar
    26    18    17   ar
    27    36    30    1
    28    38    31    1
    29    38    37   ar
    30    14    15   ar
    31    30    31   ar
    32    30    29   ar
    33    33    29    1
    34    31    32   ar
    35    29    28   ar
    36    28    17    1
    37    28    27   ar
    38    32    27   ar
    39    17    16   ar
    40    27    34    1
    41    15    16   ar
    42    15    21    1
    43    34    35    1
    44    42    37   ar
    45    16    22    1
    46    37    45    1
    47    21    20    3
    48    22    23    1
    49    45    46    3
    50    23    26    1
    51    23    24    1
    52    23    25    1
    53    46    47    1
