@<TRIPOS>MOLECULE
mol_data/opt/cam/geoms/mol2/13al13de-12af-6af-.out
 43 46 0 0 0
SMALL
GASTEIGER

@<TRIPOS>ATOM
      1 C           1.2073   -0.0598   -0.8333 C.ar    1  LIG1        0.0058
      2 C           0.9071    1.0506   -0.0814 C.ar    1  LIG1       -0.0019
      3 C          -0.4776    0.9749    0.2222 C.ar    1  LIG1        0.1467
      4 C          -0.9858   -0.1733   -0.3568 C.ar    1  LIG1        0.1064
      5 N           0.0798   -0.8099   -0.9755 N.ar    1  LIG1       -0.3566
      6 H          -0.0216   -1.5661   -1.6323 H       1  LIG1        0.1655
      7 H           2.1413   -0.3652   -1.2793 H       1  LIG1        0.0808
      8 H           1.6020    1.8167    0.2246 H       1  LIG1        0.0669
      9 O          -1.2352    1.7932    0.9800 O.3     1  LIG1       -0.4929
     10 C          -0.6816    3.0555    1.2925 C.3     1  LIG1        0.0789
     11 H          -1.4607    3.6102    1.8136 H       1  LIG1        0.0660
     12 H           0.1935    2.9568    1.9460 H       1  LIG1        0.0660
     13 H          -0.3967    3.5989    0.3851 H       1  LIG1        0.0660
     14 C          -2.3168   -0.7266   -0.3299 C.ar    1  LIG1        0.0858
     15 C          -3.5637   -0.1194   -0.3816 C.ar    1  LIG1        0.0946
     16 C          -4.5597   -1.1502   -0.3217 C.ar    1  LIG1        0.0709
     17 C          -3.8826   -2.3541   -0.2461 C.ar    1  LIG1        0.0995
     18 N          -2.5380   -2.0752   -0.2598 N.ar    1  LIG1       -0.3485
     19 H          -1.8286   -2.7696   -0.0841 H       1  LIG1        0.1661
     20 N          -4.0472    2.3936   -0.6803 N.1     1  LIG1       -0.1908
     21 C          -3.8201    1.2677   -0.5368 C.1     1  LIG1        0.1026
     22 C          -5.9652   -0.9712   -0.3559 C.1     1  LIG1       -0.0661
     23 C          -7.1589   -0.8148   -0.3850 C.1     1  LIG1       -0.1138
     24 H          -8.2123   -0.6557   -0.4127 H       1  LIG1        0.1232
     25 C          -4.3522   -3.7098   -0.1581 C.ar    1  LIG1        0.1566
     26 C          -5.5888   -4.2788   -0.0870 C.ar    1  LIG1        0.0279
     27 C          -5.3606   -5.6786   -0.0012 C.ar    1  LIG1        0.1633
     28 C          -4.0064   -5.8855   -0.0111 C.ar    1  LIG1        0.1785
     29 O          -3.3842   -4.6647   -0.1250 O.2     1  LIG1       -0.4495
     30 H          -6.5383   -3.7692   -0.1005 H       1  LIG1        0.0693
     31 O          -6.3584   -6.5919    0.0611 O.3     1  LIG1       -0.5032
     32 H          -6.0258   -7.4520   -0.2242 H       1  LIG1        0.2923
     33 C          -1.8772   -7.0722   -0.4893 C.ar    1  LIG1        0.0386
     34 C          -3.1817   -7.0759    0.0290 C.ar    1  LIG1        0.0424
     35 C          -3.6568   -8.2681    0.5791 C.ar    1  LIG1       -0.0064
     36 C          -2.8349   -9.3870    0.5648 C.ar    1  LIG1        0.1355
     37 C          -1.5568   -9.2747    0.0211 C.ar    1  LIG1        0.0690
     38 N          -1.0888   -8.1381   -0.4866 N.ar    1  LIG1       -0.2589
     39 H          -4.6250   -8.3342    1.0634 H       1  LIG1        0.0662
     40 H          -0.8901  -10.1367    0.0034 H       1  LIG1        0.0867
     41 H          -1.4713   -6.1629   -0.9213 H       1  LIG1        0.0837
     42 O          -3.3118  -10.5384    1.0987 O.3     1  LIG1       -0.5052
     43 H          -2.6338  -11.2234    1.0496 H       1  LIG1        0.2922
@<TRIPOS>BOND
     1     6     5    1
     2     7     1    1
     3     5     1   ar
     4     5     4   ar
     5    41    33    1
     6     1     2   ar
     7    20    21    3
     8    21    15    1
     9    33    38   ar
    10    33    34   ar
    11    38    37   ar
    12    24    23    1
    13    23    22    3
    14    15    14   ar
    15    15    16   ar
    16     4    14    1
    17     4     3   ar
    18    22    16    1
    19    14    18   ar
    20    16    17   ar
    21    18    17   ar
    22    18    19    1
    23    17    25    1
    24    32    31    1
    25    25    29   ar
    26    25    26   ar
    27    29    28   ar
    28    30    26    1
    29    26    27   ar
    30     2     3   ar
    31     2     8    1
    32    28    27   ar
    33    28    34    1
    34    27    31    1
    35    40    37    1
    36    37    36   ar
    37    34    35   ar
    38     3     9    1
    39    13    10    1
    40    36    35   ar
    41    36    42    1
    42    35    39    1
    43     9    10    1
    44    43    42    1
    45    10    11    1
    46    10    12    1
