@<TRIPOS>MOLECULE
mol_data/opt/cam/geoms/mol2/13al13hi-12hh-13li-.out
 53 56 0 0 0
SMALL
GASTEIGER

@<TRIPOS>ATOM
      1 C           1.3628    0.1258   -0.2044 C.ar    1  LIG1        0.0058
      2 C           0.9007    1.3867   -0.4937 C.ar    1  LIG1       -0.0019
      3 C          -0.5159    1.3262   -0.4181 C.ar    1  LIG1        0.1467
      4 C          -0.8896    0.0398   -0.0822 C.ar    1  LIG1        0.1069
      5 N           0.2852   -0.6790    0.0304 N.ar    1  LIG1       -0.3565
      6 H           0.3264   -1.6090    0.4124 H       1  LIG1        0.1655
      7 H           2.3713   -0.2537   -0.1525 H       1  LIG1        0.0808
      8 H           1.5097    2.2408   -0.7455 H       1  LIG1        0.0669
      9 O          -1.4304    2.3211   -0.6373 O.3     1  LIG1       -0.4929
     10 C          -0.8945    3.5697   -1.0180 C.3     1  LIG1        0.0789
     11 H          -1.7402    4.2414   -1.1670 H       1  LIG1        0.0660
     12 H          -0.2399    3.9805   -0.2399 H       1  LIG1        0.0660
     13 H          -0.3284    3.4900   -1.9534 H       1  LIG1        0.0660
     14 C          -2.1857   -0.5661    0.1253 C.ar    1  LIG1        0.0882
     15 C          -3.3532   -0.0570    0.6578 C.ar    1  LIG1        0.0554
     16 C          -4.3140   -1.1118    0.7030 C.ar    1  LIG1       -0.0008
     17 C          -3.7045   -2.2374    0.1795 C.ar    1  LIG1        0.0892
     18 N          -2.4050   -1.9133   -0.1326 N.ar    1  LIG1       -0.3488
     19 H          -1.8572   -2.4513   -0.7843 H       1  LIG1        0.1661
     20 N          -3.5451    1.2205    1.1914 N.pl3   1  LIG1       -0.3561
     21 H          -2.9439    1.9112    0.7544 H       1  LIG1        0.1424
     22 H          -4.5112    1.5155    1.1435 H       1  LIG1        0.1424
     23 C          -5.6644   -1.0079    1.3397 C.3     1  LIG1       -0.0358
     24 H          -6.1274   -1.9900    1.4529 H       1  LIG1        0.0279
     25 H          -6.3582   -0.3820    0.7631 H       1  LIG1        0.0279
     26 H          -5.5863   -0.5575    2.3350 H       1  LIG1        0.0279
     27 C          -4.2213   -3.5611   -0.0748 C.ar    1  LIG1        0.1745
     28 C          -5.4144   -4.0066   -0.5668 C.ar    1  LIG1        0.0941
     29 C          -5.3422   -5.4377   -0.6126 C.ar    1  LIG1        0.0942
     30 C          -4.0893   -5.7692   -0.1768 C.ar    1  LIG1        0.1778
     31 O          -3.3972   -4.6319    0.1645 O.2     1  LIG1       -0.4479
     32 N          -6.5373   -3.2600   -0.9628 N.pl3   1  LIG1       -0.3536
     33 H          -6.3404   -2.2663   -0.9414 H       1  LIG1        0.1425
     34 H          -6.8341   -3.5047   -1.9024 H       1  LIG1        0.1425
     35 N          -6.3748   -6.2873   -0.9877 N.pl3   1  LIG1       -0.3535
     36 H          -7.1258   -5.8455   -1.4947 H       1  LIG1        0.1425
     37 H          -6.0626   -7.1630   -1.3881 H       1  LIG1        0.1425
     38 C          -3.3790   -7.0101    0.0000 C.ar    1  LIG1        0.1264
     39 C          -3.6888   -8.3308   -0.2726 C.ar    1  LIG1        0.1512
     40 C          -2.5789   -9.1481    0.0825 C.ar    1  LIG1        0.0092
     41 C          -1.6183   -8.2940    0.5654 C.ar    1  LIG1        0.0088
     42 N          -2.1049   -7.0151    0.5105 N.ar    1  LIG1       -0.3550
     43 H          -1.6330   -6.1781    0.8080 H       1  LIG1        0.1655
     44 H          -0.6251   -8.5011    0.9339 H       1  LIG1        0.0811
     45 O          -4.8575   -8.7865   -0.8432 O.3     1  LIG1       -0.4926
     46 C          -5.7671   -9.3538    0.0951 C.3     1  LIG1        0.0789
     47 H          -6.5922   -9.7774   -0.4809 H       1  LIG1        0.0660
     48 H          -5.2896  -10.1487    0.6767 H       1  LIG1        0.0660
     49 H          -6.1537   -8.5863    0.7731 H       1  LIG1        0.0660
     50 C          -2.4902  -10.6331   -0.0724 C.3     1  LIG1       -0.0348
     51 H          -1.4520  -10.9712   -0.0338 H       1  LIG1        0.0279
     52 H          -2.9132  -10.9494   -1.0299 H       1  LIG1        0.0279
     53 H          -3.0364  -11.1666    0.7137 H       1  LIG1        0.0279
@<TRIPOS>BOND
     1    13    10    1
     2    34    32    1
     3    36    35    1
     4    37    35    1
     5    11    10    1
     6    52    50    1
     7    10     9    1
     8    10    12    1
     9    35    29    1
    10    32    33    1
    11    32    28    1
    12    45    39    1
    13    45    46    1
    14    19    18    1
    15     8     2    1
    16     9     3    1
    17    29    28   ar
    18    29    30   ar
    19    28    27   ar
    20     2     3   ar
    21     2     1   ar
    22    47    46    1
    23     3     4   ar
    24    39    38   ar
    25    39    40   ar
    26     1     7    1
    27     1     5   ar
    28    30    38    1
    29    30    31   ar
    30    18    14   ar
    31    18    17   ar
    32     4     5   ar
    33     4    14    1
    34    27    31   ar
    35    27    17    1
    36    50    51    1
    37    50    40    1
    38    50    53    1
    39    38    42   ar
    40     5     6    1
    41    40    41   ar
    42    46    48    1
    43    46    49    1
    44    14    15   ar
    45    17    16   ar
    46    42    41   ar
    47    42    43    1
    48    41    44    1
    49    15    16   ar
    50    15    20    1
    51    16    23    1
    52    21    20    1
    53    25    23    1
    54    22    20    1
    55    23    24    1
    56    23    26    1
