@<TRIPOS>MOLECULE
mol_data/opt/cam/geoms/mol2/13da13da-4da13da.out
 40 43 0 0 0
SMALL
GASTEIGER

@<TRIPOS>ATOM
      1 C           1.3841   -0.4772   -0.0532 C.ar    1  LIG1        0.0197
      2 C           1.0268    0.8526    0.0648 C.ar    1  LIG1        0.0696
      3 C          -0.3920    0.9119    0.0921 C.ar    1  LIG1       -0.0175
      4 C          -0.8523   -0.3826   -0.0119 C.ar    1  LIG1        0.0654
      5 N           0.2475   -1.2096   -0.0988 N.ar    1  LIG1       -0.3583
      6 H           0.2079   -2.2170   -0.1751 H       1  LIG1        0.1654
      7 H           2.3605   -0.9324   -0.1055 H       1  LIG1        0.0820
      8 N           2.6655    2.8397    0.2107 N.1     1  LIG1       -0.1908
      9 C           1.9307    1.9482    0.1454 C.1     1  LIG1        0.1007
     10 H          -0.9855    1.8097    0.1886 H       1  LIG1        0.0652
     11 C          -2.2052   -0.8906   -0.0321 C.ar    1  LIG1        0.0809
     12 C          -2.6998   -2.1949   -0.0611 C.ar    1  LIG1        0.0790
     13 C          -4.1133   -2.1203   -0.0563 C.ar    1  LIG1       -0.0183
     14 C          -4.4621   -0.7864   -0.0278 C.ar    1  LIG1        0.0494
     15 N          -3.2811   -0.0675   -0.0149 N.ar    1  LIG1       -0.3520
     16 H          -3.2165    0.9402    0.0123 H       1  LIG1        0.1660
     17 N          -1.1649   -4.2620   -0.1144 N.1     1  LIG1       -0.1908
     18 C          -1.8906   -3.3581   -0.0874 C.1     1  LIG1        0.1013
     19 H          -4.7804   -2.9675   -0.0574 H       1  LIG1        0.0652
     20 C          -6.0857    1.1699    0.2053 C.ar    1  LIG1        0.0615
     21 C          -7.3961    1.6521    0.2249 C.ar    1  LIG1       -0.0346
     22 C          -5.8001   -0.1957   -0.0139 C.ar    1  LIG1        0.0157
     23 C          -8.4764    0.7995    0.0218 C.ar    1  LIG1        0.0008
     24 H          -7.5570    2.7079    0.4053 H       1  LIG1        0.0637
     25 C          -6.9047   -1.0312   -0.2301 C.ar    1  LIG1       -0.0508
     26 C          -8.1991   -0.5540   -0.2144 C.ar    1  LIG1       -0.0519
     27 H          -6.7394   -2.0804   -0.4404 H       1  LIG1        0.0625
     28 N          -4.1638    2.8643    0.5931 N.1     1  LIG1       -0.1908
     29 C          -5.0394    2.1246    0.4294 C.1     1  LIG1        0.0998
     30 H          -9.0100   -1.2434   -0.4274 H       1  LIG1        0.0624
     31 C          -9.8524    1.2940    0.0510 C.ar    1  LIG1        0.0641
     32 C         -10.3976    2.5309   -0.2732 C.ar    1  LIG1        0.0769
     33 C         -11.8067    2.4557   -0.0787 C.ar    1  LIG1       -0.0264
     34 C         -12.0815    1.1908    0.3570 C.ar    1  LIG1        0.0034
     35 N         -10.9000    0.4990    0.4227 N.ar    1  LIG1       -0.3596
     36 H         -10.7990   -0.4327    0.7918 H       1  LIG1        0.1654
     37 H         -13.0165    0.7272    0.6295 H       1  LIG1        0.0807
     38 N          -9.0851    4.5794   -1.1285 N.1     1  LIG1       -0.1908
     39 C          -9.6774    3.6589   -0.7507 C.1     1  LIG1        0.1013
     40 H         -12.5155    3.2504   -0.2518 H       1  LIG1        0.0645
@<TRIPOS>BOND
     1    38    39    3
     2    39    32    1
     3    27    25    1
     4    30    26    1
     5    32    33   ar
     6    32    31   ar
     7    40    33    1
     8    25    26   ar
     9    25    22   ar
    10    26    23   ar
    11     6     5    1
    12    17    18    3
    13     7     1    1
    14     5     1   ar
    15     5     4   ar
    16    18    12    1
    17    33    34   ar
    18    12    13   ar
    19    12    11   ar
    20    19    13    1
    21    13    14   ar
    22     1     2   ar
    23    11    15   ar
    24    11     4    1
    25    14    15   ar
    26    14    22    1
    27    15    16    1
    28    22    20   ar
    29     4     3   ar
    30    23    31    1
    31    23    21   ar
    32    31    35   ar
    33     2     3   ar
    34     2     9    1
    35     3    10    1
    36     9     8    3
    37    20    21   ar
    38    20    29    1
    39    21    24    1
    40    34    35   ar
    41    34    37    1
    42    35    36    1
    43    29    28    3
