@<TRIPOS>MOLECULE
mol_data/opt/cam/geoms/mol2/13da13da13da13da.out
 38 41 0 0 0
SMALL
GASTEIGER

@<TRIPOS>ATOM
      1 C           0.7282    0.3355   -1.5297 C.ar    1  LIG1        0.0197
      2 C           0.8203    1.0984   -0.3849 C.ar    1  LIG1        0.0696
      3 C          -0.3233    0.8167    0.4153 C.ar    1  LIG1       -0.0175
      4 C          -1.0732   -0.1102   -0.2638 C.ar    1  LIG1        0.0654
      5 N          -0.4107   -0.4009   -1.4431 N.ar    1  LIG1       -0.3583
      6 H          -0.8042   -0.9273   -2.2073 H       1  LIG1        0.1654
      7 H           1.3859    0.2780   -2.3826 H       1  LIG1        0.0820
      8 N           2.7614    2.6987    0.1885 N.1     1  LIG1       -0.1908
      9 C           1.8889    1.9842   -0.0698 C.1     1  LIG1        0.1007
     10 H          -0.5534    1.2388    1.3813 H       1  LIG1        0.0652
     11 C          -2.3237   -0.7539    0.0897 C.ar    1  LIG1        0.0810
     12 C          -3.4612   -0.2466    0.7014 C.ar    1  LIG1        0.0790
     13 C          -4.4120   -1.2983    0.8033 C.ar    1  LIG1       -0.0169
     14 C          -3.8412   -2.4199    0.2573 C.ar    1  LIG1        0.0659
     15 N          -2.5722   -2.0729   -0.1690 N.ar    1  LIG1       -0.3508
     16 H          -1.9260   -2.6955   -0.6276 H       1  LIG1        0.1660
     17 N          -3.7470    2.1831    1.5171 N.1     1  LIG1       -0.1908
     18 C          -3.6229    1.0949    1.1436 C.1     1  LIG1        0.1013
     19 H          -5.3999   -1.2316    1.2322 H       1  LIG1        0.0652
     20 C          -4.3574   -3.7674    0.1082 C.ar    1  LIG1        0.0810
     21 C          -5.6008   -4.2171   -0.3107 C.ar    1  LIG1        0.0790
     22 C          -5.5850   -5.6382   -0.2900 C.ar    1  LIG1       -0.0169
     23 C          -4.3402   -6.0269    0.1374 C.ar    1  LIG1        0.0659
     24 N          -3.6070   -4.8799    0.3740 N.ar    1  LIG1       -0.3508
     25 H          -2.6564   -4.8634    0.7079 H       1  LIG1        0.1660
     26 N          -7.5677   -2.6960   -0.9961 N.1     1  LIG1       -0.1908
     27 C          -6.6843   -3.3797   -0.6944 C.1     1  LIG1        0.1013
     28 H          -6.3986   -6.2938   -0.5589 H       1  LIG1        0.0652
     29 C          -3.7810   -7.3492    0.3465 C.ar    1  LIG1        0.0805
     30 C          -3.8961   -8.5054   -0.4090 C.ar    1  LIG1        0.0784
     31 C          -3.1488   -9.5297    0.2431 C.ar    1  LIG1       -0.0263
     32 C          -2.6023   -8.9742    1.3641 C.ar    1  LIG1        0.0035
     33 N          -2.9797   -7.6543    1.4141 N.ar    1  LIG1       -0.3585
     34 H          -2.8372   -7.0490    2.2070 H       1  LIG1        0.1654
     35 H          -1.9781   -9.4053    2.1308 H       1  LIG1        0.0807
     36 N          -5.1989   -8.7108   -2.6251 N.1     1  LIG1       -0.1908
     37 C          -4.6123   -8.6172   -1.6317 C.1     1  LIG1        0.1013
     38 H          -3.0331  -10.5470   -0.0971 H       1  LIG1        0.0645
@<TRIPOS>BOND
     1    36    37    3
     2     7     1    1
     3     6     5    1
     4    37    30    1
     5     1     5   ar
     6     1     2   ar
     7     5     4   ar
     8    26    27    3
     9    27    21    1
    10    16    15    1
    11    28    22    1
    12    30    31   ar
    13    30    29   ar
    14     2     9    1
    15     2     3   ar
    16    21    22   ar
    17    21    20   ar
    18    22    23   ar
    19     4    11    1
    20     4     3   ar
    21    15    11   ar
    22    15    14   ar
    23    38    31    1
    24     9     8    3
    25    11    12   ar
    26    20    14    1
    27    20    24   ar
    28    23    29    1
    29    23    24   ar
    30    31    32   ar
    31    14    13   ar
    32    29    33   ar
    33    24    25    1
    34     3    10    1
    35    12    13   ar
    36    12    18    1
    37    13    19    1
    38    18    17    3
    39    32    33   ar
    40    32    35    1
    41    33    34    1
