@<TRIPOS>MOLECULE
mol_data/opt/cam/geoms/mol2/13da13da13da-13da-.out
 38 41 0 0 0
SMALL
GASTEIGER

@<TRIPOS>ATOM
      1 C           1.2503   -0.2726    0.2030 C.ar    1  LIG1        0.0197
      2 C           0.9046    0.9753   -0.2749 C.ar    1  LIG1        0.0696
      3 C          -0.5089    1.0027   -0.4266 C.ar    1  LIG1       -0.0175
      4 C          -0.9803   -0.2288   -0.0377 C.ar    1  LIG1        0.0654
      5 N           0.1093   -0.9935    0.3384 N.ar    1  LIG1       -0.3583
      6 H           0.0695   -1.9149    0.7481 H       1  LIG1        0.1654
      7 H           2.2173   -0.6790    0.4537 H       1  LIG1        0.0820
      8 N           2.5605    2.8820   -0.8037 N.1     1  LIG1       -0.1908
      9 C           1.8174    2.0276   -0.5661 C.1     1  LIG1        0.1007
     10 H          -1.1014    1.8288   -0.7883 H       1  LIG1        0.0652
     11 C          -2.3264   -0.7539    0.0016 C.ar    1  LIG1        0.0810
     12 C          -3.5621   -0.1134    0.0391 C.ar    1  LIG1        0.0790
     13 C          -4.5675   -1.1143    0.1019 C.ar    1  LIG1       -0.0169
     14 C          -3.9320   -2.3347    0.1011 C.ar    1  LIG1        0.0659
     15 N          -2.5769   -2.0901    0.0351 N.ar    1  LIG1       -0.3508
     16 H          -1.8797   -2.8156   -0.0537 H       1  LIG1        0.1660
     17 N          -3.9397    2.4361    0.0331 N.1     1  LIG1       -0.1908
     18 C          -3.7696    1.2909    0.0412 C.1     1  LIG1        0.1013
     19 H          -5.6291   -0.9306    0.1740 H       1  LIG1        0.0652
     20 C          -4.4445   -3.6818    0.1780 C.ar    1  LIG1        0.0810
     21 C          -3.7849   -4.8886    0.3996 C.ar    1  LIG1        0.0790
     22 C          -4.7494   -5.9332    0.3781 C.ar    1  LIG1       -0.0169
     23 C          -5.9680   -5.3488    0.1466 C.ar    1  LIG1        0.0659
     24 N          -5.7660   -3.9824    0.0371 N.ar    1  LIG1       -0.3508
     25 H          -6.4521   -3.3305   -0.3100 H       1  LIG1        0.1660
     26 N          -1.2368   -4.9102    0.7607 N.1     1  LIG1       -0.1908
     27 C          -2.3859   -4.9728    0.6155 C.1     1  LIG1        0.1013
     28 H          -4.5649   -6.9855    0.5273 H       1  LIG1        0.0652
     29 C          -7.2859   -5.9355    0.0237 C.ar    1  LIG1        0.0805
     30 C          -7.6780   -7.1695   -0.4736 C.ar    1  LIG1        0.0784
     31 C          -9.0972   -7.2510   -0.3692 C.ar    1  LIG1       -0.0263
     32 C          -9.5263   -6.0774    0.1802 C.ar    1  LIG1        0.0035
     33 N          -8.4272   -5.2843    0.4060 N.ar    1  LIG1       -0.3585
     34 H          -8.4426   -4.4227    0.9280 H       1  LIG1        0.1654
     35 H         -10.5192   -5.7381    0.4298 H       1  LIG1        0.0807
     36 N          -6.0757   -8.9537   -1.4209 N.1     1  LIG1       -0.1908
     37 C          -6.7999   -8.1528   -1.0034 C.1     1  LIG1        0.1013
     38 H          -9.7106   -8.0830   -0.6781 H       1  LIG1        0.0645
@<TRIPOS>BOND
     1    36    37    3
     2    37    30    1
     3     8     9    3
     4    10     3    1
     5    38    31    1
     6     9     2    1
     7    30    31   ar
     8    30    29   ar
     9     3     2   ar
    10     3     4   ar
    11    31    32   ar
    12    25    24    1
    13     2     1   ar
    14    16    15    1
    15     4    11    1
    16     4     5   ar
    17    11    15   ar
    18    11    12   ar
    19    29    23    1
    20    29    33   ar
    21    17    18    3
    22    15    14   ar
    23    24    23   ar
    24    24    20   ar
    25    12    18    1
    26    12    13   ar
    27    14    13   ar
    28    14    20    1
    29    13    19    1
    30    23    22   ar
    31    20    21   ar
    32    32    33   ar
    33    32    35    1
    34     1     5   ar
    35     1     7    1
    36     5     6    1
    37    22    21   ar
    38    22    28    1
    39    21    27    1
    40    33    34    1
    41    27    26    3
