@<TRIPOS>MOLECULE
mol_data/opt/cam/geoms/mol2/13da13da-13da13da-.out
 38 41 0 0 0
SMALL
GASTEIGER

@<TRIPOS>ATOM
      1 C           1.2833   -0.3128   -0.0011 C.ar    1  LIG1        0.0197
      2 C           0.8705    1.0061   -0.0010 C.ar    1  LIG1        0.0696
      3 C          -0.5499    1.0077   -0.0000 C.ar    1  LIG1       -0.0175
      4 C          -0.9558   -0.3089    0.0000 C.ar    1  LIG1        0.0654
      5 N           0.1781   -1.0932   -0.0006 N.ar    1  LIG1       -0.3583
      6 H           0.1804   -2.1045   -0.0007 H       1  LIG1        0.1654
      7 H           2.2778   -0.7299   -0.0016 H       1  LIG1        0.0820
      8 N           2.4208    3.0679   -0.0018 N.1     1  LIG1       -0.1908
      9 C           1.7265    2.1422   -0.0015 C.1     1  LIG1        0.1007
     10 H          -1.1793    1.8858    0.0004 H       1  LIG1        0.0652
     11 C          -2.2869   -0.8726    0.0007 C.ar    1  LIG1        0.0810
     12 C          -2.7271   -2.1965    0.0007 C.ar    1  LIG1        0.0790
     13 C          -4.1458   -2.1876    0.0015 C.ar    1  LIG1       -0.0169
     14 C          -4.5389   -0.8692    0.0019 C.ar    1  LIG1        0.0659
     15 N          -3.3978   -0.0932    0.0013 N.ar    1  LIG1       -0.3508
     16 H          -3.3913    0.9180    0.0015 H       1  LIG1        0.1660
     17 N          -1.0911   -4.1850   -0.0004 N.1     1  LIG1       -0.1908
     18 C          -1.8641   -3.3209    0.0001 C.1     1  LIG1        0.1013
     19 H          -4.7828   -3.0601    0.0018 H       1  LIG1        0.0652
     20 C          -5.8607   -0.2881    0.0026 C.ar    1  LIG1        0.0810
     21 C          -6.2781    1.0424    0.0030 C.ar    1  LIG1        0.0790
     22 C          -7.6977    1.0545    0.0038 C.ar    1  LIG1       -0.0169
     23 C          -8.1138   -0.2565    0.0039 C.ar    1  LIG1        0.0659
     24 N          -6.9854   -1.0489    0.0031 N.ar    1  LIG1       -0.3508
     25 H          -6.9981   -2.0605    0.0030 H       1  LIG1        0.1660
     26 N          -4.6028    2.9973    0.0023 N.1     1  LIG1       -0.1908
     27 C          -5.3955    2.1509    0.0027 C.1     1  LIG1        0.1013
     28 H          -8.3162    1.9393    0.0043 H       1  LIG1        0.0652
     29 C          -9.4436   -0.8260    0.0045 C.ar    1  LIG1        0.0805
     30 C          -9.8676   -2.1522    0.0046 C.ar    1  LIG1        0.0784
     31 C         -11.2927   -2.1598    0.0057 C.ar    1  LIG1       -0.0263
     32 C         -11.6930   -0.8553    0.0056 C.ar    1  LIG1        0.0035
     33 N         -10.5715   -0.0621    0.0050 N.ar    1  LIG1       -0.3585
     34 H         -10.5783    0.9450    0.0049 H       1  LIG1        0.1654
     35 H         -12.6807   -0.4223    0.0060 H       1  LIG1        0.0807
     36 N          -8.1815   -4.0979    0.0038 N.1     1  LIG1       -0.1908
     37 C          -8.9834   -3.2599    0.0041 C.1     1  LIG1        0.1013
     38 H         -11.9265   -3.0326    0.0062 H       1  LIG1        0.0645
@<TRIPOS>BOND
     1     8     9    3
     2     7     1    1
     3     9     2    1
     4     1     2   ar
     5     1     5   ar
     6     2     3   ar
     7     6     5    1
     8     5     4   ar
     9    17    18    3
    10     3     4   ar
    11     3    10    1
    12     4    11    1
    13    18    12    1
    14    11    12   ar
    15    11    15   ar
    16    12    13   ar
    17    15    16    1
    18    15    14   ar
    19    13    19    1
    20    13    14   ar
    21    14    20    1
    22    26    27    3
    23    20    21   ar
    24    20    24   ar
    25    27    21    1
    26    25    24    1
    27    21    22   ar
    28    24    23   ar
    29    36    37    3
    30    22    23   ar
    31    22    28    1
    32    23    29    1
    33    37    30    1
    34    29    30   ar
    35    29    33   ar
    36    30    31   ar
    37    34    33    1
    38    33    32   ar
    39    32    31   ar
    40    32    35    1
    41    31    38    1
