@<TRIPOS>MOLECULE
mol_data/opt/cam/geoms/mol2/13da13da.out
 20 21 0 0 0
SMALL
GASTEIGER

@<TRIPOS>ATOM
      1 C           1.1444   -0.2609   -0.3707 C.ar    1  LIG1        0.0197
      2 C           0.7789    0.9679    0.1365 C.ar    1  LIG1        0.0696
      3 C          -0.6248    0.9371    0.3760 C.ar    1  LIG1       -0.0175
      4 C          -1.0705   -0.3077    0.0085 C.ar    1  LIG1        0.0654
      5 N           0.0239   -1.0275   -0.4349 N.ar    1  LIG1       -0.3583
      6 H          -0.0283   -1.9225   -0.8943 H       1  LIG1        0.1654
      7 H           2.1094   -0.6253   -0.6856 H       1  LIG1        0.0820
      8 N           2.3942    2.9275    0.5932 N.1     1  LIG1       -0.1908
      9 C           1.6683    2.0504    0.3869 C.1     1  LIG1        0.1007
     10 H          -1.2265    1.7351    0.7827 H       1  LIG1        0.0652
     11 C          -2.3990   -0.8875    0.0429 C.ar    1  LIG1        0.0805
     12 C          -3.6417   -0.3196   -0.1922 C.ar    1  LIG1        0.0784
     13 C          -4.6264   -1.3377   -0.0237 C.ar    1  LIG1       -0.0263
     14 C          -3.9641   -2.4854    0.3026 C.ar    1  LIG1        0.0035
     15 N          -2.6185   -2.2071    0.3316 N.ar    1  LIG1       -0.3585
     16 H          -1.9105   -2.8353    0.6764 H       1  LIG1        0.1654
     17 H          -4.3338   -3.4759    0.5162 H       1  LIG1        0.0807
     18 N          -4.0626    2.1391   -0.8457 N.1     1  LIG1       -0.1908
     19 C          -3.8710    1.0345   -0.5572 C.1     1  LIG1        0.1013
     20 H          -5.6918   -1.2173   -0.1441 H       1  LIG1        0.0645
@<TRIPOS>BOND
     1     6     5    1
     2    18    19    3
     3     7     1    1
     4    19    12    1
     5     5     1   ar
     6     5     4   ar
     7     1     2   ar
     8    12    13   ar
     9    12    11   ar
    10    20    13    1
    11    13    14   ar
    12     4    11    1
    13     4     3   ar
    14    11    15   ar
    15     2     3   ar
    16     2     9    1
    17    14    15   ar
    18    14    17    1
    19    15    16    1
    20     3    10    1
    21     9     8    3
