@<TRIPOS>MOLECULE
mol_data/opt/cam/geoms/mol2/13da13da-13da-13da-.out
 38 41 0 0 0
SMALL
GASTEIGER

@<TRIPOS>ATOM
      1 C           1.2868   -0.4554   -0.3747 C.ar    1  LIG1        0.0197
      2 C           0.8812    0.8274   -0.6891 C.ar    1  LIG1        0.0696
      3 C          -0.5309    0.8728   -0.5422 C.ar    1  LIG1       -0.0175
      4 C          -0.9404   -0.3816   -0.1469 C.ar    1  LIG1        0.0654
      5 N           0.1847   -1.1716   -0.0526 N.ar    1  LIG1       -0.3583
      6 H           0.1847   -2.1418    0.2339 H       1  LIG1        0.1654
      7 H           2.2743   -0.8887   -0.3617 H       1  LIG1        0.0820
      8 N           2.4067    2.7836   -1.3954 N.1     1  LIG1       -0.1908
      9 C           1.7285    1.9011   -1.0790 C.1     1  LIG1        0.1007
     10 H          -1.1500    1.7430   -0.7020 H       1  LIG1        0.0652
     11 C          -2.2656   -0.8820    0.1417 C.ar    1  LIG1        0.0810
     12 C          -2.6979   -2.1040    0.6467 C.ar    1  LIG1        0.0790
     13 C          -4.1175   -2.0774    0.7225 C.ar    1  LIG1       -0.0169
     14 C          -4.5213   -0.8489    0.2677 C.ar    1  LIG1        0.0659
     15 N          -3.3849   -0.1315   -0.0697 N.ar    1  LIG1       -0.3508
     16 H          -3.3872    0.7179   -0.6125 H       1  LIG1        0.1660
     17 N          -1.0389   -3.9670    1.2870 N.1     1  LIG1       -0.1908
     18 C          -1.8235   -3.1573    1.0180 C.1     1  LIG1        0.1013
     19 H          -4.7579   -2.8673    1.0829 H       1  LIG1        0.0652
     20 C          -5.8472   -0.2843    0.1354 C.ar    1  LIG1        0.0810
     21 C          -7.0560   -0.8877   -0.1832 C.ar    1  LIG1        0.0790
     22 C          -8.0603    0.1173   -0.1938 C.ar    1  LIG1       -0.0169
     23 C          -7.4511    1.3075    0.1156 C.ar    1  LIG1        0.0659
     24 N          -6.1080    1.0463    0.3127 N.ar    1  LIG1       -0.3508
     25 H          -5.4171    1.7390    0.5532 H       1  LIG1        0.1660
     26 N          -7.3591   -3.4081   -0.6359 N.1     1  LIG1       -0.1908
     27 C          -7.2289   -2.2744   -0.4432 C.1     1  LIG1        0.1013
     28 H          -9.1088   -0.0246   -0.4050 H       1  LIG1        0.0652
     29 C          -7.9980    2.6437    0.2466 C.ar    1  LIG1        0.0805
     30 C          -8.9866    3.2866   -0.4820 C.ar    1  LIG1        0.0784
     31 C          -9.1451    4.5967    0.0575 C.ar    1  LIG1       -0.0263
     32 C          -8.2568    4.7158    1.0869 C.ar    1  LIG1        0.0035
     33 N          -7.5599    3.5359    1.1885 N.ar    1  LIG1       -0.3585
     34 H          -6.9504    3.2987    1.9549 H       1  LIG1        0.1654
     35 H          -8.0606    5.5387    1.7561 H       1  LIG1        0.0807
     36 N         -10.2642    2.2666   -2.4764 N.1     1  LIG1       -0.1908
     37 C          -9.6872    2.7265   -1.5845 C.1     1  LIG1        0.1013
     38 H          -9.8325    5.3501   -0.2945 H       1  LIG1        0.0645
@<TRIPOS>BOND
     1    36    37    3
     2    37    30    1
     3     8     9    3
     4     9     2    1
     5    10     3    1
     6     2     3   ar
     7     2     1   ar
     8    26    27    3
     9    16    15    1
    10     3     4   ar
    11    30    31   ar
    12    30    29   ar
    13    27    21    1
    14    28    22    1
    15     1     7    1
    16     1     5   ar
    17    38    31    1
    18    22    21   ar
    19    22    23   ar
    20    21    20   ar
    21     4     5   ar
    22     4    11    1
    23    15    11   ar
    24    15    14   ar
    25     5     6    1
    26    31    32   ar
    27    23    29    1
    28    23    24   ar
    29    20    14    1
    30    20    24   ar
    31    11    12   ar
    32    29    33   ar
    33    14    13   ar
    34    24    25    1
    35    12    13   ar
    36    12    18    1
    37    13    19    1
    38    18    17    3
    39    32    33   ar
    40    32    35    1
    41    33    34    1
