@<TRIPOS>MOLECULE
mol_data/opt/cam/geoms/mol2/13da12ai4ah-4ll-.out
 52 55 0 0 0
SMALL
GASTEIGER

@<TRIPOS>ATOM
      1 C          -1.9886  -10.6579    9.9885 C.ar    1  LIG1        0.0035
      2 C          -2.5326  -10.2341   11.1772 C.ar    1  LIG1       -0.0283
      3 C          -3.7666   -9.5710   10.8819 C.ar    1  LIG1        0.0529
      4 C          -3.9378   -9.6322    9.4878 C.ar    1  LIG1        0.0980
      5 N          -2.8410  -10.2927    8.9801 N.ar    1  LIG1       -0.3573
      6 H          -2.6967  -10.4278    7.9900 H       1  LIG1        0.1655
      7 H          -1.0711  -11.1877    9.7817 H       1  LIG1        0.0807
      8 H          -2.1106  -10.3595   12.1629 H       1  LIG1        0.0645
      9 C          -4.5815   -8.9245   11.8449 C.1     1  LIG1       -0.0674
     10 C          -5.2244   -8.3752   12.7128 C.1     1  LIG1       -0.1138
     11 H          -5.7945   -7.8876   13.4688 H       1  LIG1        0.1232
     12 C          -4.9433   -9.1610    8.5683 C.ar    1  LIG1        0.1595
     13 C          -6.2665   -8.7794    8.6304 C.ar    1  LIG1        0.0391
     14 C          -6.6290   -8.4807    7.2787 C.ar    1  LIG1        0.1692
     15 C          -5.5380   -8.7172    6.4633 C.ar    1  LIG1        0.1801
     16 O          -4.5091   -9.1316    7.2636 O.2     1  LIG1       -0.4492
     17 C          -7.2102   -8.7658    9.7932 C.3     1  LIG1       -0.0325
     18 H          -8.2332   -8.9083    9.4325 H       1  LIG1        0.0280
     19 H          -7.1722   -7.8237   10.3504 H       1  LIG1        0.0280
     20 H          -6.9767   -9.5616   10.5024 H       1  LIG1        0.0280
     21 O          -7.8731   -8.1013    6.8566 O.3     1  LIG1       -0.4910
     22 C          -8.2243   -6.7446    7.1665 C.3     1  LIG1        0.0790
     23 H          -9.2298   -6.5919    6.7716 H       1  LIG1        0.0660
     24 H          -8.2268   -6.5699    8.2477 H       1  LIG1        0.0660
     25 H          -7.5300   -6.0432    6.6896 H       1  LIG1        0.0660
     26 C          -4.0645   -8.7599    4.3835 C.ar    1  LIG1        0.1247
     27 C          -5.3288   -8.6482    5.0324 C.ar    1  LIG1        0.0560
     28 C          -6.4279   -8.4332    4.1847 C.ar    1  LIG1       -0.0287
     29 C          -6.2870   -8.3778    2.7987 C.ar    1  LIG1        0.0800
     30 C          -4.9977   -8.6098    2.2346 C.ar    1  LIG1        0.1095
     31 N          -3.9362   -8.7548    3.0494 N.ar    1  LIG1       -0.2348
     32 H          -7.4085   -8.2929    4.6225 H       1  LIG1        0.0639
     33 C          -2.8148   -8.8694    5.0833 C.1     1  LIG1       -0.0491
     34 C          -1.7182   -8.9458    5.5896 C.1     1  LIG1       -0.1124
     35 H          -0.7515   -8.9831    6.0365 H       1  LIG1        0.1232
     36 N          -8.4107   -7.5825    1.5440 N.1     1  LIG1       -0.1908
     37 C          -7.4407   -7.9800    2.0500 C.1     1  LIG1        0.1014
     38 C          -4.6783   -8.6702    0.8234 C.ar    1  LIG1        0.1103
     39 C          -5.4036   -8.9616   -0.3399 C.ar    1  LIG1        0.1673
     40 C          -4.4978   -8.9388   -1.4410 C.ar    1  LIG1        0.0851
     41 C          -3.2434   -8.6605   -0.9105 C.ar    1  LIG1        0.0267
     42 N          -3.3588   -8.5246    0.4384 N.ar    1  LIG1       -0.3549
     43 H          -2.6240   -8.4252    1.1223 H       1  LIG1        0.1655
     44 H          -2.2905   -8.5685   -1.4118 H       1  LIG1        0.0827
     45 O          -6.7094   -9.3296   -0.3169 O.3     1  LIG1       -0.4911
     46 C          -7.5682   -8.8034   -1.3310 C.3     1  LIG1        0.0790
     47 H          -8.5847   -9.0408   -1.0166 H       1  LIG1        0.0660
     48 H          -7.4705   -7.7136   -1.4002 H       1  LIG1        0.0660
     49 H          -7.3568   -9.2668   -2.2990 H       1  LIG1        0.0660
     50 N          -4.8193   -9.2452   -2.7901 N.pl3   1  LIG1       -0.3540
     51 H          -5.3071   -8.4814   -3.2506 H       1  LIG1        0.1425
     52 H          -3.9811   -9.4421   -3.3269 H       1  LIG1        0.1425
@<TRIPOS>BOND
     1    52    50    1
     2    51    50    1
     3    50    40    1
     4    49    46    1
     5    40    41   ar
     6    40    39   ar
     7    44    41    1
     8    48    46    1
     9    46    47    1
    10    46    45    1
    11    41    42   ar
    12    39    45    1
    13    39    38   ar
    14    42    38   ar
    15    42    43    1
    16    38    30    1
    17    36    37    3
    18    37    29    1
    19    30    29   ar
    20    30    31   ar
    21    29    28   ar
    22    31    26   ar
    23    28    32    1
    24    28    27   ar
    25    26    27   ar
    26    26    33    1
    27    27    15    1
    28    33    34    3
    29    34    35    1
    30    15    16   ar
    31    15    14   ar
    32    25    22    1
    33    23    22    1
    34    21    22    1
    35    21    14    1
    36    22    24    1
    37    16    12   ar
    38    14    13   ar
    39     6     5    1
    40    12    13   ar
    41    12     4    1
    42    13    17    1
    43     5     4   ar
    44     5     1   ar
    45    18    17    1
    46     4     3   ar
    47     7     1    1
    48    17    19    1
    49    17    20    1
    50     1     2   ar
    51     3     2   ar
    52     3     9    1
    53     2     8    1
    54     9    10    3
    55    10    11    1
