@<TRIPOS>MOLECULE
mol_data/opt/cam/geoms/mol2/13da13da13da13da-.out
 38 41 0 0 0
SMALL
GASTEIGER

@<TRIPOS>ATOM
      1 C           1.1149   -0.8108   -0.1515 C.ar    1  LIG1        0.0197
      2 C           0.8852    0.5488   -0.2251 C.ar    1  LIG1        0.0696
      3 C          -0.5179    0.7542   -0.1256 C.ar    1  LIG1       -0.0175
      4 C          -1.0984   -0.4857    0.0056 C.ar    1  LIG1        0.0654
      5 N          -0.0841   -1.4283   -0.0149 N.ar    1  LIG1       -0.3583
      6 H          -0.1900   -2.4268    0.1134 H       1  LIG1        0.1654
      7 H           2.0411   -1.3625   -0.1830 H       1  LIG1        0.0820
      8 N           2.7099    2.3509   -0.5077 N.1     1  LIG1       -0.1908
      9 C           1.8898    1.5446   -0.3803 C.1     1  LIG1        0.1007
     10 H          -1.0346    1.7012   -0.1537 H       1  LIG1        0.0652
     11 C          -2.4846   -0.8731    0.1340 C.ar    1  LIG1        0.0810
     12 C          -3.6368   -0.1520    0.4340 C.ar    1  LIG1        0.0790
     13 C          -4.7381   -1.0570    0.4378 C.ar    1  LIG1       -0.0169
     14 C          -4.2390   -2.3000    0.1478 C.ar    1  LIG1        0.0659
     15 N          -2.8693   -2.1685   -0.0291 N.ar    1  LIG1       -0.3508
     16 H          -2.2901   -2.8778   -0.4571 H       1  LIG1        0.1660
     17 N          -3.7041    2.3750    0.9383 N.1     1  LIG1       -0.1908
     18 C          -3.6823    1.2389    0.7165 C.1     1  LIG1        0.1013
     19 H          -5.7650   -0.8132    0.6630 H       1  LIG1        0.0652
     20 C          -4.7748   -3.6399    0.0629 C.ar    1  LIG1        0.0810
     21 C          -5.9681   -4.2235   -0.3504 C.ar    1  LIG1        0.0790
     22 C          -5.7736   -5.6365   -0.3743 C.ar    1  LIG1       -0.0169
     23 C          -4.4781   -5.8790    0.0261 C.ar    1  LIG1        0.0659
     24 N          -3.9131   -4.6605    0.3080 N.ar    1  LIG1       -0.3508
     25 H          -3.0084   -4.5352    0.7332 H       1  LIG1        0.1660
     26 N          -8.0956   -2.9448   -1.0454 N.1     1  LIG1       -0.1908
     27 C          -7.1394   -3.5201   -0.7381 C.1     1  LIG1        0.1013
     28 H          -6.5003   -6.3611   -0.7101 H       1  LIG1        0.0652
     29 C          -3.6272   -7.0473    0.0736 C.ar    1  LIG1        0.0805
     30 C          -2.2301   -7.1103    0.0432 C.ar    1  LIG1        0.0784
     31 C          -1.8553   -8.4863    0.0834 C.ar    1  LIG1       -0.0263
     32 C          -3.0114   -9.2083    0.1321 C.ar    1  LIG1        0.0035
     33 N          -4.0701   -8.3292    0.1269 N.ar    1  LIG1       -0.3585
     34 H          -5.0415   -8.5900    0.1924 H       1  LIG1        0.1654
     35 H          -3.1733  -10.2737    0.1729 H       1  LIG1        0.0807
     36 N          -0.8188   -4.9575   -0.0674 N.1     1  LIG1       -0.1908
     37 C          -1.3960   -5.9648   -0.0318 C.1     1  LIG1        0.1013
     38 H          -0.8498   -8.8769    0.0720 H       1  LIG1        0.0645
@<TRIPOS>BOND
     1    26    27    3
     2    27    21    1
     3    28    22    1
     4     8     9    3
     5    16    15    1
     6     9     2    1
     7    22    21   ar
     8    22    23   ar
     9    21    20   ar
    10     2     1   ar
    11     2     3   ar
    12     7     1    1
    13    10     3    1
    14     1     5   ar
    15     3     4   ar
    16    36    37    3
    17    37    30    1
    18    15    11   ar
    19    15    14   ar
    20     5     4   ar
    21     5     6    1
    22     4    11    1
    23    23    29    1
    24    23    24   ar
    25    30    29   ar
    26    30    31   ar
    27    20    14    1
    28    20    24   ar
    29    38    31    1
    30    29    33   ar
    31    31    32   ar
    32    33    32   ar
    33    33    34    1
    34    32    35    1
    35    11    12   ar
    36    14    13   ar
    37    24    25    1
    38    12    13   ar
    39    12    18    1
    40    13    19    1
    41    18    17    3
