@<TRIPOS>MOLECULE
mol_data/opt/cam/geoms/mol2/13da12ha12fa-13ie-.out
 41 44 0 0 0
SMALL
GASTEIGER

@<TRIPOS>ATOM
      1 C           1.1596    0.2458   -0.4701 C.ar    1  LIG1        0.0197
      2 C           0.6787    1.4519   -0.0073 C.ar    1  LIG1        0.0697
      3 C          -0.7128    1.2894    0.2643 C.ar    1  LIG1       -0.0159
      4 C          -1.0347   -0.0120   -0.0523 C.ar    1  LIG1        0.0852
      5 N           0.1153   -0.6253   -0.4955 N.ar    1  LIG1       -0.3570
      6 H           0.1504   -1.5864   -0.7945 H       1  LIG1        0.1655
      7 H           2.1550   -0.0383   -0.7719 H       1  LIG1        0.0820
      8 N           2.0737    3.5972    0.3197 N.1     1  LIG1       -0.1908
      9 C           1.4507    2.6325    0.1732 C.1     1  LIG1        0.1007
     10 H          -1.3715    2.0290    0.6922 H       1  LIG1        0.0653
     11 C          -2.2844   -0.7197   -0.0127 C.ar    1  LIG1        0.1724
     12 C          -3.5887   -0.3072    0.0243 C.ar    1  LIG1        0.0731
     13 C          -4.3852   -1.4914    0.0315 C.ar    1  LIG1        0.0088
     14 C          -3.5134   -2.5410   -0.0158 C.ar    1  LIG1        0.1761
     15 O          -2.2332   -2.0969   -0.0451 O.2     1  LIG1       -0.4482
     16 N          -4.0480    1.0035    0.0826 N.pl3   1  LIG1       -0.3550
     17 H          -3.4295    1.6696   -0.3627 H       1  LIG1        0.1424
     18 H          -4.9957    1.1140   -0.2495 H       1  LIG1        0.1424
     19 H          -5.4613   -1.5653    0.0664 H       1  LIG1        0.0675
     20 C          -3.7331   -3.9560   -0.0430 C.ar    1  LIG1        0.2118
     21 C          -4.8778   -4.7009   -0.0985 C.ar    1  LIG1        0.1664
     22 C          -4.4970   -6.0717   -0.0942 C.ar    1  LIG1        0.0280
     23 C          -3.1313   -6.0787   -0.0369 C.ar    1  LIG1        0.1558
     24 O          -2.6574   -4.8057   -0.0062 O.2     1  LIG1       -0.4464
     25 O          -6.1208   -4.1641   -0.1457 O.3     1  LIG1       -0.5031
     26 H          -6.7745   -4.8711   -0.1780 H       1  LIG1        0.2923
     27 H          -5.1454   -6.9339   -0.1206 H       1  LIG1        0.0693
     28 C          -2.1388   -7.1191    0.0026 C.ar    1  LIG1        0.0864
     29 C          -2.2492   -8.4924   -0.0949 C.ar    1  LIG1       -0.0068
     30 C          -0.9222   -9.0126    0.0139 C.ar    1  LIG1        0.0455
     31 C          -0.0641   -7.9409    0.1721 C.ar    1  LIG1        0.0180
     32 N          -0.8077   -6.8067    0.1625 N.ar    1  LIG1       -0.3569
     33 H          -0.4663   -5.8652    0.2679 H       1  LIG1        0.1655
     34 H           1.0080   -7.9227    0.2881 H       1  LIG1        0.0819
     35 C          -3.4957   -9.2942   -0.2806 C.3     1  LIG1       -0.0364
     36 H          -3.2474  -10.3490   -0.4102 H       1  LIG1        0.0279
     37 H          -4.0578   -8.9693   -1.1625 H       1  LIG1        0.0279
     38 H          -4.1636   -9.2145    0.5842 H       1  LIG1        0.0279
     39 C          -0.5525  -10.3849   -0.0365 C.1     1  LIG1       -0.0679
     40 C          -0.2584  -11.5521   -0.0821 C.1     1  LIG1       -0.1139
     41 H           0.0112  -12.5821   -0.1205 H       1  LIG1        0.1232
@<TRIPOS>BOND
     1    37    35    1
     2     6     5    1
     3     7     1    1
     4     5     1   ar
     5     5     4   ar
     6     1     2   ar
     7    36    35    1
     8    17    16    1
     9    35    29    1
    10    35    38    1
    11    18    16    1
    12    26    25    1
    13    25    21    1
    14    27    22    1
    15    41    40    1
    16    21    22   ar
    17    21    20   ar
    18    29    28   ar
    19    29    30   ar
    20    22    23   ar
    21    40    39    3
    22     4    11    1
    23     4     3   ar
    24    15    14   ar
    25    15    11   ar
    26    20    14    1
    27    20    24   ar
    28    23    24   ar
    29    23    28    1
    30    39    30    1
    31    14    13   ar
    32    11    12   ar
    33     2     9    1
    34     2     3   ar
    35    28    32   ar
    36    30    31   ar
    37    12    13   ar
    38    12    16    1
    39    13    19    1
    40    32    31   ar
    41    32    33    1
    42    31    34    1
    43     9     8    3
    44     3    10    1
