@<TRIPOS>MOLECULE
mol_data/opt/cam/geoms/mol2/13da13da6he13dd.out
 43 46 0 0 0
SMALL
GASTEIGER

@<TRIPOS>ATOM
      1 C           0.9566   -0.0969    1.4093 C.ar    1  LIG1        0.0197
      2 C           0.9058    0.9832    0.5535 C.ar    1  LIG1        0.0696
      3 C          -0.3365    0.9278   -0.1395 C.ar    1  LIG1       -0.0175
      4 C          -1.0022   -0.1848    0.3130 C.ar    1  LIG1        0.0654
      5 N          -0.1939   -0.8017    1.2501 N.ar    1  LIG1       -0.3583
      6 H          -0.4801   -1.5636    1.8441 H       1  LIG1        0.1654
      7 H           1.7213   -0.3959    2.1086 H       1  LIG1        0.0820
      8 N           2.7717    2.7413    0.2623 N.1     1  LIG1       -0.1908
      9 C           1.9332    1.9552    0.3940 C.1     1  LIG1        0.1007
     10 H          -0.6870    1.6203   -0.8891 H       1  LIG1        0.0652
     11 C          -2.2952   -0.7253   -0.0533 C.ar    1  LIG1        0.0809
     12 C          -3.4590   -0.0871   -0.4636 C.ar    1  LIG1        0.0790
     13 C          -4.4412   -1.0859   -0.7039 C.ar    1  LIG1       -0.0182
     14 C          -3.8657   -2.3041   -0.4361 C.ar    1  LIG1        0.0515
     15 N          -2.5633   -2.0628   -0.0434 N.ar    1  LIG1       -0.3519
     16 H          -1.8949   -2.8040    0.1166 H       1  LIG1        0.1660
     17 N          -3.7488    2.4594   -0.7445 N.1     1  LIG1       -0.1908
     18 C          -3.6205    1.3167   -0.6115 C.1     1  LIG1        0.1013
     19 H          -5.4517   -0.9123   -1.0412 H       1  LIG1        0.0652
     20 C          -3.6584   -4.7981   -0.7712 C.ar    1  LIG1        0.1261
     21 C          -4.4312   -3.6539   -0.4626 C.ar    1  LIG1        0.0390
     22 C          -5.7679   -3.8740   -0.1829 C.ar    1  LIG1       -0.0318
     23 C          -6.3104   -5.1661   -0.1482 C.ar    1  LIG1        0.0528
     24 C          -5.4226   -6.2320   -0.3479 C.ar    1  LIG1        0.1058
     25 N          -4.1418   -6.0265   -0.6966 N.ar    1  LIG1       -0.2290
     26 H          -6.4174   -3.0333    0.0324 H       1  LIG1        0.0638
     27 N          -2.3130   -4.6762   -1.1221 N.pl3   1  LIG1       -0.3426
     28 H          -1.9236   -5.5717   -1.3891 H       1  LIG1        0.1437
     29 H          -2.1275   -3.9624   -1.8173 H       1  LIG1        0.1437
     30 C          -7.7149   -5.3272    0.0371 C.1     1  LIG1       -0.0674
     31 C          -8.9076   -5.4127    0.1672 C.1     1  LIG1       -0.1138
     32 H          -9.9576   -5.5246    0.3163 H       1  LIG1        0.1232
     33 C          -5.7874   -7.6523   -0.2795 C.ar    1  LIG1        0.0851
     34 C          -6.6654   -8.4136    0.4791 C.ar    1  LIG1        0.0958
     35 C          -6.4844   -9.7802    0.0851 C.ar    1  LIG1        0.0870
     36 C          -5.5041   -9.8006   -0.8800 C.ar    1  LIG1        0.0210
     37 N          -5.0993   -8.5240   -1.0780 N.ar    1  LIG1       -0.3572
     38 H          -4.3449   -8.2064   -1.6685 H       1  LIG1        0.1655
     39 H          -5.0860  -10.6324   -1.4244 H       1  LIG1        0.0820
     40 N          -8.1669   -7.7158    2.4531 N.1     1  LIG1       -0.1908
     41 C          -7.5014   -8.0005    1.5508 C.1     1  LIG1        0.1026
     42 N          -7.7231  -11.8466    1.0032 N.1     1  LIG1       -0.1908
     43 C          -7.1711  -10.9151    0.5964 C.1     1  LIG1        0.1020
@<TRIPOS>BOND
     1    29    27    1
     2    38    37    1
     3    39    36    1
     4    28    27    1
     5    27    20    1
     6    37    36   ar
     7    37    33   ar
     8    19    13    1
     9    10     3    1
    10    36    35   ar
    11    20    25   ar
    12    20    21   ar
    13    17    18    3
    14    13    12   ar
    15    13    14   ar
    16    25    24   ar
    17    18    12    1
    18    12    11   ar
    19    21    14    1
    20    21    22   ar
    21    14    15   ar
    22    24    33    1
    23    24    23   ar
    24    33    34   ar
    25    22    23   ar
    26    22    26    1
    27    23    30    1
    28     3     4   ar
    29     3     2   ar
    30    11    15   ar
    31    11     4    1
    32    15    16    1
    33    30    31    3
    34    35    34   ar
    35    35    43    1
    36    31    32    1
    37     8     9    3
    38     4     5   ar
    39     9     2    1
    40    34    41    1
    41     2     1   ar
    42    43    42    3
    43     5     1   ar
    44     5     6    1
    45     1     7    1
    46    41    40    3
