@<TRIPOS>MOLECULE
mol_data/opt/cam/geoms/mol2/13da13da-.out
 20 21 0 0 0
SMALL
GASTEIGER

@<TRIPOS>ATOM
      1 C           1.1585   -0.3191   -0.0001 C.ar    1  LIG1        0.0197
      2 C           0.7570    1.0022   -0.0001 C.ar    1  LIG1        0.0696
      3 C          -0.6646    1.0137    0.0003 C.ar    1  LIG1       -0.0175
      4 C          -1.0828   -0.2981    0.0002 C.ar    1  LIG1        0.0654
      5 N           0.0451   -1.0896   -0.0000 N.ar    1  LIG1       -0.3583
      6 H           0.0375   -2.1011   -0.0002 H       1  LIG1        0.1654
      7 H           2.1491   -0.7453   -0.0002 H       1  LIG1        0.0820
      8 N           2.3069    3.0641   -0.0004 N.1     1  LIG1       -0.1908
      9 C           1.6162    2.1355   -0.0003 C.1     1  LIG1        0.1007
     10 H          -1.2836    1.8985    0.0006 H       1  LIG1        0.0652
     11 C          -2.4186   -0.8569    0.0004 C.ar    1  LIG1        0.0805
     12 C          -2.8627   -2.1758    0.0002 C.ar    1  LIG1        0.0784
     13 C          -4.2888   -2.1613    0.0007 C.ar    1  LIG1       -0.0263
     14 C          -4.6694   -0.8514    0.0007 C.ar    1  LIG1        0.0035
     15 N          -3.5348   -0.0762    0.0007 N.ar    1  LIG1       -0.3585
     16 H          -3.5238    0.9307    0.0007 H       1  LIG1        0.1654
     17 H          -5.6500   -0.4027    0.0009 H       1  LIG1        0.0807
     18 N          -1.2328   -4.1696   -0.0003 N.1     1  LIG1       -0.1908
     19 C          -2.0023   -3.3019   -0.0002 C.1     1  LIG1        0.1013
     20 H          -4.9353   -3.0249    0.0009 H       1  LIG1        0.0645
@<TRIPOS>BOND
     1     8     9    3
     2     9     2    1
     3    18    19    3
     4     7     1    1
     5    19    12    1
     6     6     5    1
     7     2     1   ar
     8     2     3   ar
     9     1     5   ar
    10     5     4   ar
    11    12    11   ar
    12    12    13   ar
    13     4     3   ar
    14     4    11    1
    15     3    10    1
    16    11    15   ar
    17    15    14   ar
    18    15    16    1
    19    14    13   ar
    20    14    17    1
    21    13    20    1
