@<TRIPOS>MOLECULE
mol_data/opt/cam/geoms/mol2/13da13da13da-13da.out
 38 41 0 0 0
SMALL
GASTEIGER

@<TRIPOS>ATOM
      1 C           1.2663   -0.2616   -0.0008 C.ar    1  LIG1        0.0197
      2 C           0.8642    1.0584   -0.0008 C.ar    1  LIG1        0.0696
      3 C          -0.5568    1.0759   -0.0002 C.ar    1  LIG1       -0.0175
      4 C          -0.9797   -0.2340    0.0000 C.ar    1  LIG1        0.0654
      5 N           0.1503   -1.0326   -0.0003 N.ar    1  LIG1       -0.3583
      6 H           0.1729   -2.0407   -0.0004 H       1  LIG1        0.1654
      7 H           2.2565   -0.6889   -0.0012 H       1  LIG1        0.0820
      8 N           2.4486    3.0947   -0.0017 N.1     1  LIG1       -0.1908
      9 C           1.7361    2.1831   -0.0013 C.1     1  LIG1        0.1007
     10 H          -1.1874    1.9513    0.0001 H       1  LIG1        0.0652
     11 C          -2.3166   -0.7850    0.0006 C.ar    1  LIG1        0.0810
     12 C          -3.5634   -0.1595    0.0007 C.ar    1  LIG1        0.0790
     13 C          -4.5598   -1.1695    0.0014 C.ar    1  LIG1       -0.0169
     14 C          -3.9099   -2.3823    0.0017 C.ar    1  LIG1        0.0659
     15 N          -2.5549   -2.1231    0.0012 N.ar    1  LIG1       -0.3508
     16 H          -1.8537   -2.8490    0.0014 H       1  LIG1        0.1660
     17 N          -3.9561    2.3876   -0.0002 N.1     1  LIG1       -0.1908
     18 C          -3.7871    1.2421    0.0002 C.1     1  LIG1        0.1013
     19 H          -5.6267   -0.9993    0.0016 H       1  LIG1        0.0652
     20 C          -4.4125   -3.7349    0.0023 C.ar    1  LIG1        0.0810
     21 C          -3.7354   -4.9563    0.0024 C.ar    1  LIG1        0.0790
     22 C          -4.7051   -5.9939    0.0032 C.ar    1  LIG1       -0.0169
     23 C          -5.9409   -5.3914    0.0035 C.ar    1  LIG1        0.0659
     24 N          -5.7375   -4.0262    0.0029 N.ar    1  LIG1       -0.3508
     25 H          -6.4793   -3.3377    0.0030 H       1  LIG1        0.1660
     26 N          -1.1637   -5.0241    0.0013 N.1     1  LIG1       -0.1908
     27 C          -2.3236   -5.0646    0.0018 C.1     1  LIG1        0.1013
     28 H          -4.4918   -7.0522    0.0035 H       1  LIG1        0.0652
     29 C          -7.2699   -5.9632    0.0043 C.ar    1  LIG1        0.0805
     30 C          -8.5234   -5.3575    0.0046 C.ar    1  LIG1        0.0784
     31 C          -9.5101   -6.3855    0.0056 C.ar    1  LIG1       -0.0263
     32 C          -8.8401   -7.5741    0.0053 C.ar    1  LIG1        0.0035
     33 N          -7.4926   -7.3074    0.0046 N.ar    1  LIG1       -0.3585
     34 H          -6.7676   -8.0063    0.0043 H       1  LIG1        0.1654
     35 H          -9.2065   -8.5884    0.0057 H       1  LIG1        0.0807
     36 N          -8.7757   -2.7952    0.0042 N.1     1  LIG1       -0.1908
     37 C          -8.7184   -3.9535    0.0044 C.1     1  LIG1        0.1013
     38 H         -10.5795   -6.2437    0.0062 H       1  LIG1        0.0645
@<TRIPOS>BOND
     1     8     9    3
     2     9     2    1
     3     7     1    1
     4     2     1   ar
     5     2     3   ar
     6     1     5   ar
     7     6     5    1
     8     5     4   ar
     9    17    18    3
    10     3     4   ar
    11     3    10    1
    12     4    11    1
    13    18    12    1
    14    11    12   ar
    15    11    15   ar
    16    12    13   ar
    17    15    16    1
    18    15    14   ar
    19    26    27    3
    20    13    19    1
    21    13    14   ar
    22    14    20    1
    23    27    21    1
    24    20    21   ar
    25    20    24   ar
    26    21    22   ar
    27    24    25    1
    28    24    23   ar
    29    22    28    1
    30    22    23   ar
    31    23    29    1
    32    36    37    3
    33    29    33   ar
    34    29    30   ar
    35    34    33    1
    36    37    30    1
    37    33    32   ar
    38    30    31   ar
    39    32    31   ar
    40    32    35    1
    41    31    38    1
