@<TRIPOS>MOLECULE
mol_data/opt/cam/geoms/mol2/13da4ei12ad13lf-.out
 47 50 0 0 0
SMALL
GASTEIGER

@<TRIPOS>ATOM
      1 C           1.5096   -0.0066   -0.3555 C.ar    1  LIG1        0.0196
      2 C           1.1367    1.2730    0.0016 C.ar    1  LIG1        0.0696
      3 C          -0.2761    1.2764    0.1735 C.ar    1  LIG1       -0.0190
      4 C          -0.7250    0.0014   -0.0757 C.ar    1  LIG1        0.0489
      5 N           0.3843   -0.7625   -0.3872 N.ar    1  LIG1       -0.3594
      6 H           0.3434   -1.7199   -0.6968 H       1  LIG1        0.1654
      7 H           2.4818   -0.4096   -0.5915 H       1  LIG1        0.0820
      8 N           2.7371    3.2745    0.3005 N.1     1  LIG1       -0.1908
      9 C           2.0206    2.3756    0.1660 C.1     1  LIG1        0.1007
     10 H          -0.8816    2.1184    0.4652 H       1  LIG1        0.0652
     11 C          -3.2320    0.0979   -0.3394 C.ar    1  LIG1        0.0345
     12 C          -4.4571   -0.5635   -0.2658 C.ar    1  LIG1       -0.0348
     13 C          -2.0565   -0.6048   -0.0085 C.ar    1  LIG1        0.0140
     14 C          -4.5706   -1.8951    0.1323 C.ar    1  LIG1        0.0214
     15 H          -5.3484   -0.0201   -0.5569 H       1  LIG1        0.0637
     16 C          -2.1862   -1.9369    0.3923 C.ar    1  LIG1       -0.0479
     17 C          -3.4027   -2.6045    0.4726 C.ar    1  LIG1       -0.0391
     18 H          -1.2948   -2.4736    0.7037 H       1  LIG1        0.0627
     19 C          -3.2271    1.4585   -0.7854 C.1     1  LIG1       -0.0690
     20 C          -3.2823    2.5991   -1.1662 C.1     1  LIG1       -0.1139
     21 H          -3.3143    3.6085   -1.5075 H       1  LIG1        0.1232
     22 C          -3.4203   -4.0341    0.9465 C.3     1  LIG1       -0.0390
     23 H          -2.4516   -4.3077    1.3690 H       1  LIG1        0.0278
     24 H          -3.6364   -4.7210    0.1232 H       1  LIG1        0.0278
     25 H          -4.1835   -4.1943    1.7117 H       1  LIG1        0.0278
     26 C          -5.9155   -2.4629    0.2024 C.ar    1  LIG1        0.1373
     27 C          -7.1291   -1.9019    0.4348 C.ar    1  LIG1        0.0023
     28 C          -8.1001   -2.9510    0.3453 C.ar    1  LIG1        0.0996
     29 C          -7.4041   -4.1008    0.0525 C.ar    1  LIG1        0.1727
     30 O          -6.0826   -3.8062   -0.0315 O.2     1  LIG1       -0.4519
     31 H          -7.3314   -0.8696    0.6743 H       1  LIG1        0.0668
     32 N         -10.6022   -2.6466    0.8792 N.1     1  LIG1       -0.1907
     33 C          -9.4872   -2.8117    0.6157 C.1     1  LIG1        0.1030
     34 C          -7.7538   -5.4771   -0.1454 C.ar    1  LIG1        0.1293
     35 C          -8.9643   -6.0689   -0.4700 C.ar    1  LIG1        0.1897
     36 C          -8.7378   -7.4672   -0.5547 C.ar    1  LIG1        0.1769
     37 C          -7.4055   -7.6901   -0.2914 C.ar    1  LIG1        0.0480
     38 N          -6.8148   -6.4772   -0.0592 N.ar    1  LIG1       -0.3522
     39 H          -5.8475   -6.3245    0.1674 H       1  LIG1        0.1656
     40 H          -6.8435   -8.6109   -0.2624 H       1  LIG1        0.0845
     41 O         -10.0935   -5.3820   -0.7497 O.3     1  LIG1       -0.4894
     42 C         -11.2587   -5.7724   -0.0244 C.3     1  LIG1        0.0791
     43 H         -12.0554   -5.1078   -0.3547 H       1  LIG1        0.0660
     44 H         -11.5192   -6.8123   -0.2360 H       1  LIG1        0.0660
     45 H         -11.1065   -5.6345    1.0504 H       1  LIG1        0.0660
     46 O          -9.7200   -8.3591   -0.8642 O.3     1  LIG1       -0.5023
     47 H          -9.3520   -9.2494   -0.8812 H       1  LIG1        0.2923
@<TRIPOS>BOND
     1    21    20    1
     2    20    19    3
     3    47    46    1
     4    46    36    1
     5    19    11    1
     6    41    35    1
     7    41    42    1
     8     6     5    1
     9     7     1    1
    10    15    12    1
    11    36    35   ar
    12    36    37   ar
    13    35    34   ar
    14     5     1   ar
    15     5     4   ar
    16     1     2   ar
    17    43    42    1
    18    11    12   ar
    19    11    13   ar
    20    37    40    1
    21    37    38   ar
    22    12    14   ar
    23    44    42    1
    24    34    38   ar
    25    34    29    1
    26     4    13    1
    27     4     3   ar
    28    38    39    1
    29    30    29   ar
    30    30    26   ar
    31    42    45    1
    32    13    16   ar
    33     2     9    1
    34     2     3   ar
    35    29    28   ar
    36    24    22    1
    37    14    26    1
    38    14    17   ar
    39     9     8    3
    40     3    10    1
    41    26    27   ar
    42    28    27   ar
    43    28    33    1
    44    16    17   ar
    45    16    18    1
    46    27    31    1
    47    17    22    1
    48    33    32    3
    49    22    23    1
    50    22    25    1
