@<TRIPOS>MOLECULE
mol_data/opt/cam/geoms/mol2/13da13da-13da-13da.out
 38 41 0 0 0
SMALL
GASTEIGER

@<TRIPOS>ATOM
      1 C           1.2457   -0.2846   -0.0009 C.ar    1  LIG1        0.0197
      2 C           0.8158    1.0287   -0.0004 C.ar    1  LIG1        0.0696
      3 C          -0.6045    1.0111    0.0003 C.ar    1  LIG1       -0.0175
      4 C          -0.9935   -0.3109    0.0002 C.ar    1  LIG1        0.0654
      5 N           0.1509   -1.0793   -0.0006 N.ar    1  LIG1       -0.3583
      6 H           0.1660   -2.0907   -0.0009 H       1  LIG1        0.1654
      7 H           2.2457   -0.6886   -0.0015 H       1  LIG1        0.0820
      8 N           2.3341    3.1142   -0.0006 N.1     1  LIG1       -0.1908
      9 C           1.6550    2.1772   -0.0005 C.1     1  LIG1        0.1007
     10 H          -1.2423    1.8833    0.0009 H       1  LIG1        0.0652
     11 C          -2.3158   -0.8946    0.0007 C.ar    1  LIG1        0.0810
     12 C          -2.7382   -2.2225    0.0006 C.ar    1  LIG1        0.0790
     13 C          -4.1573   -2.2371    0.0012 C.ar    1  LIG1       -0.0169
     14 C          -4.5740   -0.9274    0.0016 C.ar    1  LIG1        0.0659
     15 N          -3.4412   -0.1308    0.0012 N.ar    1  LIG1       -0.3508
     16 H          -3.4198    0.8778    0.0010 H       1  LIG1        0.1660
     17 N          -1.0641   -4.1794   -0.0003 N.1     1  LIG1       -0.1908
     18 C          -1.8556   -3.3323    0.0001 C.1     1  LIG1        0.1013
     19 H          -4.7908   -3.1104    0.0014 H       1  LIG1        0.0652
     20 C          -5.9036   -0.3639    0.0022 C.ar    1  LIG1        0.0810
     21 C          -7.1604   -0.9669    0.0017 C.ar    1  LIG1        0.0790
     22 C          -8.1375    0.0641    0.0027 C.ar    1  LIG1       -0.0169
     23 C          -7.4658    1.2650    0.0038 C.ar    1  LIG1        0.0659
     24 N          -6.1187    0.9779    0.0035 N.ar    1  LIG1       -0.3508
     25 H          -5.4052    1.6923    0.0044 H       1  LIG1        0.1660
     26 N          -7.5955   -3.5067   -0.0007 N.1     1  LIG1       -0.1908
     27 C          -7.4082   -2.3638    0.0004 C.1     1  LIG1        0.1013
     28 H          -9.2061   -0.0898    0.0025 H       1  LIG1        0.0652
     29 C          -7.9264    2.6357    0.0050 C.ar    1  LIG1        0.0805
     30 C          -7.2054    3.8301    0.0056 C.ar    1  LIG1        0.0784
     31 C          -8.1377    4.9084    0.0067 C.ar    1  LIG1       -0.0263
     32 C          -9.3826    4.3507    0.0068 C.ar    1  LIG1        0.0035
     33 N          -9.2419    2.9829    0.0057 N.ar    1  LIG1       -0.3585
     34 H         -10.0044    2.3245    0.0056 H       1  LIG1        0.1654
     35 H         -10.3586    4.8092    0.0075 H       1  LIG1        0.0807
     36 N          -4.6338    3.7650    0.0045 N.1     1  LIG1       -0.1908
     37 C          -5.7894    3.8752    0.0050 C.1     1  LIG1        0.1013
     38 H          -7.8990    5.9604    0.0074 H       1  LIG1        0.0645
@<TRIPOS>BOND
     1     7     1    1
     2     1     5   ar
     3     1     2   ar
     4     6     5    1
     5    26    27    3
     6     5     4   ar
     7     8     9    3
     8     9     2    1
     9     2     3   ar
    10    17    18    3
    11    18    12    1
    12     4     3   ar
    13     4    11    1
    14     3    10    1
    15    27    21    1
    16    12    11   ar
    17    12    13   ar
    18    11    15   ar
    19    16    15    1
    20    13    19    1
    21    13    14   ar
    22    15    14   ar
    23    14    20    1
    24    21    20   ar
    25    21    22   ar
    26    20    24   ar
    27    28    22    1
    28    22    23   ar
    29    24    23   ar
    30    24    25    1
    31    23    29    1
    32    36    37    3
    33    29    30   ar
    34    29    33   ar
    35    37    30    1
    36    30    31   ar
    37    34    33    1
    38    33    32   ar
    39    31    32   ar
    40    31    38    1
    41    32    35    1
