@<TRIPOS>MOLECULE
mol_data/opt/cam/geoms/mol2/13dd13dd-13dd-13dd-.out
 42 45 0 0 0
SMALL
GASTEIGER

@<TRIPOS>ATOM
      1 C           1.1900   -0.1607    0.0491 C.ar    1  LIG1        0.0210
      2 C           0.6910    1.0923    0.3172 C.ar    1  LIG1        0.0870
      3 C          -0.7336    0.9801    0.2975 C.ar    1  LIG1        0.0957
      4 C          -1.0429   -0.3476    0.0197 C.ar    1  LIG1        0.0831
      5 N           0.1419   -1.0097   -0.1254 N.ar    1  LIG1       -0.3573
      6 H           0.2225   -1.9944   -0.3511 H       1  LIG1        0.1655
      7 H           2.2125   -0.4950   -0.0271 H       1  LIG1        0.0820
      8 N           2.0520    3.2357    0.7614 N.1     1  LIG1       -0.1908
      9 C           1.4462    2.2713    0.5619 C.1     1  LIG1        0.1020
     10 N          -2.6195    2.6968    0.6292 N.1     1  LIG1       -0.1908
     11 C          -1.7128    1.9867    0.4925 C.1     1  LIG1        0.1026
     12 C          -2.3378   -0.9747   -0.1210 C.ar    1  LIG1        0.0835
     13 C          -2.7073   -2.2466   -0.5348 C.ar    1  LIG1        0.0964
     14 C          -4.1355   -2.3134   -0.5196 C.ar    1  LIG1        0.0964
     15 C          -4.5893   -1.0801   -0.0835 C.ar    1  LIG1        0.0835
     16 N          -3.4906   -0.2982    0.1452 N.ar    1  LIG1       -0.3497
     17 H          -3.5258    0.6254    0.5569 H       1  LIG1        0.1661
     18 N          -0.9223   -3.9836   -1.1782 N.1     1  LIG1       -0.1908
     19 C          -1.7760   -3.2486   -0.9091 C.1     1  LIG1        0.1026
     20 N          -5.5486   -4.3054   -1.3392 N.1     1  LIG1       -0.1908
     21 C          -4.9235   -3.4112   -0.9565 C.1     1  LIG1        0.1026
     22 C          -5.9005   -0.4983    0.1109 C.ar    1  LIG1        0.0835
     23 C          -7.0780   -0.9838    0.6456 C.ar    1  LIG1        0.0964
     24 C          -8.0080    0.1039    0.6879 C.ar    1  LIG1        0.0964
     25 C          -7.3672    1.2177    0.1775 C.ar    1  LIG1        0.0835
     26 N          -6.0928    0.8365   -0.1516 N.ar    1  LIG1       -0.3497
     27 H          -5.4731    1.3968   -0.7199 H       1  LIG1        0.1661
     28 N          -7.4348   -3.3438    1.6175 N.1     1  LIG1       -0.1908
     29 C          -7.2834   -2.2887    1.1697 C.1     1  LIG1        0.1026
     30 N         -10.3609    0.0468    1.7376 N.1     1  LIG1       -0.1908
     31 C          -9.3114    0.0701    1.2535 C.1     1  LIG1        0.1026
     32 C          -7.7972    2.5921    0.0089 C.ar    1  LIG1        0.0831
     33 C          -8.9661    3.1275   -0.4991 C.ar    1  LIG1        0.0957
     34 C          -8.8330    4.5516   -0.4515 C.ar    1  LIG1        0.0870
     35 C          -7.5926    4.8272    0.0744 C.ar    1  LIG1        0.0210
     36 N          -6.9768    3.6447    0.3386 N.ar    1  LIG1       -0.3573
     37 H          -6.0838    3.5559    0.8018 H       1  LIG1        0.1655
     38 H          -7.1225    5.7764    0.2772 H       1  LIG1        0.0820
     39 N         -10.9320    1.7973   -1.5031 N.1     1  LIG1       -0.1908
     40 C         -10.0565    2.3947   -1.0411 C.1     1  LIG1        0.1026
     41 N         -10.5515    6.3084   -1.2312 N.1     1  LIG1       -0.1908
     42 C          -9.7864    5.5153   -0.8817 C.1     1  LIG1        0.1020
@<TRIPOS>BOND
     1    39    40    3
     2    20    21    3
     3    41    42    3
     4    18    19    3
     5    40    33    1
     6    21    14    1
     7    19    13    1
     8    42    34    1
     9    27    26    1
    10    13    14   ar
    11    13    12   ar
    12    14    15   ar
    13    33    34   ar
    14    33    32   ar
    15    34    35   ar
    16     6     5    1
    17    26    22   ar
    18    26    25   ar
    19     5     4   ar
    20     5     1   ar
    21    12     4    1
    22    12    16   ar
    23    15    22    1
    24    15    16   ar
    25     7     1    1
    26    32    25    1
    27    32    36   ar
    28     4     3   ar
    29     1     2   ar
    30    35    38    1
    31    35    36   ar
    32    22    23   ar
    33    16    17    1
    34    25    24   ar
    35     3     2   ar
    36     3    11    1
    37     2     9    1
    38    36    37    1
    39    11    10    3
    40     9     8    3
    41    23    24   ar
    42    23    29    1
    43    24    31    1
    44    29    28    3
    45    31    30    3
