@<TRIPOS>MOLECULE
mol_data/opt/cam/geoms/mol2/13dd13dd13dd.out
 32 34 0 0 0
SMALL
GASTEIGER

@<TRIPOS>ATOM
      1 C           0.0347    1.6463   -1.2223 C.ar    1  LIG1        0.0210
      2 C           0.7799    0.5623   -0.8193 C.ar    1  LIG1        0.0870
      3 C          -0.1437   -0.4371   -0.3846 C.ar    1  LIG1        0.0957
      4 C          -1.4208    0.0802   -0.5477 C.ar    1  LIG1        0.0831
      5 N          -1.2778    1.3442   -1.0558 N.ar    1  LIG1       -0.3573
      6 H          -2.0436    1.9758   -1.2519 H       1  LIG1        0.1655
      7 H           0.3557    2.5993   -1.6120 H       1  LIG1        0.0820
      8 N           3.3526    0.4012   -0.8367 N.1     1  LIG1       -0.1908
      9 C           2.1984    0.4697   -0.8283 C.1     1  LIG1        0.1020
     10 N           0.3279   -2.7539    0.6357 N.1     1  LIG1       -0.1908
     11 C           0.1542   -1.7099    0.1663 C.1     1  LIG1        0.1026
     12 C          -2.7131   -0.4987   -0.2499 C.ar    1  LIG1        0.0835
     13 C          -3.9532    0.1139   -0.1385 C.ar    1  LIG1        0.0964
     14 C          -4.8990   -0.8986    0.1951 C.ar    1  LIG1        0.0964
     15 C          -4.2095   -2.1004    0.2709 C.ar    1  LIG1        0.0835
     16 N          -2.8971   -1.8301    0.0001 N.ar    1  LIG1       -0.3497
     17 H          -2.1570   -2.5260   -0.0136 H       1  LIG1        0.1661
     18 N          -4.3119    2.6285   -0.5513 N.1     1  LIG1       -0.1908
     19 C          -4.1965    1.4947   -0.3434 C.1     1  LIG1        0.1026
     20 N          -7.4223   -0.7033    0.6613 N.1     1  LIG1       -0.1908
     21 C          -6.2879   -0.7447    0.4302 C.1     1  LIG1        0.1026
     22 C          -4.7021   -3.4312    0.5540 C.ar    1  LIG1        0.0831
     23 C          -4.1109   -4.6708    0.3563 C.ar    1  LIG1        0.0957
     24 C          -5.0430   -5.6621    0.7912 C.ar    1  LIG1        0.0870
     25 C          -6.1625   -4.9927    1.2287 C.ar    1  LIG1        0.0210
     26 N          -5.9448   -3.6612    1.0824 N.ar    1  LIG1       -0.3573
     27 H          -6.6181   -2.9395    1.3051 H       1  LIG1        0.1655
     28 H          -7.0862   -5.3790    1.6295 H       1  LIG1        0.0820
     29 N          -1.7899   -4.9796   -0.7157 N.1     1  LIG1       -0.1908
     30 C          -2.8332   -4.8793   -0.2238 C.1     1  LIG1        0.1026
     31 N          -4.7242   -8.2198    0.7551 N.1     1  LIG1       -0.1908
     32 C          -4.8634   -7.0721    0.7706 C.1     1  LIG1        0.1020
@<TRIPOS>BOND
     1     7     1    1
     2     6     5    1
     3     1     5   ar
     4     1     2   ar
     5     5     4   ar
     6     8     9    3
     7     9     2    1
     8     2     3   ar
     9    29    30    3
    10    18    19    3
    11     4     3   ar
    12     4    12    1
    13     3    11    1
    14    19    13    1
    15    12    13   ar
    16    12    16   ar
    17    30    23    1
    18    13    14   ar
    19    17    16    1
    20    16    15   ar
    21    11    10    3
    22    14    15   ar
    23    14    21    1
    24    15    22    1
    25    23    22   ar
    26    23    24   ar
    27    21    20    3
    28    22    26   ar
    29    31    32    3
    30    32    24    1
    31    24    25   ar
    32    26    25   ar
    33    26    27    1
    34    25    28    1
