@<TRIPOS>MOLECULE
mol_data/opt/cam/geoms/mol2/13dd13dd-13dd.out
 32 34 0 0 0
SMALL
GASTEIGER

@<TRIPOS>ATOM
      1 C           1.2546   -0.3139    0.2806 C.ar    1  LIG1        0.0210
      2 C           0.8979    0.9666   -0.0744 C.ar    1  LIG1        0.0870
      3 C          -0.5227    0.9747   -0.2241 C.ar    1  LIG1        0.0957
      4 C          -0.9759   -0.3071    0.0536 C.ar    1  LIG1        0.0831
      5 N           0.1258   -1.0635    0.3546 N.ar    1  LIG1       -0.3573
      6 H           0.1036   -2.0513    0.5729 H       1  LIG1        0.1655
      7 H           2.2293   -0.7290    0.4824 H       1  LIG1        0.0820
      8 N           2.5099    2.9488   -0.4169 N.1     1  LIG1       -0.1908
      9 C           1.7839    2.0621   -0.2633 C.1     1  LIG1        0.1020
     10 N          -2.0689    2.8936   -0.9712 N.1     1  LIG1       -0.1908
     11 C          -1.3442    2.0573   -0.6308 C.1     1  LIG1        0.1026
     12 C          -2.3154   -0.8539    0.0338 C.ar    1  LIG1        0.0835
     13 C          -2.7314   -2.1777    0.0239 C.ar    1  LIG1        0.0964
     14 C          -4.1557   -2.1755   -0.0218 C.ar    1  LIG1        0.0964
     15 C          -4.5675   -0.8503   -0.0316 C.ar    1  LIG1        0.0835
     16 N          -3.4402   -0.0776    0.0013 N.ar    1  LIG1       -0.3497
     17 H          -3.4386    0.9384    0.0013 H       1  LIG1        0.1661
     18 N          -1.0916   -4.1580    0.1326 N.1     1  LIG1       -0.1908
     19 C          -1.8667   -3.2994    0.0691 C.1     1  LIG1        0.1026
     20 N          -5.8019   -4.1504   -0.1310 N.1     1  LIG1       -0.1908
     21 C          -5.0241   -3.2943   -0.0673 C.1     1  LIG1        0.1026
     22 C          -5.9052   -0.2992   -0.0512 C.ar    1  LIG1        0.0831
     23 C          -6.3544    0.9839    0.2269 C.ar    1  LIG1        0.0957
     24 C          -7.7750    0.9803    0.0774 C.ar    1  LIG1        0.0870
     25 C          -8.1357   -0.2989   -0.2782 C.ar    1  LIG1        0.0210
     26 N          -7.0093   -1.0520   -0.3524 N.ar    1  LIG1       -0.3573
     27 H          -6.9902   -2.0398   -0.5710 H       1  LIG1        0.1655
     28 H          -9.1117   -0.7108   -0.4802 H       1  LIG1        0.0820
     29 N          -4.8021    2.8978    0.9746 N.1     1  LIG1       -0.1908
     30 C          -5.5295    2.0638    0.6339 C.1     1  LIG1        0.1026
     31 N          -9.3807    2.9675    0.4208 N.1     1  LIG1       -0.1908
     32 C          -8.6575    2.0786    0.2668 C.1     1  LIG1        0.1020
@<TRIPOS>BOND
     1    10    11    3
     2    11     3    1
     3    27    26    1
     4    28    25    1
     5     8     9    3
     6    26    25   ar
     7    26    22   ar
     8    25    24   ar
     9     9     2    1
    10     3     2   ar
    11     3     4   ar
    12    20    21    3
    13     2     1   ar
    14    21    14    1
    15    22    15    1
    16    22    23   ar
    17    15    14   ar
    18    15    16   ar
    19    14    13   ar
    20    16    17    1
    21    16    12   ar
    22    13    12   ar
    23    13    19    1
    24    12     4    1
    25     4     5   ar
    26    19    18    3
    27    24    23   ar
    28    24    32    1
    29    23    30    1
    30    32    31    3
    31     1     5   ar
    32     1     7    1
    33     5     6    1
    34    30    29    3
