@<TRIPOS>MOLECULE
mol_data/opt/cam/geoms/mol2/13dd13dd13dd-13dd.out
 42 45 0 0 0
SMALL
GASTEIGER

@<TRIPOS>ATOM
      1 C           1.2556   -0.1776   -0.2047 C.ar    1  LIG1        0.0210
      2 C           0.8902    0.9898    0.4234 C.ar    1  LIG1        0.0870
      3 C          -0.5380    0.9926    0.5145 C.ar    1  LIG1        0.0957
      4 C          -0.9856   -0.1768   -0.0719 C.ar    1  LIG1        0.0831
      5 N           0.1230   -0.8725   -0.4898 N.ar    1  LIG1       -0.3573
      6 H           0.0972   -1.7367   -1.0114 H       1  LIG1        0.1655
      7 H           2.2352   -0.5463   -0.4646 H       1  LIG1        0.0820
      8 N           2.5142    2.7936    1.2932 N.1     1  LIG1       -0.1908
      9 C           1.7804    1.9893    0.9042 C.1     1  LIG1        0.1020
     10 N          -2.0016    2.7463    1.7080 N.1     1  LIG1       -0.1908
     11 C          -1.3447    1.9674    1.1613 C.1     1  LIG1        0.1026
     12 C          -2.3227   -0.7121   -0.2379 C.ar    1  LIG1        0.0835
     13 C          -3.5059   -0.1247   -0.6534 C.ar    1  LIG1        0.0964
     14 C          -4.5007   -1.1480   -0.6663 C.ar    1  LIG1        0.0964
     15 C          -3.8927   -2.3279   -0.2658 C.ar    1  LIG1        0.0835
     16 N          -2.5811   -2.0356   -0.0137 N.ar    1  LIG1       -0.3497
     17 H          -1.9094   -2.6932    0.3590 H       1  LIG1        0.1661
     18 N          -3.8228    2.3002   -1.4647 N.1     1  LIG1       -0.1908
     19 C          -3.6796    1.2177   -1.0850 C.1     1  LIG1        0.1026
     20 N          -6.9624   -1.0224   -1.4126 N.1     1  LIG1       -0.1908
     21 C          -5.8540   -1.0371   -1.0798 C.1     1  LIG1        0.1026
     22 C          -4.4101   -3.6728   -0.1537 C.ar    1  LIG1        0.0835
     23 C          -3.7172   -4.8756   -0.1423 C.ar    1  LIG1        0.0964
     24 C          -4.6821   -5.9196   -0.0471 C.ar    1  LIG1        0.0964
     25 C          -5.9347   -5.3218   -0.0012 C.ar    1  LIG1        0.0835
     26 N          -5.7399   -3.9697   -0.0683 N.ar    1  LIG1       -0.3497
     27 H          -6.4857   -3.2792   -0.0550 H       1  LIG1        0.1661
     28 N          -1.1490   -4.9387   -0.2699 N.1     1  LIG1       -0.1908
     29 C          -2.3059   -4.9789   -0.2204 C.1     1  LIG1        0.1026
     30 N          -4.3455   -8.4705   -0.0114 N.1     1  LIG1       -0.1908
     31 C          -4.4479   -7.3167   -0.0196 C.1     1  LIG1        0.1026
     32 C          -7.2443   -5.9258    0.1133 C.ar    1  LIG1        0.0831
     33 C          -8.4775   -5.3502    0.3859 C.ar    1  LIG1        0.0957
     34 C          -9.4450   -6.4000    0.4013 C.ar    1  LIG1        0.0870
     35 C          -8.7678   -7.5698    0.1436 C.ar    1  LIG1        0.0210
     36 N          -7.4549   -7.2722   -0.0269 N.ar    1  LIG1       -0.3573
     37 H          -6.7295   -7.9535   -0.2103 H       1  LIG1        0.1655
     38 H          -9.1372   -8.5806    0.0722 H       1  LIG1        0.0820
     39 N          -8.7715   -2.8336    0.8426 N.1     1  LIG1       -0.1908
     40 C          -8.6869   -3.9702    0.6381 C.1     1  LIG1        0.1026
     41 N         -11.9751   -6.1765    0.8411 N.1     1  LIG1       -0.1908
     42 C         -10.8401   -6.2733    0.6434 C.1     1  LIG1        0.1020
@<TRIPOS>BOND
     1    18    19    3
     2    20    21    3
     3    19    13    1
     4    21    14    1
     5     6     5    1
     6    14    13   ar
     7    14    15   ar
     8    13    12   ar
     9     5     1   ar
    10     5     4   ar
    11     7     1    1
    12    28    29    3
    13    15    22    1
    14    15    16   ar
    15    12     4    1
    16    12    16   ar
    17    29    23    1
    18    37    36    1
    19     1     2   ar
    20    22    23   ar
    21    22    26   ar
    22    23    24   ar
    23     4     3   ar
    24    26    27    1
    25    26    25   ar
    26    24    31    1
    27    24    25   ar
    28    36    32   ar
    29    36    35   ar
    30    31    30    3
    31    16    17    1
    32    25    32    1
    33    38    35    1
    34    32    33   ar
    35    35    34   ar
    36    33    34   ar
    37    33    40    1
    38    34    42    1
    39     2     3   ar
    40     2     9    1
    41     3    11    1
    42    40    39    3
    43    42    41    3
    44     9     8    3
    45    11    10    3
