@<TRIPOS>MOLECULE
mol_data/opt/cam/geoms/mol2/13dd13dd13dd-13dd-.out
 42 45 0 0 0
SMALL
GASTEIGER

@<TRIPOS>ATOM
      1 C           1.2384   -0.0783   -0.6888 C.ar    1  LIG1        0.0210
      2 C           0.9009    1.0464    0.0268 C.ar    1  LIG1        0.0870
      3 C          -0.5048    0.9773    0.2836 C.ar    1  LIG1        0.0957
      4 C          -0.9686   -0.1892   -0.2958 C.ar    1  LIG1        0.0831
      5 N           0.1103   -0.8146   -0.8700 N.ar    1  LIG1       -0.3573
      6 H           0.0596   -1.6554   -1.4254 H       1  LIG1        0.1655
      7 H           2.1954   -0.3908   -1.0758 H       1  LIG1        0.0820
      8 N           2.5339    2.8947    0.7781 N.1     1  LIG1       -0.1908
      9 C           1.7971    2.0694    0.4429 C.1     1  LIG1        0.1020
     10 N          -1.9089    2.6076    1.7025 N.1     1  LIG1       -0.1908
     11 C          -1.2764    1.8863    1.0571 C.1     1  LIG1        0.1026
     12 C          -2.3008   -0.7634   -0.3186 C.ar    1  LIG1        0.0835
     13 C          -3.5284   -0.1891   -0.5957 C.ar    1  LIG1        0.0964
     14 C          -4.5081   -1.2174   -0.4630 C.ar    1  LIG1        0.0964
     15 C          -3.8474   -2.3902   -0.1226 C.ar    1  LIG1        0.0835
     16 N          -2.5175   -2.0879   -0.0449 N.ar    1  LIG1       -0.3497
     17 H          -1.8037   -2.7335    0.2735 H       1  LIG1        0.1661
     18 N          -3.9787    2.2257   -1.3729 N.1     1  LIG1       -0.1908
     19 C          -3.7691    1.1482   -1.0102 C.1     1  LIG1        0.1026
     20 N          -7.0647   -1.1856   -0.7400 N.1     1  LIG1       -0.1908
     21 C          -5.9122   -1.1276   -0.6363 C.1     1  LIG1        0.1026
     22 C          -4.3691   -3.7159    0.1270 C.ar    1  LIG1        0.0835
     23 C          -3.7083   -4.8887    0.4674 C.ar    1  LIG1        0.0964
     24 C          -4.6880   -5.9171    0.6002 C.ar    1  LIG1        0.0964
     25 C          -5.9156   -5.3427    0.3231 C.ar    1  LIG1        0.0835
     26 N          -5.6989   -4.0183    0.0494 N.ar    1  LIG1       -0.3497
     27 H          -6.4127   -3.3726   -0.2691 H       1  LIG1        0.1661
     28 N          -1.1517   -4.9203    0.7443 N.1     1  LIG1       -0.1908
     29 C          -2.3042   -4.9785    0.6406 C.1     1  LIG1        0.1026
     30 N          -4.2377   -8.3319    1.3773 N.1     1  LIG1       -0.1908
     31 C          -4.4473   -7.2543    1.0147 C.1     1  LIG1        0.1026
     32 C          -7.2478   -5.9170    0.3004 C.ar    1  LIG1        0.0831
     33 C          -7.7116   -7.0836   -0.2788 C.ar    1  LIG1        0.0957
     34 C          -9.1172   -7.1527   -0.0220 C.ar    1  LIG1        0.0870
     35 C          -9.4548   -6.0279    0.6935 C.ar    1  LIG1        0.0210
     36 N          -8.3267   -5.2916    0.8746 N.ar    1  LIG1       -0.3573
     37 H          -8.2760   -4.4507    1.4300 H       1  LIG1        0.1655
     38 H         -10.4117   -5.7155    1.0805 H       1  LIG1        0.0820
     39 N          -6.3074   -8.7141   -1.6974 N.1     1  LIG1       -0.1908
     40 C          -6.9400   -7.9926   -1.0523 C.1     1  LIG1        0.1026
     41 N         -10.7502   -9.0011   -0.7732 N.1     1  LIG1       -0.1908
     42 C         -10.0134   -8.1757   -0.4380 C.1     1  LIG1        0.1020
@<TRIPOS>BOND
     1    39    40    3
     2     6     5    1
     3    18    19    3
     4     7     1    1
     5    40    33    1
     6    19    13    1
     7     5     1   ar
     8     5     4   ar
     9    41    42    3
    10    20    21    3
    11     1     2   ar
    12    21    14    1
    13    13    14   ar
    14    13    12   ar
    15    14    15   ar
    16    42    34    1
    17    12     4    1
    18    12    16   ar
    19     4     3   ar
    20    33    34   ar
    21    33    32   ar
    22    27    26    1
    23    15    16   ar
    24    15    22    1
    25    16    17    1
    26    34    35   ar
    27     2     3   ar
    28     2     9    1
    29    26    22   ar
    30    26    25   ar
    31    22    23   ar
    32     3    11    1
    33    32    25    1
    34    32    36   ar
    35    25    24   ar
    36     9     8    3
    37    23    24   ar
    38    23    29    1
    39    24    31    1
    40    29    28    3
    41    35    36   ar
    42    35    38    1
    43    36    37    1
    44    31    30    3
    45    11    10    3
