@<TRIPOS>MOLECULE
mol_data/opt/cam/geoms/mol2/13dd13dd-.out
 22 23 0 0 0
SMALL
GASTEIGER

@<TRIPOS>ATOM
      1 C           1.1938   -0.3281   -0.0006 C.ar    1  LIG1        0.0210
      2 C           0.8156    0.9937   -0.0001 C.ar    1  LIG1        0.0870
      3 C          -0.6139    1.0131   -0.0001 C.ar    1  LIG1        0.0957
      4 C          -1.0493   -0.3055    0.0002 C.ar    1  LIG1        0.0830
      5 N           0.0700   -1.0919   -0.0002 N.ar    1  LIG1       -0.3573
      6 H           0.0583   -2.1048   -0.0002 H       1  LIG1        0.1655
      7 H           2.1796   -0.7652   -0.0010 H       1  LIG1        0.0820
      8 N           2.3904    3.0344   -0.0002 N.1     1  LIG1       -0.1908
      9 C           1.6840    2.1189   -0.0001 C.1     1  LIG1        0.1020
     10 N          -2.2663    2.9853    0.0003 N.1     1  LIG1       -0.1908
     11 C          -1.4757    2.1382    0.0001 C.1     1  LIG1        0.1026
     12 C          -2.3926   -0.8467    0.0007 C.ar    1  LIG1        0.0830
     13 C          -2.8280   -2.1653    0.0010 C.ar    1  LIG1        0.0957
     14 C          -4.2575   -2.1459    0.0009 C.ar    1  LIG1        0.0870
     15 C          -4.6357   -0.8241    0.0016 C.ar    1  LIG1        0.0210
     16 N          -3.5119   -0.0604    0.0012 N.ar    1  LIG1       -0.3573
     17 H          -3.5002    0.9525    0.0013 H       1  LIG1        0.1655
     18 H          -5.6216   -0.3870    0.0020 H       1  LIG1        0.0820
     19 N          -1.1756   -4.1376    0.0004 N.1     1  LIG1       -0.1908
     20 C          -1.9662   -3.2904    0.0009 C.1     1  LIG1        0.1026
     21 N          -5.8323   -4.1867    0.0007 N.1     1  LIG1       -0.1908
     22 C          -5.1259   -3.2712    0.0007 C.1     1  LIG1        0.1020
@<TRIPOS>BOND
     1     7     1    1
     2     1     5   ar
     3     1     2   ar
     4     6     5    1
     5     5     4   ar
     6     8     9    3
     7     2     3   ar
     8     2     9    1
     9     3    11    1
    10     3     4   ar
    11    11    10    3
    12     4    12    1
    13    19    20    3
    14    12    13   ar
    15    12    16   ar
    16    21    22    3
    17    22    14    1
    18    20    13    1
    19    14    13   ar
    20    14    15   ar
    21    16    17    1
    22    16    15   ar
    23    15    18    1
