@<TRIPOS>MOLECULE
mol_data/opt/cam/geoms/mol2/13dd13dd-13dd13dd-.out
 42 45 0 0 0
SMALL
GASTEIGER

@<TRIPOS>ATOM
      1 C           1.3134   -0.2979   -0.1589 C.ar    1  LIG1        0.0210
      2 C           0.8906    0.9293   -0.6154 C.ar    1  LIG1        0.0870
      3 C          -0.5364    0.9210   -0.5600 C.ar    1  LIG1        0.0957
      4 C          -0.9261   -0.3165   -0.0661 C.ar    1  LIG1        0.0831
      5 N           0.2185   -1.0311    0.1660 N.ar    1  LIG1       -0.3573
      6 H           0.2429   -1.9815    0.5141 H       1  LIG1        0.1655
      7 H           2.3132   -0.6866   -0.0478 H       1  LIG1        0.0820
      8 N           2.4013    2.8549   -1.4245 N.1     1  LIG1       -0.1908
      9 C           1.7220    1.9926   -1.0612 C.1     1  LIG1        0.1020
     10 N          -2.2362    2.7216   -1.2631 N.1     1  LIG1       -0.1908
     11 C          -1.4319    1.9467   -0.9564 C.1     1  LIG1        0.1026
     12 C          -2.2489   -0.8502    0.1775 C.ar    1  LIG1        0.0835
     13 C          -2.6440   -2.1416    0.5047 C.ar    1  LIG1        0.0964
     14 C          -4.0644   -2.1404    0.6134 C.ar    1  LIG1        0.0964
     15 C          -4.4923   -0.8491    0.3490 C.ar    1  LIG1        0.0835
     16 N          -3.3820   -0.0939    0.0922 N.ar    1  LIG1       -0.3497
     17 H          -3.3955    0.8946   -0.1392 H       1  LIG1        0.1661
     18 N          -0.9531   -4.0477    0.8622 N.1     1  LIG1       -0.1908
     19 C          -1.7566   -3.2284    0.7045 C.1     1  LIG1        0.1026
     20 N          -5.6250   -4.0890    1.2472 N.1     1  LIG1       -0.1908
     21 C          -4.9024   -3.2302    0.9653 C.1     1  LIG1        0.1026
     22 C          -5.8286   -0.2945    0.3533 C.ar    1  LIG1        0.0835
     23 C          -6.2555    0.9949    0.6281 C.ar    1  LIG1        0.0964
     24 C          -7.6762    0.9968    0.5246 C.ar    1  LIG1        0.0964
     25 C          -8.0726   -0.2923    0.1902 C.ar    1  LIG1        0.0835
     26 N          -6.9398   -1.0480    0.0956 N.ar    1  LIG1       -0.3497
     27 H          -6.9271   -2.0349   -0.1426 H       1  LIG1        0.1661
     28 N          -4.6925    2.9392    1.2694 N.1     1  LIG1       -0.1908
     29 C          -5.4162    2.0823    0.9843 C.1     1  LIG1        0.1026
     30 N          -9.3658    2.9005    0.9012 N.1     1  LIG1       -0.1908
     31 C          -8.5629    2.0823    0.7350 C.1     1  LIG1        0.1026
     32 C          -9.3962   -0.8244   -0.0521 C.ar    1  LIG1        0.0831
     33 C          -9.7878   -2.0585   -0.5530 C.ar    1  LIG1        0.0957
     34 C         -11.2149   -2.0666   -0.6032 C.ar    1  LIG1        0.0870
     35 C         -11.6361   -0.8425   -0.1368 C.ar    1  LIG1        0.0210
     36 N         -10.5400   -0.1115    0.1890 N.ar    1  LIG1       -0.3573
     37 H         -10.5632    0.8366    0.5437 H       1  LIG1        0.1655
     38 H         -12.6355   -0.4546   -0.0193 H       1  LIG1        0.0820
     39 N          -8.0904   -3.8542   -1.2746 N.1     1  LIG1       -0.1908
     40 C          -8.8937   -3.0815   -0.9597 C.1     1  LIG1        0.1026
     41 N         -12.7285   -3.9867   -1.4198 N.1     1  LIG1       -0.1908
     42 C         -12.0479   -3.1269   -1.0531 C.1     1  LIG1        0.1020
@<TRIPOS>BOND
     1     8     9    3
     2    41    42    3
     3    39    40    3
     4    10    11    3
     5     9     2    1
     6    42    34    1
     7    40    33    1
     8    11     3    1
     9     2     3   ar
    10     2     1   ar
    11    34    33   ar
    12    34    35   ar
    13     3     4   ar
    14    33    32   ar
    15     1     7    1
    16     1     5   ar
    17    27    26    1
    18    17    16    1
    19    35    38    1
    20    35    36   ar
    21     4     5   ar
    22     4    12    1
    23    32    36   ar
    24    32    25    1
    25    16    12   ar
    26    16    15   ar
    27    26    25   ar
    28    26    22   ar
    29     5     6    1
    30    12    13   ar
    31    36    37    1
    32    25    24   ar
    33    15    22    1
    34    15    14   ar
    35    22    23   ar
    36    13    14   ar
    37    13    19    1
    38    24    23   ar
    39    24    31    1
    40    14    21    1
    41    23    29    1
    42    19    18    3
    43    31    30    3
    44    21    20    3
    45    29    28    3
