@<TRIPOS>MOLECULE
mol_data/opt/cam/geoms/mol2/13dd13dd-13dd-13dd.out
 42 45 0 0 0
SMALL
GASTEIGER

@<TRIPOS>ATOM
      1 C           1.3558   -0.4558   -0.0988 C.ar    1  LIG1        0.0210
      2 C           0.9914    0.7179   -0.7169 C.ar    1  LIG1        0.0870
      3 C          -0.4363    0.7522   -0.7245 C.ar    1  LIG1        0.0957
      4 C          -0.8852   -0.4080   -0.1068 C.ar    1  LIG1        0.0831
      5 N           0.2254   -1.1174    0.2599 N.ar    1  LIG1       -0.3573
      6 H           0.2048   -2.0141    0.7307 H       1  LIG1        0.1655
      7 H           2.3374   -0.8537    0.1044 H       1  LIG1        0.0820
      8 N           2.5866    2.4999   -1.6783 N.1     1  LIG1       -0.1908
      9 C           1.8712    1.7008   -1.2464 C.1     1  LIG1        0.1020
     10 N          -2.0922    2.4861   -1.6561 N.1     1  LIG1       -0.1908
     11 C          -1.2936    1.7476   -1.2568 C.1     1  LIG1        0.1026
     12 C          -2.2353   -0.8673    0.1411 C.ar    1  LIG1        0.0835
     13 C          -2.6919   -2.0470    0.7150 C.ar    1  LIG1        0.0964
     14 C          -4.1176   -2.0086    0.7084 C.ar    1  LIG1        0.0964
     15 C          -4.4857   -0.8101    0.1260 C.ar    1  LIG1        0.0835
     16 N          -3.3379   -0.1381   -0.1996 N.ar    1  LIG1       -0.3497
     17 H          -3.3056    0.7438   -0.7000 H       1  LIG1        0.1661
     18 N          -1.0699   -3.8355    1.6041 N.1     1  LIG1       -0.1908
     19 C          -1.8475   -3.0677    1.2199 C.1     1  LIG1        0.1026
     20 N          -5.6995   -3.7663    1.7320 N.1     1  LIG1       -0.1908
     21 C          -4.9919   -2.9818    1.2623 C.1     1  LIG1        0.1026
     22 C          -5.8005   -0.2475   -0.1217 C.ar    1  LIG1        0.0835
     23 C          -6.9215   -0.8084   -0.7047 C.ar    1  LIG1        0.0964
     24 C          -7.9337    0.1963   -0.7110 C.ar    1  LIG1        0.0964
     25 C          -7.3958    1.3409   -0.1363 C.ar    1  LIG1        0.0835
     26 N          -6.1071    1.0466    0.2046 N.ar    1  LIG1       -0.3497
     27 H          -5.4916    1.6787    0.7054 H       1  LIG1        0.1661
     28 N          -7.1004   -3.1658   -1.7295 N.1     1  LIG1       -0.1908
     29 C          -7.0216   -2.1125   -1.2593 C.1     1  LIG1        0.1026
     30 N         -10.3471    0.1351   -1.6007 N.1     1  LIG1       -0.1908
     31 C          -9.2550    0.1025   -1.2163 C.1     1  LIG1        0.1026
     32 C          -7.9960    2.6344    0.1122 C.ar    1  LIG1        0.0831
     33 C          -7.4669    3.7599    0.7306 C.ar    1  LIG1        0.0957
     34 C          -8.4775    4.7689    0.7234 C.ar    1  LIG1        0.0870
     35 C          -9.5779    4.2224    0.1046 C.ar    1  LIG1        0.0210
     36 N          -9.2759    2.9481   -0.2547 N.ar    1  LIG1       -0.3573
     37 H          -9.9101    2.3143   -0.7260 H       1  LIG1        0.1655
     38 H         -10.5434    4.6578   -0.0985 H       1  LIG1        0.0820
     39 N          -5.0695    3.7589    1.6628 N.1     1  LIG1       -0.1908
     40 C          -6.1550    3.8269    1.2632 C.1     1  LIG1        0.1026
     41 N          -8.2903    7.1527    1.6862 N.1     1  LIG1       -0.1908
     42 C          -8.3742    6.0837    1.2536 C.1     1  LIG1        0.1020
@<TRIPOS>BOND
     1    28    29    3
     2     8     9    3
     3    10    11    3
     4    30    31    3
     5    29    23    1
     6    11     3    1
     7     9     2    1
     8    31    24    1
     9    37    36    1
    10     3     2   ar
    11     3     4   ar
    12     2     1   ar
    13    24    23   ar
    14    24    25   ar
    15    23    22   ar
    16    17    16    1
    17    36    35   ar
    18    36    32   ar
    19    16    15   ar
    20    16    12   ar
    21    25    32    1
    22    25    26   ar
    23    22    15    1
    24    22    26   ar
    25     4    12    1
    26     4     5   ar
    27     1     7    1
    28     1     5   ar
    29    38    35    1
    30    35    34   ar
    31    32    33   ar
    32    15    14   ar
    33    12    13   ar
    34    26    27    1
    35     5     6    1
    36    14    13   ar
    37    14    21    1
    38    13    19    1
    39    34    33   ar
    40    34    42    1
    41    33    40    1
    42    19    18    3
    43    42    41    3
    44    21    20    3
    45    40    39    3
