@<TRIPOS>MOLECULE
mol_data/opt/cam/geoms/mol2/13dd13dd13dd13dd-.out
 42 45 0 0 0
SMALL
GASTEIGER

@<TRIPOS>ATOM
      1 C           1.1879   -0.4085    0.0944 C.ar    1  LIG1        0.0210
      2 C           0.8689    0.8161   -0.4436 C.ar    1  LIG1        0.0870
      3 C          -0.5587    0.8923   -0.5068 C.ar    1  LIG1        0.0957
      4 C          -1.0528   -0.2931    0.0047 C.ar    1  LIG1        0.0831
      5 N           0.0279   -1.0688    0.3513 N.ar    1  LIG1       -0.3573
      6 H          -0.0303   -1.9613    0.8203 H       1  LIG1        0.1655
      7 H           2.1528   -0.8391    0.3107 H       1  LIG1        0.0820
      8 N           2.5645    2.5972   -1.2185 N.1     1  LIG1       -0.1908
      9 C           1.7987    1.8038   -0.8713 C.1     1  LIG1        0.1020
     10 N          -1.9548    2.7967   -1.5395 N.1     1  LIG1       -0.1908
     11 C          -1.3282    1.9489   -1.0648 C.1     1  LIG1        0.1026
     12 C          -2.4107   -0.7760    0.1625 C.ar    1  LIG1        0.0835
     13 C          -3.5545   -0.1761    0.6561 C.ar    1  LIG1        0.0964
     14 C          -4.6040   -1.1488    0.6101 C.ar    1  LIG1        0.0964
     15 C          -4.0665   -2.3102    0.0900 C.ar    1  LIG1        0.0835
     16 N          -2.7376   -2.0670   -0.1602 N.ar    1  LIG1       -0.3497
     17 H          -2.1472   -2.6684   -0.7175 H       1  LIG1        0.1661
     18 N          -3.7160    2.1807    1.6862 N.1     1  LIG1       -0.1908
     19 C          -3.6460    1.1293    1.2109 C.1     1  LIG1        0.1026
     20 N          -6.9864   -0.8785    1.5547 N.1     1  LIG1       -0.1908
     21 C          -5.9215   -0.9914    1.1191 C.1     1  LIG1        0.1026
     22 C          -4.5937   -3.6449   -0.0998 C.ar    1  LIG1        0.0835
     23 C          -5.8033   -4.1508   -0.5449 C.ar    1  LIG1        0.0964
     24 C          -5.6796   -5.5753   -0.5481 C.ar    1  LIG1        0.0964
     25 C          -4.3984   -5.8907   -0.1186 C.ar    1  LIG1        0.0835
     26 N          -3.7712   -4.7098    0.1455 N.ar    1  LIG1       -0.3497
     27 H          -2.8541   -4.6348    0.5663 H       1  LIG1        0.1661
     28 N          -7.8412   -2.8245   -1.3960 N.1     1  LIG1       -0.1908
     29 C          -6.9270   -3.4105   -0.9994 C.1     1  LIG1        0.1026
     30 N          -7.3373   -7.4329   -1.1950 N.1     1  LIG1       -0.1908
     31 C          -6.6397   -6.5486   -0.9252 C.1     1  LIG1        0.1026
     32 C          -3.7216   -7.1584    0.0387 C.ar    1  LIG1        0.0831
     33 C          -2.3856   -7.4123    0.3321 C.ar    1  LIG1        0.0957
     34 C          -2.2168   -8.8311    0.3643 C.ar    1  LIG1        0.0870
     35 C          -3.4462   -9.3817    0.0876 C.ar    1  LIG1        0.0210
     36 N          -4.3344   -8.3698   -0.1036 N.ar    1  LIG1       -0.3573
     37 H          -5.3128   -8.4913   -0.3386 H       1  LIG1        0.1655
     38 H          -3.7386  -10.4173    0.0161 H       1  LIG1        0.0820
     39 N          -0.7491   -5.4567    0.6662 N.1     1  LIG1       -0.1908
     40 C          -1.4209   -6.3922    0.5294 C.1     1  LIG1        0.1026
     41 N          -0.0256  -10.1021    0.8408 N.1     1  LIG1       -0.1908
     42 C          -1.0113   -9.5368    0.6268 C.1     1  LIG1        0.1020
@<TRIPOS>BOND
     1    10    11    3
     2    28    29    3
     3     8     9    3
     4    30    31    3
     5    11     3    1
     6    29    23    1
     7    31    24    1
     8     9     2    1
     9    17    16    1
    10    24    23   ar
    11    24    25   ar
    12    23    22   ar
    13     3     2   ar
    14     3     4   ar
    15     2     1   ar
    16    37    36    1
    17    16    15   ar
    18    16    12   ar
    19    25    32    1
    20    25    26   ar
    21    36    32   ar
    22    36    35   ar
    23    22    15    1
    24    22    26   ar
    25     4    12    1
    26     4     5   ar
    27    38    35    1
    28    32    33   ar
    29    35    34   ar
    30    15    14   ar
    31     1     7    1
    32     1     5   ar
    33    26    27    1
    34    12    13   ar
    35    33    34   ar
    36    33    40    1
    37     5     6    1
    38    34    42    1
    39    40    39    3
    40    14    13   ar
    41    14    21    1
    42    42    41    3
    43    13    19    1
    44    21    20    3
    45    19    18    3
