@<TRIPOS>MOLECULE
mol_data/opt/cam/geoms/mol2/13dd13dd.out
 22 23 0 0 0
SMALL
GASTEIGER

@<TRIPOS>ATOM
      1 C           0.5468    0.7914   -1.2972 C.ar    1  LIG1        0.0210
      2 C           0.8794    0.9322    0.0292 C.ar    1  LIG1        0.0870
      3 C          -0.2370    0.4587    0.7863 C.ar    1  LIG1        0.0957
      4 C          -1.2089    0.0469   -0.1160 C.ar    1  LIG1        0.0830
      5 N          -0.7025    0.2618   -1.3683 N.ar    1  LIG1       -0.3573
      6 H          -1.1949    0.0532   -2.2287 H       1  LIG1        0.1655
      7 H           1.1146    1.0323   -2.1818 H       1  LIG1        0.0820
      8 N           3.0928    1.8704    0.9593 N.1     1  LIG1       -0.1908
      9 C           2.0999    1.4495    0.5419 C.1     1  LIG1        0.1020
     10 N          -0.5964    0.3058    3.3294 N.1     1  LIG1       -0.1908
     11 C          -0.3790    0.3982    2.1951 C.1     1  LIG1        0.1026
     12 C          -2.5248   -0.5111    0.1169 C.ar    1  LIG1        0.0830
     13 C          -3.4966   -0.9231   -0.7854 C.ar    1  LIG1        0.0957
     14 C          -4.6131   -1.3966   -0.0283 C.ar    1  LIG1        0.0870
     15 C          -4.2805   -1.2556    1.2982 C.ar    1  LIG1        0.0210
     16 N          -3.0312   -0.7260    1.3692 N.ar    1  LIG1       -0.3573
     17 H          -2.5390   -0.5172    2.2296 H       1  LIG1        0.1655
     18 H          -4.8483   -1.4965    2.1828 H       1  LIG1        0.0820
     19 N          -3.1370   -0.7705   -3.3285 N.1     1  LIG1       -0.1908
     20 C          -3.3546   -0.8628   -2.1942 C.1     1  LIG1        0.1026
     21 N          -6.8264   -2.3349   -0.9584 N.1     1  LIG1       -0.1908
     22 C          -5.8335   -1.9140   -0.5410 C.1     1  LIG1        0.1020
@<TRIPOS>BOND
     1    19    20    3
     2     6     5    1
     3    20    13    1
     4     7     1    1
     5     5     1   ar
     6     5     4   ar
     7     1     2   ar
     8    21    22    3
     9    13    14   ar
    10    13    12   ar
    11    22    14    1
    12     4    12    1
    13     4     3   ar
    14    14    15   ar
    15     2     9    1
    16     2     3   ar
    17    12    16   ar
    18     9     8    3
    19     3    11    1
    20    15    16   ar
    21    15    18    1
    22    16    17    1
    23    11    10    3
