@<TRIPOS>MOLECULE
mol_data/opt/cam/geoms/mol2/13dd4ll4ee13ae-.out
 51 54 0 0 0
SMALL
GASTEIGER

@<TRIPOS>ATOM
      1 C           0.6537    0.1797   -1.6220 C.ar    1  LIG1        0.0197
      2 C           0.4118    1.4184   -1.0400 C.ar    1  LIG1        0.0697
      3 C          -0.7576    1.2930   -0.2290 C.ar    1  LIG1       -0.0160
      4 C          -1.1934   -0.0156   -0.3402 C.ar    1  LIG1        0.0834
      5 N          -0.3192   -0.6693   -1.1902 N.ar    1  LIG1       -0.3571
      6 H          -0.4194   -1.6388   -1.4480 H       1  LIG1        0.1655
      7 H           1.4358   -0.1338   -2.2954 H       1  LIG1        0.0820
      8 N           1.8374    3.5478   -1.3802 N.1     1  LIG1       -0.1908
      9 C           1.1977    2.5868   -1.2290 C.1     1  LIG1        0.1007
     10 H          -1.2108    2.0746    0.3614 H       1  LIG1        0.0653
     11 C          -2.3122   -0.7108    0.2433 C.ar    1  LIG1        0.1520
     12 C          -3.3508   -0.3419    1.0545 C.ar    1  LIG1       -0.0109
     13 C          -4.1491   -1.5062    1.2779 C.ar    1  LIG1       -0.0041
     14 C          -3.5466   -2.5295    0.5755 C.ar    1  LIG1        0.1387
     15 O          -2.4175   -2.0426   -0.0539 O.2     1  LIG1       -0.4531
     16 H          -3.5293    0.6451    1.4575 H       1  LIG1        0.0659
     17 C          -5.3723   -1.5629    2.1457 C.3     1  LIG1       -0.0361
     18 H          -5.4563   -2.5240    2.6601 H       1  LIG1        0.0279
     19 H          -6.2933   -1.4167    1.5680 H       1  LIG1        0.0279
     20 H          -5.3381   -0.7756    2.9043 H       1  LIG1        0.0279
     21 C          -5.1220   -4.4665    0.5719 C.ar    1  LIG1       -0.0504
     22 C          -5.3481   -5.8269    0.4072 C.ar    1  LIG1       -0.0515
     23 C          -3.8244   -3.9495    0.3999 C.ar    1  LIG1        0.0193
     24 C          -4.3267   -6.7248    0.0706 C.ar    1  LIG1        0.0064
     25 H          -6.3534   -6.2156    0.5289 H       1  LIG1        0.0624
     26 C          -2.7944   -4.8326    0.0475 C.ar    1  LIG1       -0.0298
     27 C          -3.0207   -6.2056   -0.1216 C.ar    1  LIG1        0.0331
     28 H          -1.7875   -4.4483   -0.0836 H       1  LIG1        0.0643
     29 H          -5.9518   -3.8089    0.7985 H       1  LIG1        0.0625
     30 N          -1.9441   -7.0383   -0.4299 N.pl3   1  LIG1       -0.3575
     31 H          -2.1915   -7.9225   -0.8530 H       1  LIG1        0.1423
     32 H          -1.1784   -6.5812   -0.9049 H       1  LIG1        0.1423
     33 C          -5.6333   -8.6603   -0.9304 C.ar    1  LIG1        0.1280
     34 C          -5.8894  -10.0282   -1.0106 C.ar    1  LIG1       -0.0159
     35 C          -4.6149   -8.1815   -0.0650 C.ar    1  LIG1        0.0290
     36 C          -5.1551  -10.9475   -0.2503 C.ar    1  LIG1       -0.0165
     37 H          -6.6626  -10.4043   -1.6695 H       1  LIG1        0.0655
     38 C          -3.8932   -9.1150    0.6821 C.ar    1  LIG1       -0.0087
     39 C          -4.1501  -10.4908    0.6000 C.ar    1  LIG1        0.1209
     40 H          -3.1141   -8.7783    1.3575 H       1  LIG1        0.0661
     41 H          -5.3833  -12.0028   -0.3389 H       1  LIG1        0.0655
     42 O          -6.3076   -7.7152   -1.6580 O.3     1  LIG1       -0.4945
     43 C          -7.3127   -8.1499   -2.5563 C.3     1  LIG1        0.0788
     44 H          -7.7042   -7.2478   -3.0288 H       1  LIG1        0.0660
     45 H          -6.9067   -8.8147   -3.3303 H       1  LIG1        0.0660
     46 H          -8.1296   -8.6674   -2.0361 H       1  LIG1        0.0660
     47 O          -3.3666  -11.2873    1.3922 O.3     1  LIG1       -0.4951
     48 C          -3.5999  -12.6845    1.3629 C.3     1  LIG1        0.0788
     49 H          -2.8847  -13.1259    2.0587 H       1  LIG1        0.0660
     50 H          -4.6187  -12.9339    1.6878 H       1  LIG1        0.0660
     51 H          -3.4334  -13.1044    0.3618 H       1  LIG1        0.0660
@<TRIPOS>BOND
     1    45    43    1
     2    44    43    1
     3    43    46    1
     4    43    42    1
     5     7     1    1
     6    37    34    1
     7    42    33    1
     8     1     5   ar
     9     1     2   ar
    10     6     5    1
    11     8     9    3
    12     9     2    1
    13     5     4   ar
    14     2     3   ar
    15    34    33   ar
    16    34    36   ar
    17    33    35   ar
    18    32    30    1
    19    31    30    1
    20    30    27    1
    21     4     3   ar
    22     4    11    1
    23    41    36    1
    24    36    39   ar
    25     3    10    1
    26    27    26   ar
    27    27    24   ar
    28    28    26    1
    29    35    24    1
    30    35    38   ar
    31    15    11   ar
    32    15    14   ar
    33    26    23   ar
    34    24    22   ar
    35    11    12   ar
    36    51    48    1
    37    23    21   ar
    38    23    14    1
    39    22    25    1
    40    22    21   ar
    41    21    29    1
    42    14    13   ar
    43    39    38   ar
    44    39    47    1
    45    38    40    1
    46    12    13   ar
    47    12    16    1
    48    13    17    1
    49    48    47    1
    50    48    50    1
    51    48    49    1
    52    19    17    1
    53    17    18    1
    54    17    20    1
