@<TRIPOS>MOLECULE
mol_data/opt/cam/geoms/mol2/13dd6ii6ee6if-.out
 53 56 0 0 0
SMALL
GASTEIGER

@<TRIPOS>ATOM
      1 C           0.8757    0.7780   -1.4221 C.ar    1  LIG1        0.0209
      2 C           0.9993    1.0551   -0.0831 C.ar    1  LIG1        0.0870
      3 C          -0.1602    0.5158    0.5649 C.ar    1  LIG1        0.0943
      4 C          -0.9501   -0.0735   -0.4096 C.ar    1  LIG1        0.0671
      5 N          -0.2921    0.1018   -1.5981 N.ar    1  LIG1       -0.3584
      6 H          -0.6506   -0.2028   -2.4889 H       1  LIG1        0.1654
      7 H           1.5331    1.0149   -2.2433 H       1  LIG1        0.0820
      8 N           2.9693    2.3026    1.0169 N.1     1  LIG1       -0.1908
      9 C           2.0834    1.7419    0.5285 C.1     1  LIG1        0.1020
     10 N          -0.6824    0.6022    3.0876 N.1     1  LIG1       -0.1908
     11 C          -0.4405    0.5599    1.9567 C.1     1  LIG1        0.1026
     12 C          -2.5920   -1.8977   -1.0237 C.ar    1  LIG1        0.0480
     13 C          -2.2543   -0.7394   -0.3009 C.ar    1  LIG1        0.0209
     14 C          -3.2076   -0.2229    0.5763 C.ar    1  LIG1       -0.0459
     15 C          -4.4540   -0.8162    0.7214 C.ar    1  LIG1       -0.0237
     16 C          -4.6998   -1.9446   -0.0725 C.ar    1  LIG1        0.0769
     17 N          -3.7916   -2.4598   -0.9013 N.ar    1  LIG1       -0.2509
     18 H          -2.9699    0.6573    1.1642 H       1  LIG1        0.0628
     19 C          -1.6469   -2.6064   -1.9597 C.3     1  LIG1       -0.0217
     20 H          -0.6148   -2.5849   -1.6037 H       1  LIG1        0.0293
     21 H          -1.6722   -2.1742   -2.9679 H       1  LIG1        0.0293
     22 H          -1.9724   -3.6417   -2.0551 H       1  LIG1        0.0293
     23 C          -5.4584   -0.2654    1.6975 C.3     1  LIG1       -0.0377
     24 H          -5.9672   -1.0654    2.2391 H       1  LIG1        0.0278
     25 H          -6.2299    0.3277    1.1970 H       1  LIG1        0.0278
     26 H          -4.9673    0.3808    2.4274 H       1  LIG1        0.0278
     27 C          -6.1196   -3.9891    0.3925 C.ar    1  LIG1        0.1230
     28 C          -6.0082   -2.6575   -0.0437 C.ar    1  LIG1        0.0356
     29 C          -7.1693   -2.0366   -0.4738 C.ar    1  LIG1       -0.0324
     30 C          -8.3846   -2.7236   -0.4916 C.ar    1  LIG1        0.0514
     31 C          -8.3846   -4.0672   -0.0635 C.ar    1  LIG1        0.0896
     32 N          -7.2758   -4.6579    0.3747 N.ar    1  LIG1       -0.2365
     33 H          -7.1427   -1.0064   -0.8119 H       1  LIG1        0.0638
     34 C          -4.9853   -4.6956    0.9187 C.1     1  LIG1       -0.0491
     35 C          -4.0481   -5.2868    1.3857 C.1     1  LIG1       -0.1124
     36 H          -3.2198   -5.8161    1.7980 H       1  LIG1        0.1232
     37 C          -9.5678   -2.0418   -0.9152 C.1     1  LIG1       -0.0675
     38 C         -10.5383   -1.4255   -1.2715 C.1     1  LIG1       -0.1138
     39 H         -11.4094   -0.8967   -1.5845 H       1  LIG1        0.1232
     40 C         -10.0490   -5.6103    1.0539 C.ar    1  LIG1        0.0476
     41 C          -9.6126   -4.9080   -0.0875 C.ar    1  LIG1        0.0260
     42 C         -10.3317   -5.0320   -1.2683 C.ar    1  LIG1       -0.0077
     43 C         -11.4534   -5.8495   -1.2981 C.ar    1  LIG1        0.1355
     44 C         -11.8100   -6.5067   -0.1287 C.ar    1  LIG1        0.0693
     45 N         -11.1325   -6.3847    1.0087 N.ar    1  LIG1       -0.2559
     46 H         -10.0317   -4.5105   -2.1698 H       1  LIG1        0.0662
     47 H         -12.6840   -7.1590   -0.1101 H       1  LIG1        0.0867
     48 C          -9.3487   -5.5249    2.3825 C.3     1  LIG1       -0.0217
     49 H          -9.1580   -4.4881    2.6740 H       1  LIG1        0.0293
     50 H          -8.3809   -6.0296    2.3486 H       1  LIG1        0.0293
     51 H          -9.9767   -5.9979    3.1371 H       1  LIG1        0.0293
     52 O         -12.1428   -5.9668   -2.4641 O.3     1  LIG1       -0.5052
     53 H         -12.8796   -6.5769   -2.3388 H       1  LIG1        0.2922
@<TRIPOS>BOND
     1    21    19    1
     2     6     5    1
     3    52    53    1
     4    52    43    1
     5     7     1    1
     6    46    42    1
     7    22    19    1
     8    19    20    1
     9    19    12    1
    10     5     1   ar
    11     5     4   ar
    12    39    38    1
    13     1     2   ar
    14    43    42   ar
    15    43    44   ar
    16    38    37    3
    17    42    41   ar
    18    12    17   ar
    19    12    13   ar
    20    37    30    1
    21    17    16   ar
    22    33    29    1
    23    30    29   ar
    24    30    31   ar
    25    29    28   ar
    26     4    13    1
    27     4     3   ar
    28    13    14   ar
    29    44    47    1
    30    44    45   ar
    31    41    31    1
    32    41    40   ar
    33     2     9    1
    34     2     3   ar
    35    16    28    1
    36    16    15   ar
    37    31    32   ar
    38    28    27   ar
    39    32    27   ar
    40    27    34    1
    41     9     8    3
    42     3    11    1
    43    14    15   ar
    44    14    18    1
    45    15    23    1
    46    34    35    3
    47    45    40   ar
    48    40    48    1
    49    25    23    1
    50    35    36    1
    51    23    24    1
    52    23    26    1
    53    11    10    3
    54    50    48    1
    55    48    49    1
    56    48    51    1
