@<TRIPOS>MOLECULE
mol_data/opt/cam/geoms/mol2/13dd.out
 12 12 0 0 0
SMALL
GASTEIGER

@<TRIPOS>ATOM
      1 C           1.1188   -0.3789   -0.0001 C.ar    1  LIG1        0.0205
      2 C           0.7193    0.9362    0.0001 C.ar    1  LIG1        0.0863
      3 C          -0.7162    0.9385    0.0004 C.ar    1  LIG1        0.0863
      4 C          -1.1200   -0.3753    0.0002 C.ar    1  LIG1        0.0205
      5 N          -0.0018   -1.1539   -0.0000 N.ar    1  LIG1       -0.3648
      6 H          -0.0035   -2.1614   -0.0002 H       1  LIG1        0.1648
      7 H          -2.1133   -0.7948    0.0003 H       1  LIG1        0.0820
      8 H           2.1108   -0.8016   -0.0003 H       1  LIG1        0.0820
      9 N           2.2917    2.9794    0.0001 N.1     1  LIG1       -0.1908
     10 C           1.5816    2.0666    0.0001 C.1     1  LIG1        0.1019
     11 N          -2.2822    2.9867    0.0010 N.1     1  LIG1       -0.1908
     12 C          -1.5749    2.0717    0.0007 C.1     1  LIG1        0.1019
@<TRIPOS>BOND
     1     8     1    1
     2     6     5    1
     3     1     5   ar
     4     1     2   ar
     5     5     4   ar
     6     2    10    1
     7     2     3   ar
     8    10     9    3
     9     4     7    1
    10     4     3   ar
    11     3    12    1
    12    12    11    3
