@<TRIPOS>MOLECULE
mol_data/opt/cam/geoms/mol2/13dd13dd-4dd13dd.out
 44 47 0 0 0
SMALL
GASTEIGER

@<TRIPOS>ATOM
      1 C           1.3966   -0.3975    0.0841 C.ar    1  LIG1        0.0210
      2 C           1.0161    0.8029    0.6381 C.ar    1  LIG1        0.0870
      3 C          -0.4119    0.8253    0.6328 C.ar    1  LIG1        0.0957
      4 C          -0.8448   -0.3680    0.0706 C.ar    1  LIG1        0.0831
      5 N           0.2754   -1.0862   -0.2500 N.ar    1  LIG1       -0.3573
      6 H           0.2670   -2.0091   -0.6664 H       1  LIG1        0.1655
      7 H           2.3835   -0.7962   -0.0900 H       1  LIG1        0.0820
      8 N           2.5924    2.6390    1.5261 N.1     1  LIG1       -0.1908
      9 C           1.8843    1.8169    1.1266 C.1     1  LIG1        0.1020
     10 N          -2.0585    2.6019    1.5027 N.1     1  LIG1       -0.1908
     11 C          -1.2739    1.8388    1.1237 C.1     1  LIG1        0.1026
     12 C          -2.1867   -0.8581   -0.1606 C.ar    1  LIG1        0.0835
     13 C          -2.6243   -2.1081   -0.5788 C.ar    1  LIG1        0.0964
     14 C          -4.0481   -2.0693   -0.6235 C.ar    1  LIG1        0.0950
     15 C          -4.4385   -0.7961   -0.2369 C.ar    1  LIG1        0.0671
     16 N          -3.2980   -0.0924    0.0340 N.ar    1  LIG1       -0.3509
     17 H          -3.2718    0.8757    0.3354 H       1  LIG1        0.1660
     18 N          -0.9918   -4.0113   -1.1563 N.1     1  LIG1       -0.1908
     19 C          -1.7705   -3.1916   -0.9039 C.1     1  LIG1        0.1026
     20 N          -5.6073   -3.9986   -1.3215 N.1     1  LIG1       -0.1908
     21 C          -4.9023   -3.1334   -1.0168 C.1     1  LIG1        0.1026
     22 C          -6.1092    1.0921   -0.4569 C.ar    1  LIG1        0.0616
     23 C          -7.4065    1.5767   -0.3263 C.ar    1  LIG1       -0.0333
     24 C          -5.7883   -0.2365   -0.1131 C.ar    1  LIG1        0.0182
     25 C          -8.4530    0.7699    0.1265 C.ar    1  LIG1        0.0182
     26 H          -7.5927    2.6080   -0.5936 H       1  LIG1        0.0637
     27 C          -6.8224   -1.0404    0.3552 C.ar    1  LIG1       -0.0333
     28 C          -8.1251   -0.5595    0.4704 C.ar    1  LIG1        0.0616
     29 H          -6.6235   -2.0652    0.6425 H       1  LIG1        0.0637
     30 N          -4.2753    2.6883   -1.3553 N.1     1  LIG1       -0.1908
     31 C          -5.1041    1.9847   -0.9615 C.1     1  LIG1        0.0998
     32 N          -9.9129   -2.1711    1.4301 N.1     1  LIG1       -0.1908
     33 C          -9.1103   -1.4689    0.9810 C.1     1  LIG1        0.0998
     34 C          -9.8059    1.3296    0.2165 C.ar    1  LIG1        0.0666
     35 C         -10.3713    2.4021   -0.4668 C.ar    1  LIG1        0.0943
     36 C         -11.7163    2.5456   -0.0105 C.ar    1  LIG1        0.0870
     37 C         -11.9272    1.5626    0.9279 C.ar    1  LIG1        0.0209
     38 N         -10.7827    0.8486    1.0516 N.ar    1  LIG1       -0.3584
     39 H         -10.6853    0.0412    1.6510 H       1  LIG1        0.1654
     40 H         -12.8094    1.3315    1.5037 H       1  LIG1        0.0820
     41 N          -9.2502    3.8549   -2.2766 N.1     1  LIG1       -0.1908
     42 C          -9.7594    3.2028   -1.4676 C.1     1  LIG1        0.1026
     43 N         -13.4441    4.2943   -0.7869 N.1     1  LIG1       -0.1908
     44 C         -12.6664    3.5113   -0.4418 C.1     1  LIG1        0.1020
@<TRIPOS>BOND
     1    41    42    3
     2    42    35    1
     3    30    31    3
     4    20    21    3
     5    18    19    3
     6    21    14    1
     7    31    22    1
     8    19    13    1
     9    43    44    3
    10     6     5    1
    11    14    13   ar
    12    14    15   ar
    13    26    23    1
    14    13    12   ar
    15    35    36   ar
    16    35    34   ar
    17    22    23   ar
    18    22    24   ar
    19    44    36    1
    20    23    25   ar
    21     5     4   ar
    22     5     1   ar
    23    15    24    1
    24    15    16   ar
    25    12    16   ar
    26    12     4    1
    27    24    27   ar
    28     7     1    1
    29    36    37   ar
    30    16    17    1
    31     4     3   ar
    32     1     2   ar
    33    25    34    1
    34    25    28   ar
    35    34    38   ar
    36    27    28   ar
    37    27    29    1
    38    28    33    1
    39     3     2   ar
    40     3    11    1
    41     2     9    1
    42    37    38   ar
    43    37    40    1
    44    33    32    3
    45    38    39    1
    46    11    10    3
    47     9     8    3
