@<TRIPOS>MOLECULE
mol_data/opt/cam/geoms/mol2/13dd6eh13el6ii-.out
 54 57 0 0 0
SMALL
GASTEIGER

@<TRIPOS>ATOM
      1 C           1.4666   -0.4237   -0.1940 C.ar    1  LIG1        0.0209
      2 C           1.1496    0.9130   -0.2228 C.ar    1  LIG1        0.0870
      3 C          -0.2790    1.0020   -0.2379 C.ar    1  LIG1        0.0944
      4 C          -0.7812   -0.2961   -0.2210 C.ar    1  LIG1        0.0681
      5 N           0.3066   -1.1259   -0.1956 N.ar    1  LIG1       -0.3584
      6 H           0.2270   -2.1326   -0.1280 H       1  LIG1        0.1654
      7 H           2.4304   -0.9068   -0.1714 H       1  LIG1        0.0820
      8 N           2.8354    2.8633   -0.2365 N.1     1  LIG1       -0.1908
      9 C           2.0749    1.9917   -0.2303 C.1     1  LIG1        0.1020
     10 N          -1.6233    3.2007   -0.2606 N.1     1  LIG1       -0.1908
     11 C          -1.0167    2.2147   -0.2450 C.1     1  LIG1        0.1026
     12 C          -2.5483   -2.0882    0.1502 C.ar    1  LIG1        0.1231
     13 C          -2.1636   -0.7870   -0.2413 C.ar    1  LIG1        0.0352
     14 C          -3.1822    0.0509   -0.6777 C.ar    1  LIG1       -0.0271
     15 C          -4.5225   -0.3428   -0.6965 C.ar    1  LIG1        0.0531
     16 C          -4.8101   -1.6485   -0.2188 C.ar    1  LIG1        0.1104
     17 N          -3.8252   -2.4658    0.1502 N.ar    1  LIG1       -0.2344
     18 H          -2.9447    1.0438   -1.0382 H       1  LIG1        0.0644
     19 C          -1.6273   -3.1045    0.5823 C.1     1  LIG1       -0.0491
     20 C          -0.8774   -3.9812    0.9325 C.1     1  LIG1       -0.1124
     21 H          -0.2412   -4.7671    1.2720 H       1  LIG1        0.1232
     22 N          -5.4573    0.4894   -1.2378 N.pl3   1  LIG1       -0.3563
     23 H          -5.1704    1.4411   -1.4067 H       1  LIG1        0.1424
     24 H          -6.4321    0.3801   -0.9978 H       1  LIG1        0.1424
     25 C          -6.1373   -2.2782   -0.1582 C.ar    1  LIG1        0.0865
     26 C          -7.4679   -1.8584   -0.0593 C.ar    1  LIG1        0.0937
     27 C          -8.2624   -3.0410   -0.0070 C.ar    1  LIG1        0.1613
     28 C          -7.4274   -4.1422   -0.0528 C.ar    1  LIG1        0.0922
     29 N          -6.1569   -3.6394   -0.1479 N.ar    1  LIG1       -0.3489
     30 H          -5.2918   -4.1585   -0.1576 H       1  LIG1        0.1661
     31 C          -8.0134   -0.5540    0.0577 C.1     1  LIG1       -0.0638
     32 C          -8.5146    0.5381    0.1664 C.1     1  LIG1       -0.1137
     33 H          -8.9597    1.5003    0.2769 H       1  LIG1        0.1232
     34 O          -9.6221   -3.0738    0.0548 O.3     1  LIG1       -0.4917
     35 C         -10.1582   -2.8421    1.3538 C.3     1  LIG1        0.0789
     36 H         -11.2431   -2.8914    1.2559 H       1  LIG1        0.0660
     37 H          -9.8191   -3.6091    2.0587 H       1  LIG1        0.0660
     38 H          -9.8726   -1.8540    1.7269 H       1  LIG1        0.0660
     39 C          -6.9366   -6.5708    0.5003 C.ar    1  LIG1        0.0474
     40 C          -7.7605   -5.5709   -0.0573 C.ar    1  LIG1        0.0232
     41 C          -8.9681   -5.9715   -0.6327 C.ar    1  LIG1       -0.0464
     42 C          -9.3335   -7.3113   -0.6616 C.ar    1  LIG1       -0.0317
     43 C          -8.4345   -8.2104   -0.0987 C.ar    1  LIG1        0.0308
     44 N          -7.2827   -7.8580    0.4655 N.ar    1  LIG1       -0.2592
     45 H          -9.6230   -5.2167   -1.0542 H       1  LIG1        0.0628
     46 H          -8.6599   -9.2757   -0.0973 H       1  LIG1        0.0832
     47 C          -5.6260   -6.2834    1.1868 C.3     1  LIG1       -0.0217
     48 H          -5.6666   -5.3847    1.8065 H       1  LIG1        0.0293
     49 H          -4.8068   -6.1603    0.4677 H       1  LIG1        0.0293
     50 H          -5.3724   -7.1394    1.8115 H       1  LIG1        0.0293
     51 C         -10.6292   -7.7672   -1.2731 C.3     1  LIG1       -0.0383
     52 H         -10.7122   -8.8561   -1.2539 H       1  LIG1        0.0278
     53 H         -10.7135   -7.4423   -2.3141 H       1  LIG1        0.0278
     54 H         -11.4887   -7.3569   -0.7346 H       1  LIG1        0.0278
@<TRIPOS>BOND
     1    53    51    1
     2    23    22    1
     3    51    52    1
     4    51    54    1
     5    51    42    1
     6    22    24    1
     7    22    15    1
     8    45    41    1
     9    18    14    1
    10    15    14   ar
    11    15    16   ar
    12    14    13   ar
    13    42    41   ar
    14    42    43   ar
    15    41    40   ar
    16    10    11    3
    17    11     3    1
    18    13     4    1
    19    13    12   ar
    20     3     2   ar
    21     3     4   ar
    22     8     9    3
    23     9     2    1
    24     2     1   ar
    25     4     5   ar
    26    16    25    1
    27    16    17   ar
    28     5     1   ar
    29     5     6    1
    30     1     7    1
    31    25    29   ar
    32    25    26   ar
    33    30    29    1
    34    29    28   ar
    35    43    46    1
    36    43    44   ar
    37    26    27   ar
    38    26    31    1
    39    40    28    1
    40    40    39   ar
    41    28    27   ar
    42    27    34    1
    43    34    35    1
    44    31    32    3
    45    12    17   ar
    46    12    19    1
    47    32    33    1
    48    44    39   ar
    49    49    47    1
    50    39    47    1
    51    19    20    3
    52    20    21    1
    53    47    48    1
    54    47    50    1
    55    36    35    1
    56    35    38    1
    57    35    37    1
