@<TRIPOS>MOLECULE
mol_data/opt/cam/geoms/mol2/13dd13dd13dd13dd.out
 42 45 0 0 0
SMALL
GASTEIGER

@<TRIPOS>ATOM
      1 C          -0.6966    2.5150   -0.9045 C.ar    1  LIG1        0.0210
      2 C          -0.4075    1.8356   -2.0655 C.ar    1  LIG1        0.0870
      3 C          -0.9429    0.5199   -1.9179 C.ar    1  LIG1        0.0957
      4 C          -1.5424    0.4528   -0.6676 C.ar    1  LIG1        0.0831
      5 N          -1.3746    1.6777   -0.0793 N.ar    1  LIG1       -0.3573
      6 H          -1.6961    1.9186    0.8501 H       1  LIG1        0.1655
      7 H          -0.4633    3.5292   -0.6213 H       1  LIG1        0.0820
      8 N           0.8697    2.7724   -4.0992 N.1     1  LIG1       -0.1908
      9 C           0.2959    2.3506   -3.1883 C.1     1  LIG1        0.1020
     10 N          -0.8531   -1.4983   -3.5132 N.1     1  LIG1       -0.1908
     11 C          -0.8710   -0.5603   -2.8340 C.1     1  LIG1        0.1026
     12 C          -2.2208   -0.6463   -0.0150 C.ar    1  LIG1        0.0835
     13 C          -2.6653   -0.7688    1.2958 C.ar    1  LIG1        0.0964
     14 C          -3.2486   -2.0614    1.4312 C.ar    1  LIG1        0.0964
     15 C          -3.1419   -2.6877    0.1997 C.ar    1  LIG1        0.0835
     16 N          -2.5226   -1.8154   -0.6516 N.ar    1  LIG1       -0.3497
     17 H          -2.3073   -2.0109   -1.6244 H       1  LIG1        0.1661
     18 N          -2.4331    1.1359    3.0100 N.1     1  LIG1       -0.1908
     19 C          -2.5551    0.2441    2.2809 C.1     1  LIG1        0.1026
     20 N          -4.3777   -3.1015    3.4995 N.1     1  LIG1       -0.1908
     21 C          -3.8658   -2.6114    2.5845 C.1     1  LIG1        0.1026
     22 C          -3.5974   -3.9954   -0.2196 C.ar    1  LIG1        0.0835
     23 C          -3.9976   -4.4392   -1.4699 C.ar    1  LIG1        0.0964
     24 C          -4.3814   -5.8036   -1.3270 C.ar    1  LIG1        0.0964
     25 C          -4.2039   -6.1502    0.0068 C.ar    1  LIG1        0.0835
     26 N          -3.7329   -5.0420    0.6496 N.ar    1  LIG1       -0.3497
     27 H          -3.5066   -5.0055    1.6387 H       1  LIG1        0.1661
     28 N          -4.0674   -2.9673   -3.5824 N.1     1  LIG1       -0.1908
     29 C          -4.0461   -3.6494   -2.6478 C.1     1  LIG1        0.1026
     30 N          -5.3039   -7.4598   -3.0668 N.1     1  LIG1       -0.1908
     31 C          -4.8773   -6.6776   -2.3264 C.1     1  LIG1        0.1026
     32 C          -4.4254   -7.4138    0.6763 C.ar    1  LIG1        0.0831
     33 C          -4.0895   -7.8177    1.9613 C.ar    1  LIG1        0.0957
     34 C          -4.5257   -9.1691    2.1126 C.ar    1  LIG1        0.0870
     35 C          -5.1044   -9.5361    0.9195 C.ar    1  LIG1        0.0210
     36 N          -5.0381   -8.4785    0.0716 N.ar    1  LIG1       -0.3573
     37 H          -5.3776   -8.4814   -0.8823 H       1  LIG1        0.1655
     38 H          -5.5526  -10.4728    0.6284 H       1  LIG1        0.0820
     39 N          -2.8396   -6.2819    3.6061 N.1     1  LIG1       -0.1908
     40 C          -3.4063   -7.0095    2.9053 C.1     1  LIG1        0.1026
     41 N          -4.2743  -10.6564    4.2030 N.1     1  LIG1       -0.1908
     42 C          -4.3869   -9.9874    3.2666 C.1     1  LIG1        0.1020
@<TRIPOS>BOND
     1     8     9    3
     2    28    29    3
     3    10    11    3
     4     9     2    1
     5    30    31    3
     6    11     3    1
     7    29    23    1
     8    31    24    1
     9     2     3   ar
    10     2     1   ar
    11     3     4   ar
    12    17    16    1
    13    23    24   ar
    14    23    22   ar
    15    24    25   ar
    16     1     7    1
    17     1     5   ar
    18    37    36    1
    19     4     5   ar
    20     4    12    1
    21    16    12   ar
    22    16    15   ar
    23    22    15    1
    24    22    26   ar
    25     5     6    1
    26    12    13   ar
    27    25    26   ar
    28    25    32    1
    29    36    32   ar
    30    36    35   ar
    31    15    14   ar
    32    38    35    1
    33    26    27    1
    34    32    33   ar
    35    35    34   ar
    36    13    14   ar
    37    13    19    1
    38    14    21    1
    39    33    34   ar
    40    33    40    1
    41    34    42    1
    42    19    18    3
    43    21    20    3
    44    40    39    3
    45    42    41    3
