@<TRIPOS>MOLECULE
mol_data/opt/cam/geoms/mol2/13de13if-4de-4ef.out
 51 54 0 0 0
SMALL
GASTEIGER

@<TRIPOS>ATOM
      1 C           0.9872    0.1189    1.3490 C.ar    1  LIG1        0.0209
      2 C           0.8894    1.0030    0.3016 C.ar    1  LIG1        0.0850
      3 C          -0.4269    0.8705   -0.2594 C.ar    1  LIG1        0.0687
      4 C          -1.0827   -0.0940    0.4843 C.ar    1  LIG1        0.0801
      5 N          -0.1991   -0.5402    1.4430 N.ar    1  LIG1       -0.3573
      6 H          -0.4543   -1.1669    2.1896 H       1  LIG1        0.1655
      7 H           1.8093   -0.0748    2.0196 H       1  LIG1        0.0820
      8 N           2.7654    2.5757   -0.5082 N.1     1  LIG1       -0.1908
      9 C           1.9205    1.8719   -0.1481 C.1     1  LIG1        0.1019
     10 C          -0.9281    1.5597   -1.3940 C.1     1  LIG1       -0.0662
     11 C          -1.3338    2.1484   -2.3620 C.1     1  LIG1       -0.1138
     12 H          -1.6843    2.6704   -3.2225 H       1  LIG1        0.1232
     13 C          -2.4227   -0.6430    0.3778 C.ar    1  LIG1        0.0711
     14 C          -3.6519   -0.0175    0.2960 C.ar    1  LIG1        0.0183
     15 C          -4.6269   -1.0473    0.3039 C.ar    1  LIG1        0.1456
     16 C          -3.9837   -2.2778    0.3836 C.ar    1  LIG1        0.0905
     17 N          -2.6339   -1.9990    0.4369 N.ar    1  LIG1       -0.3498
     18 H          -1.9076   -2.6956    0.4422 H       1  LIG1        0.1661
     19 C          -3.9494    1.4442    0.2433 C.3     1  LIG1       -0.0342
     20 H          -4.9287    1.6404    0.6842 H       1  LIG1        0.0279
     21 H          -3.9670    1.8134   -0.7859 H       1  LIG1        0.0279
     22 H          -3.1950    2.0235    0.7805 H       1  LIG1        0.0279
     23 O          -5.9545   -0.7977    0.1560 O.3     1  LIG1       -0.5044
     24 H          -6.4493   -1.1288    0.9210 H       1  LIG1        0.2922
     25 C          -5.6336   -4.1146    0.9077 C.ar    1  LIG1        0.0616
     26 C          -6.0563   -5.4361    0.7653 C.ar    1  LIG1       -0.0348
     27 C          -4.4551   -3.6546    0.2864 C.ar    1  LIG1        0.0204
     28 C          -5.3222   -6.3638    0.0379 C.ar    1  LIG1        0.0000
     29 H          -6.9716   -5.7485    1.2530 H       1  LIG1        0.0637
     30 C          -3.7268   -4.5927   -0.4470 C.ar    1  LIG1       -0.0353
     31 C          -4.1297   -5.9234   -0.5739 C.ar    1  LIG1        0.0331
     32 H          -2.8387   -4.2768   -0.9821 H       1  LIG1        0.0637
     33 N          -6.9992   -2.5145    2.4162 N.1     1  LIG1       -0.1908
     34 C          -6.3961   -3.2409    1.7446 C.1     1  LIG1        0.0998
     35 C          -3.3216   -6.7920   -1.3773 C.1     1  LIG1       -0.0690
     36 C          -2.6119   -7.4785   -2.0654 C.1     1  LIG1       -0.1139
     37 H          -1.9999   -8.0943   -2.6842 H       1  LIG1        0.1232
     38 C          -7.0835   -8.0839   -0.5188 C.ar    1  LIG1        0.0326
     39 C          -7.4824   -9.4278   -0.5528 C.ar    1  LIG1       -0.0423
     40 C          -5.7929   -7.7706   -0.0527 C.ar    1  LIG1        0.0021
     41 C          -6.6418  -10.4423   -0.1400 C.ar    1  LIG1       -0.0190
     42 H          -8.4753   -9.6643   -0.9178 H       1  LIG1        0.0631
     43 C          -4.9505   -8.8001    0.3617 C.ar    1  LIG1       -0.0113
     44 C          -5.3646  -10.1263    0.3192 C.ar    1  LIG1        0.1175
     45 H          -3.9560   -8.5587    0.7249 H       1  LIG1        0.0660
     46 H          -6.9510  -11.4804   -0.1659 H       1  LIG1        0.0654
     47 C          -7.9931   -7.0796   -0.9822 C.1     1  LIG1       -0.0690
     48 C          -8.7829   -6.2617   -1.3791 C.1     1  LIG1       -0.1139
     49 H          -9.4734   -5.5309   -1.7328 H       1  LIG1        0.1232
     50 O          -4.5710  -11.1516    0.7188 O.3     1  LIG1       -0.5067
     51 H          -3.7159  -10.8082    1.0038 H       1  LIG1        0.2921
@<TRIPOS>BOND
     1    12    11    1
     2    37    36    1
     3    11    10    3
     4    36    35    3
     5    49    48    1
     6    10     3    1
     7    48    47    3
     8    35    31    1
     9    47    38    1
    10    32    30    1
    11    42    39    1
    12    21    19    1
    13    31    30   ar
    14    31    28   ar
    15    39    38   ar
    16    39    41   ar
    17    38    40   ar
    18     8     9    3
    19    30    27   ar
    20     3     2   ar
    21     3     4   ar
    22    46    41    1
    23     9     2    1
    24    41    44   ar
    25    40    28    1
    26    40    43   ar
    27    28    26   ar
    28    23    15    1
    29    23    24    1
    30    19    14    1
    31    19    20    1
    32    19    22    1
    33    27    16    1
    34    27    25   ar
    35    14    15   ar
    36    14    13   ar
    37     2     1   ar
    38    15    16   ar
    39    44    43   ar
    40    44    50    1
    41    43    45    1
    42    13    17   ar
    43    13     4    1
    44    16    17   ar
    45    17    18    1
    46     4     5   ar
    47    50    51    1
    48    26    25   ar
    49    26    29    1
    50    25    34    1
    51     1     5   ar
    52     1     7    1
    53     5     6    1
    54    34    33    3
