@<TRIPOS>MOLECULE
mol_data/opt/cam/geoms/mol2/13de13de13de13de.out
 46 49 0 0 0
SMALL
GASTEIGER

@<TRIPOS>ATOM
      1 C           0.3451    0.3966   -2.4398 C.ar    1  LIG1        0.0209
      2 C           0.6703    1.0250   -1.2603 C.ar    1  LIG1        0.0850
      3 C          -0.3755    0.7501   -0.3176 C.ar    1  LIG1        0.0687
      4 C          -1.2994   -0.0409   -0.9735 C.ar    1  LIG1        0.0810
      5 N          -0.8338   -0.2524   -2.2536 N.ar    1  LIG1       -0.3573
      6 H          -1.3687   -0.6905   -2.9874 H       1  LIG1        0.1655
      7 H           0.8688    0.3778   -3.3825 H       1  LIG1        0.0820
      8 N           2.8070    2.4044   -0.8362 N.1     1  LIG1       -0.1908
      9 C           1.8453    1.7894   -1.0231 C.1     1  LIG1        0.1019
     10 C          -0.4320    1.1784    1.0335 C.1     1  LIG1       -0.0662
     11 C          -0.4732    1.5461    2.1777 C.1     1  LIG1       -0.1138
     12 H          -0.5181    1.8936    3.1845 H       1  LIG1        0.1232
     13 C          -2.5356   -0.6417   -0.5027 C.ar    1  LIG1        0.0834
     14 C          -3.6452   -0.0875    0.1107 C.ar    1  LIG1        0.0944
     15 C          -4.5919   -1.1367    0.3423 C.ar    1  LIG1        0.0694
     16 C          -4.0257   -2.2999   -0.1438 C.ar    1  LIG1        0.0815
     17 N          -2.7863   -1.9789   -0.6458 N.ar    1  LIG1       -0.3498
     18 H          -2.1492   -2.6365   -1.0683 H       1  LIG1        0.1661
     19 N          -3.9926    2.4003    0.6880 N.1     1  LIG1       -0.1908
     20 C          -3.8292    1.2852    0.4287 C.1     1  LIG1        0.1026
     21 C          -5.8626   -1.0094    0.9600 C.1     1  LIG1       -0.0662
     22 C          -6.9392   -0.8940    1.4829 C.1     1  LIG1       -0.1138
     23 H          -7.9011   -0.7835    1.9293 H       1  LIG1        0.1232
     24 C          -4.5254   -3.6656   -0.1496 C.ar    1  LIG1        0.0834
     25 C          -5.6708   -4.2100   -0.7005 C.ar    1  LIG1        0.0944
     26 C          -5.6638   -5.6170   -0.4356 C.ar    1  LIG1        0.0694
     27 C          -4.5040   -5.8843    0.2687 C.ar    1  LIG1        0.0815
     28 N          -3.8346   -4.6945    0.4303 N.ar    1  LIG1       -0.3498
     29 H          -2.9568   -4.5925    0.9160 H       1  LIG1        0.1661
     30 N          -7.4670   -2.9228   -2.0275 N.1     1  LIG1       -0.1908
     31 C          -6.6626   -3.4975   -1.4275 C.1     1  LIG1        0.1026
     32 C          -6.6606   -6.5528   -0.8130 C.1     1  LIG1       -0.0662
     33 C          -7.5092   -7.3403   -1.1377 C.1     1  LIG1       -0.1138
     34 H          -8.2545   -8.0400   -1.4402 H       1  LIG1        0.1232
     35 C          -3.9924   -7.1302    0.8152 C.ar    1  LIG1        0.0829
     36 C          -3.7350   -8.3469    0.2120 C.ar    1  LIG1        0.0937
     37 C          -3.2289   -9.2368    1.2175 C.ar    1  LIG1        0.0600
     38 C          -3.1964   -8.5219    2.3914 C.ar    1  LIG1        0.0190
     39 N          -3.6456   -7.2583    2.1360 N.ar    1  LIG1       -0.3573
     40 H          -3.8361   -6.5626    2.8400 H       1  LIG1        0.1655
     41 H          -2.8887   -8.8292    3.3781 H       1  LIG1        0.0820
     42 N          -4.0005   -8.8797   -2.2960 N.1     1  LIG1       -0.1908
     43 C          -3.8907   -8.6406   -1.1695 C.1     1  LIG1        0.1026
     44 C          -2.8272  -10.5864    1.0320 C.1     1  LIG1       -0.0669
     45 C          -2.4886  -11.7286    0.8661 C.1     1  LIG1       -0.1138
     46 H          -2.1920  -12.7407    0.7114 H       1  LIG1        0.1232
@<TRIPOS>BOND
     1     7     1    1
     2     6     5    1
     3     1     5   ar
     4     1     2   ar
     5    42    43    3
     6     5     4   ar
     7    30    31    3
     8    34    33    1
     9    31    25    1
    10     2     9    1
    11     2     3   ar
    12    43    36    1
    13    33    32    3
    14    18    17    1
    15     9     8    3
    16     4    13    1
    17     4     3   ar
    18    32    26    1
    19    25    26   ar
    20    25    24   ar
    21    17    13   ar
    22    17    16   ar
    23    13    14   ar
    24    26    27   ar
    25     3    10    1
    26    24    16    1
    27    24    28   ar
    28    16    15   ar
    29    14    15   ar
    30    14    20    1
    31    36    35   ar
    32    36    37   ar
    33    27    28   ar
    34    27    35    1
    35    15    21    1
    36    20    19    3
    37    28    29    1
    38    46    45    1
    39    35    39   ar
    40    45    44    3
    41    21    22    3
    42    44    37    1
    43    10    11    3
    44    37    38   ar
    45    22    23    1
    46    39    38   ar
    47    39    40    1
    48    11    12    1
    49    38    41    1
