@<TRIPOS>MOLECULE
mol_data/opt/cam/geoms/mol2/13de4al-12il-12il.out
 55 58 0 0 0
SMALL
GASTEIGER

@<TRIPOS>ATOM
      1 C           1.3147   -0.2051    0.4528 C.ar    1  LIG1        0.0209
      2 C           1.0327    0.9115   -0.2969 C.ar    1  LIG1        0.0850
      3 C          -0.3763    0.9026   -0.5748 C.ar    1  LIG1        0.0672
      4 C          -0.8982   -0.2345    0.0230 C.ar    1  LIG1        0.0634
      5 N           0.1509   -0.8824    0.6303 N.ar    1  LIG1       -0.3585
      6 H           0.0469   -1.7098    1.1950 H       1  LIG1        0.1654
      7 H           2.2502   -0.5474    0.8658 H       1  LIG1        0.0820
      8 N           2.7466    2.6808   -1.0581 N.1     1  LIG1       -0.1908
      9 C           1.9744    1.8884   -0.7193 C.1     1  LIG1        0.1019
     10 C          -1.0614    1.8735   -1.3510 C.1     1  LIG1       -0.0663
     11 C          -1.6131    2.7144   -2.0128 C.1     1  LIG1       -0.1138
     12 H          -2.0910    3.4578   -2.6083 H       1  LIG1        0.1232
     13 C          -3.3738    0.0577   -0.0177 C.ar    1  LIG1       -0.0517
     14 C          -4.6480   -0.4812    0.0287 C.ar    1  LIG1       -0.0469
     15 C          -2.2569   -0.7767    0.0736 C.ar    1  LIG1        0.0030
     16 C          -4.8732   -1.8529    0.1914 C.ar    1  LIG1        0.0593
     17 H          -5.5024    0.1757   -0.0873 H       1  LIG1        0.0626
     18 C          -2.4673   -2.1489    0.2335 C.ar    1  LIG1       -0.0101
     19 C          -3.7449   -2.6849    0.3064 C.ar    1  LIG1        0.1314
     20 H          -1.6419   -2.8520    0.2744 H       1  LIG1        0.0661
     21 H          -3.2417    1.1246   -0.1436 H       1  LIG1        0.0624
     22 O          -3.8371   -4.0429    0.4409 O.3     1  LIG1       -0.4944
     23 C          -4.3560   -4.5097    1.6771 C.3     1  LIG1        0.0788
     24 H          -4.3493   -5.5983    1.6204 H       1  LIG1        0.0660
     25 H          -3.7237   -4.1857    2.5126 H       1  LIG1        0.0660
     26 H          -5.3809   -4.1691    1.8488 H       1  LIG1        0.0660
     27 C          -6.2443   -2.3598    0.2183 C.ar    1  LIG1        0.1459
     28 C          -7.4003   -1.8514    0.7434 C.ar    1  LIG1        0.0379
     29 C          -8.4109   -2.8090    0.4221 C.ar    1  LIG1        0.1722
     30 C          -7.8139   -3.8356   -0.2548 C.ar    1  LIG1        0.2125
     31 O          -6.4887   -3.5579   -0.3854 O.2     1  LIG1       -0.4475
     32 C          -7.6309   -0.5950    1.5187 C.3     1  LIG1       -0.0326
     33 H          -8.4377   -0.7466    2.2389 H       1  LIG1        0.0280
     34 H          -7.9298    0.2358    0.8705 H       1  LIG1        0.0280
     35 H          -6.7334   -0.2866    2.0588 H       1  LIG1        0.0280
     36 O          -9.7203   -2.6838    0.7828 O.3     1  LIG1       -0.4909
     37 C         -10.6097   -2.4289   -0.3011 C.3     1  LIG1        0.0790
     38 H         -11.5993   -2.2910    0.1356 H       1  LIG1        0.0660
     39 H         -10.3181   -1.5209   -0.8396 H       1  LIG1        0.0660
     40 H         -10.6341   -3.2707   -1.0000 H       1  LIG1        0.0660
     41 C          -8.2979   -5.0777   -0.8144 C.ar    1  LIG1        0.1799
     42 C          -9.2717   -5.9554   -0.4291 C.ar    1  LIG1        0.0402
     43 C          -9.2681   -6.9720   -1.4429 C.ar    1  LIG1        0.1612
     44 C          -8.3028   -6.6503   -2.3400 C.ar    1  LIG1        0.1345
     45 O          -7.7055   -5.4920   -1.9720 O.2     1  LIG1       -0.4557
     46 H          -7.9561   -7.1138   -3.2490 H       1  LIG1        0.1068
     47 C         -10.1485   -5.9310    0.7812 C.3     1  LIG1       -0.0325
     48 H          -9.7351   -6.5520    1.5836 H       1  LIG1        0.0280
     49 H         -11.1355   -6.3323    0.5362 H       1  LIG1        0.0280
     50 H         -10.2657   -4.9196    1.1720 H       1  LIG1        0.0280
     51 O         -10.1142   -8.0387   -1.5113 O.3     1  LIG1       -0.4917
     52 C          -9.7540   -9.1231   -0.6686 C.3     1  LIG1        0.0789
     53 H         -10.4992   -9.9038   -0.8257 H       1  LIG1        0.0660
     54 H          -8.7613   -9.5092   -0.9267 H       1  LIG1        0.0660
     55 H          -9.7562   -8.8327    0.3882 H       1  LIG1        0.0660
@<TRIPOS>BOND
     1    46    44    1
     2    12    11    1
     3    44    45   ar
     4    44    43   ar
     5    11    10    3
     6    45    41   ar
     7    51    43    1
     8    51    52    1
     9    43    42   ar
    10    10     3    1
    11     8     9    3
    12    40    37    1
    13    54    52    1
    14    39    37    1
    15    53    52    1
    16    41    42   ar
    17    41    30    1
    18     9     2    1
    19    52    55    1
    20     3     2   ar
    21     3     4   ar
    22    42    47    1
    23    31    30   ar
    24    31    27   ar
    25    37    38    1
    26    37    36    1
    27     2     1   ar
    28    30    29   ar
    29    21    13    1
    30    17    14    1
    31    13    14   ar
    32    13    15   ar
    33     4    15    1
    34     4     5   ar
    35    14    16   ar
    36    15    18   ar
    37    16    27    1
    38    16    19   ar
    39    27    28   ar
    40    18    20    1
    41    18    19   ar
    42    19    22    1
    43    29    28   ar
    44    29    36    1
    45    22    23    1
    46     1     5   ar
    47     1     7    1
    48    49    47    1
    49     5     6    1
    50    28    32    1
    51    47    50    1
    52    47    48    1
    53    34    32    1
    54    32    35    1
    55    32    33    1
    56    24    23    1
    57    23    26    1
    58    23    25    1
