@<TRIPOS>MOLECULE
mol_data/opt/cam/geoms/mol2/13de13de-13de-13de.out
 46 49 0 0 0
SMALL
GASTEIGER

@<TRIPOS>ATOM
      1 C           1.3214   -0.4970   -0.3212 C.ar    1  LIG1        0.0209
      2 C           0.9459    0.8083   -0.5503 C.ar    1  LIG1        0.0850
      3 C          -0.4789    0.8687   -0.4317 C.ar    1  LIG1        0.0687
      4 C          -0.9090   -0.4175   -0.1369 C.ar    1  LIG1        0.0810
      5 N           0.2027   -1.2212   -0.0761 N.ar    1  LIG1       -0.3573
      6 H           0.1849   -2.2088    0.1433 H       1  LIG1        0.1655
      7 H           2.3028   -0.9442   -0.3181 H       1  LIG1        0.0820
      8 N           2.5313    2.7697   -1.0837 N.1     1  LIG1       -0.1908
      9 C           1.8183    1.8908   -0.8438 C.1     1  LIG1        0.1019
     10 C          -1.3054    2.0164   -0.5370 C.1     1  LIG1       -0.0662
     11 C          -2.0334    2.9758   -0.5964 C.1     1  LIG1       -0.1138
     12 H          -2.6869    3.8216   -0.5670 H       1  LIG1        0.1232
     13 C          -2.2467   -0.9175    0.0783 C.ar    1  LIG1        0.0834
     14 C          -2.6913   -2.1593    0.5160 C.ar    1  LIG1        0.0944
     15 C          -4.1198   -2.1368    0.5424 C.ar    1  LIG1        0.0694
     16 C          -4.5007   -0.8800    0.0988 C.ar    1  LIG1        0.0815
     17 N          -3.3542   -0.1631   -0.1602 N.ar    1  LIG1       -0.3498
     18 H          -3.3028    0.7771   -0.5353 H       1  LIG1        0.1661
     19 N          -1.0630   -4.0577    1.1205 N.1     1  LIG1       -0.1908
     20 C          -1.8389   -3.2341    0.8689 C.1     1  LIG1        0.1026
     21 C          -4.9515   -3.1876    1.0021 C.1     1  LIG1       -0.0662
     22 C          -5.6363   -4.0889    1.4082 C.1     1  LIG1       -0.1138
     23 H          -6.2538   -4.8908    1.7430 H       1  LIG1        0.1232
     24 C          -5.8174   -0.3056   -0.0821 C.ar    1  LIG1        0.0834
     25 C          -7.0004   -0.8691   -0.5357 C.ar    1  LIG1        0.0944
     26 C          -8.0026    0.1508   -0.5162 C.ar    1  LIG1        0.0694
     27 C          -7.3925    1.3127   -0.0693 C.ar    1  LIG1        0.0815
     28 N          -6.0778    1.0131    0.1828 N.ar    1  LIG1       -0.3498
     29 H          -5.4172    1.6606    0.5923 H       1  LIG1        0.1661
     30 N          -7.4080   -3.2320   -1.4764 N.1     1  LIG1       -0.1908
     31 C          -7.2037   -2.1816   -1.0368 C.1     1  LIG1        0.1026
     32 C          -9.3587   -0.0025   -0.9043 C.1     1  LIG1       -0.0662
     33 C         -10.5128   -0.1349   -1.2255 C.1     1  LIG1       -0.1138
     34 H         -11.5233   -0.2889   -1.5305 H       1  LIG1        0.1232
     35 C          -7.9500    2.6312    0.1242 C.ar    1  LIG1        0.0829
     36 C          -7.3431    3.8523    0.3962 C.ar    1  LIG1        0.0937
     37 C          -8.3718    4.8468    0.4840 C.ar    1  LIG1        0.0600
     38 C          -9.5584    4.1899    0.2583 C.ar    1  LIG1        0.0190
     39 N          -9.2899    2.8695    0.0472 N.ar    1  LIG1       -0.3573
     40 H          -9.9678    2.1497   -0.1675 H       1  LIG1        0.1655
     41 H         -10.5651    4.5754    0.2356 H       1  LIG1        0.0820
     42 N          -4.7943    4.1261    0.5999 N.1     1  LIG1       -0.1908
     43 C          -5.9477    4.0452    0.5184 C.1     1  LIG1        0.1026
     44 C          -8.1919    6.2303    0.7455 C.1     1  LIG1       -0.0669
     45 C          -8.0270    7.4010    0.9678 C.1     1  LIG1       -0.1138
     46 H          -7.8770    8.4378    1.1648 H       1  LIG1        0.1232
@<TRIPOS>BOND
     1    34    33    1
     2    30    31    3
     3    33    32    3
     4     8     9    3
     5    31    25    1
     6    32    26    1
     7     9     2    1
     8    11    12    1
     9    11    10    3
    10     2     3   ar
    11     2     1   ar
    12    10     3    1
    13    25    26   ar
    14    25    24   ar
    15    18    17    1
    16    26    27   ar
    17     3     4   ar
    18     1     7    1
    19     1     5   ar
    20    40    39    1
    21    17    13   ar
    22    17    16   ar
    23     4     5   ar
    24     4    13    1
    25    24    16    1
    26    24    28   ar
    27     5     6    1
    28    27    35    1
    29    27    28   ar
    30    39    35   ar
    31    39    38   ar
    32    13    14   ar
    33    16    15   ar
    34    35    36   ar
    35    28    29    1
    36    41    38    1
    37    38    37   ar
    38    36    37   ar
    39    36    43    1
    40    37    44    1
    41    14    15   ar
    42    14    20    1
    43    43    42    3
    44    15    21    1
    45    44    45    3
    46    20    19    3
    47    45    46    1
    48    21    22    3
    49    22    23    1
