@<TRIPOS>MOLECULE
mol_data/opt/cam/geoms/mol2/13de13de13de.out
 35 37 0 0 0
SMALL
GASTEIGER

@<TRIPOS>ATOM
      1 C           0.9256   -0.0722   -1.4233 C.ar    1  LIG1        0.0209
      2 C           0.8375    0.9372   -0.4933 C.ar    1  LIG1        0.0850
      3 C          -0.4735    0.8819    0.0870 C.ar    1  LIG1        0.0687
      4 C          -1.1307   -0.1694   -0.5233 C.ar    1  LIG1        0.0810
      5 N          -0.2574   -0.7402   -1.4245 N.ar    1  LIG1       -0.3573
      6 H          -0.5174   -1.4450   -2.0967 H       1  LIG1        0.1655
      7 H           1.7409   -0.3454   -2.0744 H       1  LIG1        0.0820
      8 N           2.7262    2.5862    0.1082 N.1     1  LIG1       -0.1908
      9 C           1.8744    1.8513   -0.1605 C.1     1  LIG1        0.1019
     10 C          -0.9832    1.7211    1.1106 C.1     1  LIG1       -0.0662
     11 C          -1.4096    2.4363    1.9783 C.1     1  LIG1       -0.1138
     12 H          -1.7931    3.0858    2.7315 H       1  LIG1        0.1232
     13 C          -2.4651   -0.7040   -0.3122 C.ar    1  LIG1        0.0834
     14 C          -3.7073   -0.0960   -0.3370 C.ar    1  LIG1        0.0944
     15 C          -4.6965   -1.0999   -0.0821 C.ar    1  LIG1        0.0694
     16 C          -4.0200   -2.2942    0.0846 C.ar    1  LIG1        0.0815
     17 N          -2.6776   -2.0314   -0.0563 N.ar    1  LIG1       -0.3498
     18 H          -1.9471   -2.7221    0.0193 H       1  LIG1        0.1661
     19 N          -4.1784    2.3922   -0.8171 N.1     1  LIG1       -0.1908
     20 C          -3.9611    1.2774   -0.5989 C.1     1  LIG1        0.1026
     21 C          -6.0987   -0.9024   -0.0023 C.1     1  LIG1       -0.0662
     22 C          -7.2866   -0.7280    0.0627 C.1     1  LIG1       -0.1138
     23 H          -8.3409   -0.5751    0.1028 H       1  LIG1        0.1232
     24 C          -4.5078   -3.6273    0.3940 C.ar    1  LIG1        0.0829
     25 C          -5.4636   -4.4133   -0.2220 C.ar    1  LIG1        0.0937
     26 C          -5.5434   -5.6524    0.4981 C.ar    1  LIG1        0.0600
     27 C          -4.6291   -5.5698    1.5212 C.ar    1  LIG1        0.0190
     28 N          -4.0064   -4.3574    1.4418 N.ar    1  LIG1       -0.3573
     29 H          -3.3816   -3.9855    2.1399 H       1  LIG1        0.1655
     30 H          -4.3876   -6.2859    2.2904 H       1  LIG1        0.0820
     31 N          -6.7825   -3.8176   -2.3549 N.1     1  LIG1       -0.1908
     32 C          -6.1941   -4.0767   -1.3933 C.1     1  LIG1        0.1026
     33 C          -6.3909   -6.7530    0.2018 C.1     1  LIG1       -0.0669
     34 C          -7.1116   -7.6807   -0.0562 C.1     1  LIG1       -0.1138
     35 H          -7.7549   -8.4976   -0.2908 H       1  LIG1        0.1232
@<TRIPOS>BOND
     1    31    32    3
     2     6     5    1
     3     7     1    1
     4     5     1   ar
     5     5     4   ar
     6     1     2   ar
     7    32    25    1
     8    19    20    3
     9    20    14    1
    10     4    13    1
    11     4     3   ar
    12     2     9    1
    13     2     3   ar
    14    14    13   ar
    15    14    15   ar
    16    13    17   ar
    17    35    34    1
    18    25    24   ar
    19    25    26   ar
    20     9     8    3
    21    15    21    1
    22    15    16   ar
    23    17    18    1
    24    17    16   ar
    25    34    33    3
    26    21    22    3
    27    22    23    1
    28    16    24    1
    29     3    10    1
    30    33    26    1
    31    24    28   ar
    32    26    27   ar
    33    10    11    3
    34    28    27   ar
    35    28    29    1
    36    27    30    1
    37    11    12    1
