@<TRIPOS>MOLECULE
mol_data/opt/cam/geoms/mol2/13de13lf4dh-6af.out
 49 52 0 0 0
SMALL
GASTEIGER

@<TRIPOS>ATOM
      1 C           1.4356   -0.1685   -0.3410 C.ar    1  LIG1        0.0209
      2 C           1.1404    0.9639    0.3800 C.ar    1  LIG1        0.0850
      3 C          -0.2770    0.9776    0.6163 C.ar    1  LIG1        0.0688
      4 C          -0.7895   -0.1574    0.0128 C.ar    1  LIG1        0.0835
      5 N           0.2701   -0.8379   -0.5478 N.ar    1  LIG1       -0.3572
      6 H           0.1621   -1.6513   -1.1318 H       1  LIG1        0.1655
      7 H           2.3820   -0.5288   -0.7116 H       1  LIG1        0.0820
      8 N           2.8621    2.7101    1.1771 N.1     1  LIG1       -0.1908
      9 C           2.0845    1.9301    0.8224 C.1     1  LIG1        0.1019
     10 C          -0.9878    1.9450    1.3710 C.1     1  LIG1       -0.0662
     11 C          -1.5686    2.7690    2.0272 C.1     1  LIG1       -0.1138
     12 H          -2.0893    3.5001    2.6011 H       1  LIG1        0.1232
     13 C          -2.1345   -0.6813   -0.0806 C.ar    1  LIG1        0.1105
     14 C          -3.3391   -0.0535   -0.3064 C.ar    1  LIG1        0.1888
     15 C          -4.3581   -1.0525   -0.2930 C.ar    1  LIG1        0.1851
     16 C          -3.7474   -2.2757   -0.0718 C.ar    1  LIG1        0.0941
     17 N          -2.3836   -2.0396    0.0164 N.ar    1  LIG1       -0.3471
     18 H          -1.7916   -2.6430    0.5691 H       1  LIG1        0.1662
     19 O          -3.4935    1.2751   -0.4975 O.3     1  LIG1       -0.4895
     20 C          -4.1631    1.6520   -1.6977 C.3     1  LIG1        0.0791
     21 H          -4.2063    2.7412   -1.6900 H       1  LIG1        0.0660
     22 H          -3.5982    1.3195   -2.5764 H       1  LIG1        0.0660
     23 H          -5.1725    1.2377   -1.7345 H       1  LIG1        0.0660
     24 O          -5.6572   -0.7990   -0.6018 O.3     1  LIG1       -0.5019
     25 H          -6.2237   -0.9720    0.1684 H       1  LIG1        0.2924
     26 C          -5.4908   -3.9744    0.5859 C.ar    1  LIG1        0.0617
     27 C          -5.9187   -5.3040    0.6059 C.ar    1  LIG1       -0.0342
     28 C          -4.2564   -3.6412   -0.0100 C.ar    1  LIG1        0.0211
     29 C          -5.1596   -6.3371    0.0812 C.ar    1  LIG1        0.0056
     30 H          -6.8664   -5.5383    1.0784 H       1  LIG1        0.0637
     31 C          -3.4966   -4.6803   -0.5424 C.ar    1  LIG1       -0.0300
     32 C          -3.9134   -6.0145   -0.5108 C.ar    1  LIG1        0.0331
     33 H          -2.5630   -4.4393   -1.0404 H       1  LIG1        0.0643
     34 N          -6.9285   -2.1542    1.7267 N.1     1  LIG1       -0.1908
     35 C          -6.2904   -2.9817    1.2239 C.1     1  LIG1        0.0998
     36 N          -3.1060   -6.9879   -1.0509 N.pl3   1  LIG1       -0.3575
     37 H          -3.5311   -7.8734   -1.2785 H       1  LIG1        0.1423
     38 H          -2.3949   -6.6847   -1.6972 H       1  LIG1        0.1423
     39 C          -4.9020   -8.7828    0.6376 C.ar    1  LIG1        0.0356
     40 C          -5.6755   -7.7282    0.1345 C.ar    1  LIG1        0.0055
     41 C          -6.9730   -8.0200   -0.2795 C.ar    1  LIG1       -0.0095
     42 C          -7.4384   -9.3243   -0.1751 C.ar    1  LIG1        0.1354
     43 C          -6.5807  -10.2992    0.3326 C.ar    1  LIG1        0.0690
     44 N          -5.3418  -10.0343    0.7305 N.ar    1  LIG1       -0.2590
     45 H          -7.6220   -7.2538   -0.6894 H       1  LIG1        0.0661
     46 H          -6.9169  -11.3327    0.4194 H       1  LIG1        0.0867
     47 H          -3.8918   -8.5978    0.9919 H       1  LIG1        0.0836
     48 O          -8.7026   -9.5913   -0.5822 O.3     1  LIG1       -0.5052
     49 H          -8.8970  -10.5276   -0.4512 H       1  LIG1        0.2922
@<TRIPOS>BOND
     1    22    20    1
     2    23    20    1
     3    20    21    1
     4    20    19    1
     5    38    36    1
     6    37    36    1
     7     6     5    1
     8    36    32    1
     9    33    31    1
    10     7     1    1
    11    45    41    1
    12    24    15    1
    13    24    25    1
    14    48    49    1
    15    48    42    1
    16     5     1   ar
    17     5     4   ar
    18    31    32   ar
    19    31    28   ar
    20    32    29   ar
    21    19    14    1
    22     1     2   ar
    23    14    15   ar
    24    14    13   ar
    25    15    16   ar
    26    41    42   ar
    27    41    40   ar
    28    42    43   ar
    29    13     4    1
    30    13    17   ar
    31    16    28    1
    32    16    17   ar
    33    28    26   ar
    34     4     3   ar
    35    17    18    1
    36    29    40    1
    37    29    27   ar
    38    40    39   ar
    39    43    46    1
    40    43    44   ar
    41     2     3   ar
    42     2     9    1
    43    26    27   ar
    44    26    35    1
    45    27    30    1
    46     3    10    1
    47    39    44   ar
    48    39    47    1
    49     9     8    3
    50    35    34    3
    51    10    11    3
    52    11    12    1
