@<TRIPOS>MOLECULE
mol_data/opt/cam/geoms/mol2/13de13de13de-13de.out
 46 49 0 0 0
SMALL
GASTEIGER

@<TRIPOS>ATOM
      1 C           1.2312   -0.2461   -0.5828 C.ar    1  LIG1        0.0209
      2 C           0.9615    0.9355    0.0679 C.ar    1  LIG1        0.0850
      3 C          -0.4544    1.0005    0.2872 C.ar    1  LIG1        0.0687
      4 C          -0.9899   -0.1550   -0.2556 C.ar    1  LIG1        0.0810
      5 N           0.0549   -0.8974   -0.7647 N.ar    1  LIG1       -0.3573
      6 H          -0.0496   -1.7573   -1.2815 H       1  LIG1        0.1655
      7 H           2.1704   -0.6513   -0.9246 H       1  LIG1        0.0820
      8 N           2.7169    2.6821    0.7861 N.1     1  LIG1       -0.1908
      9 C           1.9249    1.9025    0.4651 C.1     1  LIG1        0.1019
     10 C          -1.1482    2.0252    0.9779 C.1     1  LIG1       -0.0662
     11 C          -1.7262    2.8972    1.5710 C.1     1  LIG1       -0.1138
     12 H          -2.2484    3.6778    2.0752 H       1  LIG1        0.1232
     13 C          -2.3455   -0.6633   -0.2923 C.ar    1  LIG1        0.0834
     14 C          -3.5719   -0.0518   -0.5071 C.ar    1  LIG1        0.0944
     15 C          -4.5779   -1.0670   -0.4501 C.ar    1  LIG1        0.0694
     16 C          -3.9290   -2.2696   -0.2165 C.ar    1  LIG1        0.0815
     17 N          -2.5854   -1.9971   -0.1279 N.ar    1  LIG1       -0.3498
     18 H          -1.8827   -2.6721    0.1420 H       1  LIG1        0.1661
     19 N          -4.0401    2.4125   -1.0944 N.1     1  LIG1       -0.1908
     20 C          -3.8129    1.3124   -0.8186 C.1     1  LIG1        0.1026
     21 C          -5.9735   -0.8886   -0.6158 C.1     1  LIG1       -0.0662
     22 C          -7.1623   -0.7452   -0.7465 C.1     1  LIG1       -0.1138
     23 H          -8.2221   -0.6583   -0.8363 H       1  LIG1        0.1232
     24 C          -4.4391   -3.6140   -0.0918 C.ar    1  LIG1        0.0834
     25 C          -3.7428   -4.8144   -0.0024 C.ar    1  LIG1        0.0944
     26 C          -4.6979   -5.8695    0.1047 C.ar    1  LIG1        0.0694
     27 C          -5.9533   -5.2771    0.0730 C.ar    1  LIG1        0.0815
     28 N          -5.7677   -3.9209   -0.0453 N.ar    1  LIG1       -0.3498
     29 H          -6.5032   -3.2231   -0.1077 H       1  LIG1        0.1661
     30 N          -1.1737   -4.9218   -0.0725 N.1     1  LIG1       -0.1908
     31 C          -2.3329   -4.9316   -0.0364 C.1     1  LIG1        0.1026
     32 C          -4.3906   -7.2496    0.2165 C.1     1  LIG1       -0.0662
     33 C          -4.1152   -8.4195    0.3111 C.1     1  LIG1       -0.1138
     34 H          -3.8396   -9.4467    0.3936 H       1  LIG1        0.1232
     35 C          -7.2539   -5.9057    0.1485 C.ar    1  LIG1        0.0829
     36 C          -8.5460   -5.3921    0.1233 C.ar    1  LIG1        0.0937
     37 C          -9.4595   -6.4913    0.2339 C.ar    1  LIG1        0.0600
     38 C          -8.6881   -7.6259    0.3220 C.ar    1  LIG1        0.0190
     39 N          -7.3774   -7.2607    0.2697 N.ar    1  LIG1       -0.3573
     40 H          -6.5853   -7.8882    0.3130 H       1  LIG1        0.1655
     41 H          -8.9874   -8.6572    0.4179 H       1  LIG1        0.0820
     42 N          -9.1980   -2.9112   -0.0892 N.1     1  LIG1       -0.1908
     43 C          -8.9093   -4.0288    0.0072 C.1     1  LIG1        0.1026
     44 C         -10.8768   -6.4147    0.2486 C.1     1  LIG1       -0.0669
     45 C         -12.0774   -6.3393    0.2600 C.1     1  LIG1       -0.1138
     46 H         -13.1408   -6.2666    0.2699 H       1  LIG1        0.1232
@<TRIPOS>BOND
     1     6     5    1
     2    19    20    3
     3     7     1    1
     4    23    22    1
     5    20    14    1
     6     5     1   ar
     7     5     4   ar
     8    22    21    3
     9    21    15    1
    10     1     2   ar
    11    14    15   ar
    12    14    13   ar
    13    15    16   ar
    14    13     4    1
    15    13    17   ar
    16     4     3   ar
    17    16    17   ar
    18    16    24    1
    19    17    18    1
    20    29    28    1
    21    24    28   ar
    22    24    25   ar
    23    42    43    3
    24    30    31    3
    25    28    27   ar
    26    31    25    1
    27    25    26   ar
    28    43    36    1
    29     2     3   ar
    30     2     9    1
    31    27    26   ar
    32    27    35    1
    33    26    32    1
    34    36    35   ar
    35    36    37   ar
    36    35    39   ar
    37    32    33    3
    38    37    44    1
    39    37    38   ar
    40    44    45    3
    41    45    46    1
    42    39    40    1
    43    39    38   ar
    44     3    10    1
    45    33    34    1
    46    38    41    1
    47     9     8    3
    48    10    11    3
    49    11    12    1
