@<TRIPOS>MOLECULE
mol_data/opt/cam/geoms/mol2/13de13de-4de13de.out
 48 51 0 0 0
SMALL
GASTEIGER

@<TRIPOS>ATOM
      1 C           1.3531   -0.4376   -0.2649 C.ar    1  LIG1        0.0209
      2 C           0.9792    0.8788   -0.4182 C.ar    1  LIG1        0.0850
      3 C          -0.4453    0.9353   -0.2930 C.ar    1  LIG1        0.0687
      4 C          -0.8779   -0.3643   -0.0668 C.ar    1  LIG1        0.0810
      5 N           0.2341   -1.1718   -0.0562 N.ar    1  LIG1       -0.3573
      6 H           0.2160   -2.1729    0.0884 H       1  LIG1        0.1655
      7 H           2.3334   -0.8862   -0.2914 H       1  LIG1        0.0820
      8 N           2.5668    2.8622   -0.8551 N.1     1  LIG1       -0.1908
      9 C           1.8524    1.9740   -0.6577 C.1     1  LIG1        0.1019
     10 C          -1.2588    2.0939   -0.3674 C.1     1  LIG1       -0.0662
     11 C          -1.9588    3.0732   -0.4169 C.1     1  LIG1       -0.1138
     12 H          -2.5684    3.9485   -0.4203 H       1  LIG1        0.1232
     13 C          -2.2133   -0.8847    0.1151 C.ar    1  LIG1        0.0834
     14 C          -2.6516   -2.1897    0.3123 C.ar    1  LIG1        0.0944
     15 C          -4.0756   -2.1672    0.3987 C.ar    1  LIG1        0.0679
     16 C          -4.4663   -0.8420    0.2517 C.ar    1  LIG1        0.0651
     17 N          -3.3217   -0.0973    0.0905 N.ar    1  LIG1       -0.3509
     18 H          -3.2744    0.9089   -0.0279 H       1  LIG1        0.1660
     19 N          -1.0429   -4.1920    0.4656 N.1     1  LIG1       -0.1908
     20 C          -1.8066   -3.3220    0.4048 C.1     1  LIG1        0.1026
     21 C          -4.8864   -3.3090    0.6276 C.1     1  LIG1       -0.0662
     22 C          -5.5383   -4.3018    0.8238 C.1     1  LIG1       -0.1138
     23 H          -6.1089   -5.1835    1.0068 H       1  LIG1        0.1232
     24 C          -6.1431    1.0224    0.6590 C.ar    1  LIG1        0.0616
     25 C          -7.4513    1.4948    0.5925 C.ar    1  LIG1       -0.0334
     26 C          -5.8163   -0.2768    0.2198 C.ar    1  LIG1        0.0181
     27 C          -8.4950    0.7188    0.0902 C.ar    1  LIG1        0.0162
     28 H          -7.6492    2.4950    0.9546 H       1  LIG1        0.0637
     29 C          -6.8631   -1.0530   -0.2740 C.ar    1  LIG1       -0.0353
     30 C          -8.1772   -0.5901   -0.3406 C.ar    1  LIG1        0.0345
     31 H          -6.6574   -2.0527   -0.6312 H       1  LIG1        0.0637
     32 N          -4.3776    2.6306    1.6643 N.1     1  LIG1       -0.1908
     33 C          -5.1601    1.9028    1.2208 C.1     1  LIG1        0.0998
     34 C          -9.1476   -1.4931   -0.8868 C.1     1  LIG1       -0.0690
     35 C          -9.9244   -2.2938   -1.3418 C.1     1  LIG1       -0.1139
     36 H         -10.5997   -2.9997   -1.7707 H       1  LIG1        0.1232
     37 C          -9.8454    1.2858    0.0422 C.ar    1  LIG1        0.0665
     38 C         -10.2664    2.6111   -0.0243 C.ar    1  LIG1        0.0923
     39 C         -11.6980    2.6223   -0.0188 C.ar    1  LIG1        0.0599
     40 C         -12.0943    1.3067    0.0495 C.ar    1  LIG1        0.0189
     41 N         -10.9812    0.5264    0.0857 N.ar    1  LIG1       -0.3585
     42 H         -10.9765   -0.4826    0.0882 H       1  LIG1        0.1654
     43 H         -13.0865    0.8851    0.0735 H       1  LIG1        0.0820
     44 N          -8.7690    4.7021   -0.1909 N.1     1  LIG1       -0.1908
     45 C          -9.4453    3.7650   -0.1193 C.1     1  LIG1        0.1025
     46 C         -12.5379    3.7655   -0.0800 C.1     1  LIG1       -0.0669
     47 C         -13.2422    4.7393   -0.1317 C.1     1  LIG1       -0.1138
     48 H         -13.8593    5.6071   -0.1778 H       1  LIG1        0.1232
@<TRIPOS>BOND
     1    36    35    1
     2    35    34    3
     3    34    30    1
     4     8     9    3
     5     9     2    1
     6    31    29    1
     7    12    11    1
     8     2     3   ar
     9     2     1   ar
    10    11    10    3
    11    10     3    1
    12    30    29   ar
    13    30    27   ar
    14     3     4   ar
    15     7     1    1
    16    29    26   ar
    17     1     5   ar
    18    44    45    3
    19    48    47    1
    20    47    46    3
    21    45    38    1
    22    46    39    1
    23     4     5   ar
    24     4    13    1
    25     5     6    1
    26    18    17    1
    27    38    39   ar
    28    38    37   ar
    29    39    40   ar
    30    37    41   ar
    31    37    27    1
    32    40    43    1
    33    40    41   ar
    34    41    42    1
    35    27    25   ar
    36    17    13   ar
    37    17    16   ar
    38    13    14   ar
    39    26    16    1
    40    26    24   ar
    41    16    15   ar
    42    14    15   ar
    43    14    20    1
    44    15    21    1
    45    20    19    3
    46    25    24   ar
    47    25    28    1
    48    21    22    3
    49    24    33    1
    50    22    23    1
    51    33    32    3
