@<TRIPOS>MOLECULE
mol_data/opt/cam/geoms/mol2/13de13de-13de13de-.out
 46 49 0 0 0
SMALL
GASTEIGER

@<TRIPOS>ATOM
      1 C           1.3637   -0.3411   -0.0016 C.ar    1  LIG1        0.0209
      2 C           1.0031    0.9878   -0.0013 C.ar    1  LIG1        0.0850
      3 C          -0.4266    1.0422   -0.0004 C.ar    1  LIG1        0.0687
      4 C          -0.8776   -0.2706   -0.0001 C.ar    1  LIG1        0.0810
      5 N           0.2323   -1.0839   -0.0008 N.ar    1  LIG1       -0.3573
      6 H           0.2058   -2.0952   -0.0008 H       1  LIG1        0.1655
      7 H           2.3429   -0.7933   -0.0022 H       1  LIG1        0.0820
      8 N           2.6192    2.9961   -0.0024 N.1     1  LIG1       -0.1908
      9 C           1.8917    2.0966   -0.0019 C.1     1  LIG1        0.1019
     10 C          -1.2254    2.2118    0.0001 C.1     1  LIG1       -0.0662
     11 C          -1.8969    3.2118    0.0006 C.1     1  LIG1       -0.1138
     12 H          -2.5282    4.0716    0.0010 H       1  LIG1        0.1232
     13 C          -2.2194   -0.8089    0.0008 C.ar    1  LIG1        0.0834
     14 C          -2.6373   -2.1356    0.0010 C.ar    1  LIG1        0.0944
     15 C          -4.0616   -2.1496    0.0020 C.ar    1  LIG1        0.0694
     16 C          -4.4765   -0.8258    0.0023 C.ar    1  LIG1        0.0815
     17 N          -3.3445   -0.0387    0.0016 N.ar    1  LIG1       -0.3498
     18 H          -3.3200    0.9763    0.0016 H       1  LIG1        0.1661
     19 N          -1.0124   -4.1308   -0.0001 N.1     1  LIG1       -0.1908
     20 C          -1.7813   -3.2632    0.0004 C.1     1  LIG1        0.1026
     21 C          -4.8725   -3.3104    0.0024 C.1     1  LIG1       -0.0662
     22 C          -5.5392   -4.3137    0.0028 C.1     1  LIG1       -0.1138
     23 H          -6.1783   -5.1685    0.0032 H       1  LIG1        0.1232
     24 C          -5.8209   -0.2915    0.0032 C.ar    1  LIG1        0.0834
     25 C          -6.2800    1.0199    0.0036 C.ar    1  LIG1        0.0944
     26 C          -7.7072    0.9876    0.0045 C.ar    1  LIG1        0.0694
     27 C          -8.0813   -0.3486    0.0046 C.ar    1  LIG1        0.0815
     28 N          -6.9296   -1.0950    0.0038 N.ar    1  LIG1       -0.3498
     29 H          -6.8811   -2.1095    0.0037 H       1  LIG1        0.1661
     30 N          -4.9068    3.1954    0.0029 N.1     1  LIG1       -0.1908
     31 C          -5.5118    2.2079    0.0032 C.1     1  LIG1        0.1026
     32 C          -8.5475    2.1302    0.0051 C.1     1  LIG1       -0.0662
     33 C          -9.2479    3.1115    0.0056 C.1     1  LIG1       -0.1138
     34 H          -9.8392    3.9993    0.0064 H       1  LIG1        0.1232
     35 C          -9.4169   -0.9075    0.0054 C.ar    1  LIG1        0.0829
     36 C          -9.8992   -2.2123    0.0057 C.ar    1  LIG1        0.0937
     37 C         -11.3320   -2.1532    0.0066 C.ar    1  LIG1        0.0600
     38 C         -11.6629   -0.8193    0.0068 C.ar    1  LIG1        0.0190
     39 N         -10.5129   -0.0914    0.0061 N.ar    1  LIG1       -0.3573
     40 H         -10.4516    0.9185    0.0061 H       1  LIG1        0.1655
     41 H         -12.6332   -0.3491    0.0074 H       1  LIG1        0.0820
     42 N          -8.5269   -4.3889    0.0048 N.1     1  LIG1       -0.1908
     43 C          -9.1385   -3.4055    0.0052 C.1     1  LIG1        0.1026
     44 C         -12.2235   -3.2578    0.0071 C.1     1  LIG1       -0.0669
     45 C         -12.9713   -4.2001    0.0075 C.1     1  LIG1       -0.1138
     46 H         -13.6297   -5.0384    0.0079 H       1  LIG1        0.1232
@<TRIPOS>BOND
     1     8     9    3
     2     7     1    1
     3     9     2    1
     4     1     2   ar
     5     1     5   ar
     6     2     3   ar
     7     5     6    1
     8     5     4   ar
     9     3     4   ar
    10     3    10    1
    11    19    20    3
    12     4    13    1
    13    10    11    3
    14    20    14    1
    15    11    12    1
    16    13    14   ar
    17    13    17   ar
    18    14    15   ar
    19    17    18    1
    20    17    16   ar
    21    15    16   ar
    22    15    21    1
    23    16    24    1
    24    21    22    3
    25    22    23    1
    26    30    31    3
    27    31    25    1
    28    24    25   ar
    29    24    28   ar
    30    25    26   ar
    31    29    28    1
    32    28    27   ar
    33    26    27   ar
    34    26    32    1
    35    27    35    1
    36    42    43    3
    37    32    33    3
    38    43    36    1
    39    35    36   ar
    40    35    39   ar
    41    33    34    1
    42    36    37   ar
    43    40    39    1
    44    39    38   ar
    45    37    38   ar
    46    37    44    1
    47    38    41    1
    48    44    45    3
    49    45    46    1
