@<TRIPOS>MOLECULE
mol_data/opt/cam/geoms/mol2/13de13de13de-13de-.out
 46 49 0 0 0
SMALL
GASTEIGER

@<TRIPOS>ATOM
      1 C           1.2088   -0.1670   -0.5900 C.ar    1  LIG1        0.0209
      2 C           0.8748    1.0450   -0.0318 C.ar    1  LIG1        0.0850
      3 C          -0.5468    1.0627    0.1553 C.ar    1  LIG1        0.0687
      4 C          -1.0202   -0.1512   -0.3122 C.ar    1  LIG1        0.0810
      5 N           0.0659   -0.8814   -0.7465 N.ar    1  LIG1       -0.3573
      6 H           0.0105   -1.7792   -1.2028 H       1  LIG1        0.1655
      7 H           2.1717   -0.5540   -0.8838 H       1  LIG1        0.0820
      8 N           2.5342    2.9173    0.5917 N.1     1  LIG1       -0.1908
      9 C           1.7859    2.0805    0.3126 C.1     1  LIG1        0.1019
     10 C          -1.2991    2.1028    0.7562 C.1     1  LIG1       -0.0662
     11 C          -1.9256    2.9899    1.2728 C.1     1  LIG1       -0.1138
     12 H          -2.4874    3.7837    1.7092 H       1  LIG1        0.1232
     13 C          -2.3532   -0.7167   -0.3369 C.ar    1  LIG1        0.0834
     14 C          -3.5956   -0.1718   -0.6232 C.ar    1  LIG1        0.0944
     15 C          -4.5639   -1.2199   -0.5072 C.ar    1  LIG1        0.0694
     16 C          -3.8746   -2.3739   -0.1662 C.ar    1  LIG1        0.0815
     17 N          -2.5481   -2.0435   -0.0718 N.ar    1  LIG1       -0.3498
     18 H          -1.8284   -2.6757    0.2554 H       1  LIG1        0.1661
     19 N          -4.1597    2.2171   -1.4044 N.1     1  LIG1       -0.1908
     20 C          -3.8848    1.1533   -1.0427 C.1     1  LIG1        0.1026
     21 C          -5.9604   -1.1063   -0.7308 C.1     1  LIG1       -0.0662
     22 C          -7.1477   -1.0156   -0.9190 C.1     1  LIG1       -0.1138
     23 H          -8.1896   -0.8916   -1.1114 H       1  LIG1        0.1232
     24 C          -4.3527   -3.7159    0.0601 C.ar    1  LIG1        0.0834
     25 C          -3.6571   -4.8990    0.2827 C.ar    1  LIG1        0.0944
     26 C          -4.6101   -5.9555    0.4276 C.ar    1  LIG1        0.0694
     27 C          -5.8588   -5.3778    0.2776 C.ar    1  LIG1        0.0815
     28 N          -5.6772   -4.0297    0.0695 N.ar    1  LIG1       -0.3498
     29 H          -6.4010   -3.3675   -0.1819 H       1  LIG1        0.1661
     30 N          -1.0871   -4.9112    0.3767 N.1     1  LIG1       -0.1908
     31 C          -2.2444   -4.9773    0.3458 C.1     1  LIG1        0.1026
     32 C          -4.3192   -7.3133    0.7104 C.1     1  LIG1       -0.0662
     33 C          -4.0603   -8.4625    0.9520 C.1     1  LIG1       -0.1138
     34 H          -3.8387   -9.4874    1.1450 H       1  LIG1        0.1232
     35 C          -7.1883   -5.9513    0.3545 C.ar    1  LIG1        0.0829
     36 C          -7.7288   -7.0969   -0.2022 C.ar    1  LIG1        0.0937
     37 C          -9.1059   -7.1685    0.1963 C.ar    1  LIG1        0.0600
     38 C          -9.3476   -6.0612    0.9739 C.ar    1  LIG1        0.0190
     39 N          -8.1950   -5.3340    1.0525 N.ar    1  LIG1       -0.3573
     40 H          -8.0597   -4.5335    1.6500 H       1  LIG1        0.1655
     41 H         -10.2527   -5.7509    1.4711 H       1  LIG1        0.0820
     42 N          -6.5433   -8.7495   -1.7850 N.1     1  LIG1       -0.1908
     43 C          -7.0667   -8.0070   -1.0687 C.1     1  LIG1        0.1026
     44 C         -10.0391   -8.1788   -0.1577 C.1     1  LIG1       -0.0669
     45 C         -10.8232   -9.0386   -0.4623 C.1     1  LIG1       -0.1138
     46 H         -11.5117   -9.8047   -0.7366 H       1  LIG1        0.1232
@<TRIPOS>BOND
     1    42    43    3
     2    19    20    3
     3     6     5    1
     4    23    22    1
     5    43    36    1
     6    20    14    1
     7    22    21    3
     8     7     1    1
     9     5     1   ar
    10     5     4   ar
    11    46    45    1
    12    21    15    1
    13    14    15   ar
    14    14    13   ar
    15     1     2   ar
    16    15    16   ar
    17    45    44    3
    18    13     4    1
    19    13    17   ar
    20     4     3   ar
    21    36    37   ar
    22    36    35   ar
    23    29    28    1
    24    16    17   ar
    25    16    24    1
    26    44    37    1
    27    17    18    1
    28     2     3   ar
    29     2     9    1
    30    24    28   ar
    31    24    25   ar
    32    28    27   ar
    33     3    10    1
    34    37    38   ar
    35    27    35    1
    36    27    26   ar
    37    25    31    1
    38    25    26   ar
    39     9     8    3
    40    31    30    3
    41    35    39   ar
    42    26    32    1
    43    32    33    3
    44    10    11    3
    45    33    34    1
    46    38    39   ar
    47    38    41    1
    48    39    40    1
    49    11    12    1
