@<TRIPOS>MOLECULE
mol_data/opt/cam/geoms/mol2/13de13de-.out
 24 25 0 0 0
SMALL
GASTEIGER

@<TRIPOS>ATOM
      1 C           1.1882   -0.3195   -0.0006 C.ar    1  LIG1        0.0209
      2 C           0.7952    0.9990   -0.0003 C.ar    1  LIG1        0.0850
      3 C          -0.6376    1.0170    0.0002 C.ar    1  LIG1        0.0687
      4 C          -1.0538   -0.3074    0.0004 C.ar    1  LIG1        0.0810
      5 N           0.0724   -1.0907   -0.0001 N.ar    1  LIG1       -0.3573
      6 H           0.0638   -2.1028   -0.0001 H       1  LIG1        0.1655
      7 H           2.1780   -0.7476   -0.0010 H       1  LIG1        0.0820
      8 N           2.3508    3.0545   -0.0007 N.1     1  LIG1       -0.1908
      9 C           1.6535    2.1313   -0.0005 C.1     1  LIG1        0.1019
     10 C          -1.4664    2.1684    0.0005 C.1     1  LIG1       -0.0662
     11 C          -2.1738    3.1447    0.0008 C.1     1  LIG1       -0.1138
     12 H          -2.7640    4.0330    0.0010 H       1  LIG1        0.1232
     13 C          -2.3883   -0.8636    0.0009 C.ar    1  LIG1        0.0829
     14 C          -2.8254   -2.1831    0.0010 C.ar    1  LIG1        0.0937
     15 C          -4.2587   -2.1717    0.0015 C.ar    1  LIG1        0.0600
     16 C          -4.6315   -0.8480    0.0018 C.ar    1  LIG1        0.0190
     17 N          -3.5040   -0.0803    0.0014 N.ar    1  LIG1       -0.3573
     18 H          -3.4688    0.9308    0.0014 H       1  LIG1        0.1655
     19 H          -5.6167   -0.4103    0.0022 H       1  LIG1        0.0820
     20 N          -1.1808   -4.1617    0.0003 N.1     1  LIG1       -0.1908
     21 C          -1.9651   -3.3077    0.0007 C.1     1  LIG1        0.1026
     22 C          -5.1155   -3.3037    0.0017 C.1     1  LIG1       -0.0669
     23 C          -5.8323   -4.2699    0.0019 C.1     1  LIG1       -0.1138
     24 H          -6.4634   -5.1288    0.0021 H       1  LIG1        0.1232
@<TRIPOS>BOND
     1     7     1    1
     2     8     9    3
     3     1     2   ar
     4     1     5   ar
     5     9     2    1
     6     2     3   ar
     7     6     5    1
     8     5     4   ar
     9     3     4   ar
    10     3    10    1
    11    20    21    3
    12     4    13    1
    13    10    11    3
    14    21    14    1
    15    11    12    1
    16    13    14   ar
    17    13    17   ar
    18    14    15   ar
    19    17    18    1
    20    17    16   ar
    21    15    22    1
    22    15    16   ar
    23    22    23    3
    24    16    19    1
    25    23    24    1
