@<TRIPOS>MOLECULE
mol_data/opt/cam/geoms/mol2/13de13de.out
 24 25 0 0 0
SMALL
GASTEIGER

@<TRIPOS>ATOM
      1 C           1.1209   -0.3060   -0.6131 C.ar    1  LIG1        0.0209
      2 C           0.8241    0.9638   -0.1767 C.ar    1  LIG1        0.0850
      3 C          -0.5726    0.9975    0.1512 C.ar    1  LIG1        0.0687
      4 C          -1.0691   -0.2666   -0.1064 C.ar    1  LIG1        0.0810
      5 N          -0.0206   -1.0409   -0.5555 N.ar    1  LIG1       -0.3573
      6 H          -0.1247   -1.9714   -0.9282 H       1  LIG1        0.1655
      7 H           2.0552   -0.7200   -0.9579 H       1  LIG1        0.0820
      8 N           2.5133    2.8997    0.0406 N.1     1  LIG1       -0.1908
      9 C           1.7502    2.0358   -0.0571 C.1     1  LIG1        0.1019
     10 C          -1.2917    2.1031    0.6726 C.1     1  LIG1       -0.0662
     11 C          -1.8952    3.0446    1.1147 C.1     1  LIG1       -0.1138
     12 H          -2.4354    3.8845    1.4874 H       1  LIG1        0.1232
     13 C          -2.4000   -0.8212    0.0639 C.ar    1  LIG1        0.0829
     14 C          -3.6414   -0.3691   -0.3442 C.ar    1  LIG1        0.0937
     15 C          -4.6208   -1.3245    0.0917 C.ar    1  LIG1        0.0600
     16 C          -3.9342   -2.3209    0.7427 C.ar    1  LIG1        0.0190
     17 N          -2.6038   -2.0142    0.7100 N.ar    1  LIG1       -0.3573
     18 H          -1.8864   -2.5087    1.2162 H       1  LIG1        0.1655
     19 H          -4.3023   -3.2144    1.2211 H       1  LIG1        0.0820
     20 N          -4.1282    1.7413   -1.7412 N.1     1  LIG1       -0.1908
     21 C          -3.9015    0.7998   -1.1085 C.1     1  LIG1        0.1026
     22 C          -6.0234   -1.2591   -0.1223 C.1     1  LIG1       -0.0669
     23 C          -7.2103   -1.1964   -0.3077 C.1     1  LIG1       -0.1138
     24 H          -8.2607   -1.1317   -0.4760 H       1  LIG1        0.1232
@<TRIPOS>BOND
     1    20    21    3
     2    21    14    1
     3     7     1    1
     4     6     5    1
     5     1     5   ar
     6     1     2   ar
     7     5     4   ar
     8    24    23    1
     9    14    13   ar
    10    14    15   ar
    11    23    22    3
    12     2     9    1
    13     2     3   ar
    14    22    15    1
    15     4    13    1
    16     4     3   ar
    17     9     8    3
    18    13    17   ar
    19    15    16   ar
    20     3    10    1
    21    10    11    3
    22    17    16   ar
    23    17    18    1
    24    16    19    1
    25    11    12    1
