@<TRIPOS>MOLECULE
mol_data/opt/cam/geoms/mol2/13de13dd13ha-4fi.out
 47 50 0 0 0
SMALL
GASTEIGER

@<TRIPOS>ATOM
      1 C           0.7182    0.1241    1.7092 C.ar    1  LIG1        0.0209
      2 C           0.7819    0.9164    0.5870 C.ar    1  LIG1        0.0850
      3 C          -0.4535    0.7624   -0.1266 C.ar    1  LIG1        0.0687
      4 C          -1.2232   -0.1242    0.6031 C.ar    1  LIG1        0.0810
      5 N          -0.4852   -0.5068    1.7036 N.ar    1  LIG1       -0.3573
      6 H          -0.8507   -1.0517    2.4688 H       1  LIG1        0.1655
      7 H           1.4402   -0.0211    2.4971 H       1  LIG1        0.0820
      8 N           2.7981    2.3684   -0.1021 N.1     1  LIG1       -0.1908
      9 C           1.8892    1.7214    0.2035 C.1     1  LIG1        0.1019
     10 C          -0.8003    1.3727   -1.3589 C.1     1  LIG1       -0.0662
     11 C          -1.0890    1.8936   -2.4037 C.1     1  LIG1       -0.1138
     12 H          -1.3537    2.3714   -3.3191 H       1  LIG1        0.1232
     13 C          -2.5438   -0.6694    0.3509 C.ar    1  LIG1        0.0835
     14 C          -3.7419   -0.0585    0.0498 C.ar    1  LIG1        0.0964
     15 C          -4.7299   -1.0905   -0.0819 C.ar    1  LIG1        0.0964
     16 C          -4.1082   -2.3098    0.1641 C.ar    1  LIG1        0.0840
     17 N          -2.7921   -2.0221    0.4181 N.ar    1  LIG1       -0.3497
     18 H          -2.1046   -2.7270    0.6345 H       1  LIG1        0.1661
     19 N          -4.1688    2.4739   -0.1636 N.1     1  LIG1       -0.1908
     20 C          -3.9669    1.3386   -0.0724 C.1     1  LIG1        0.1026
     21 N          -7.2147   -0.8598   -0.7071 N.1     1  LIG1       -0.1908
     22 C          -6.0897   -0.9309   -0.4366 C.1     1  LIG1        0.1026
     23 C          -4.5833   -3.6645    0.1738 C.ar    1  LIG1        0.0856
     24 C          -5.7738   -4.2335    0.6051 C.ar    1  LIG1        0.0523
     25 C          -5.6124   -5.6459    0.5230 C.ar    1  LIG1       -0.0149
     26 C          -4.3493   -5.9141    0.0536 C.ar    1  LIG1        0.0523
     27 N          -3.6955   -4.7111   -0.1145 N.ar    1  LIG1       -0.3514
     28 H          -3.0096   -4.6150   -0.8502 H       1  LIG1        0.1660
     29 N          -6.8752   -3.6003    1.1456 N.pl3   1  LIG1       -0.3563
     30 H          -7.1368   -2.7133    0.7358 H       1  LIG1        0.1424
     31 H          -7.6746   -4.2050    1.2623 H       1  LIG1        0.1424
     32 H          -6.3458   -6.3842    0.8036 H       1  LIG1        0.0657
     33 C          -4.3738   -8.3599   -0.5045 C.ar    1  LIG1        0.1260
     34 C          -3.6849   -9.5240   -0.8305 C.ar    1  LIG1       -0.0193
     35 C          -3.6689   -7.1717   -0.2586 C.ar    1  LIG1        0.0400
     36 C          -2.3018   -9.5300   -0.9120 C.ar    1  LIG1       -0.0554
     37 H          -4.2451  -10.4360   -1.0219 H       1  LIG1        0.0654
     38 C          -2.2711   -7.2196   -0.3338 C.ar    1  LIG1       -0.0462
     39 C          -1.5670   -8.3715   -0.6614 C.ar    1  LIG1       -0.0496
     40 H          -1.7119   -6.3188   -0.0991 H       1  LIG1        0.0628
     41 H          -1.7873  -10.4521   -1.1654 H       1  LIG1        0.0621
     42 O          -5.7318   -8.3401   -0.4167 O.3     1  LIG1       -0.5061
     43 H          -6.0778   -9.2093   -0.6510 H       1  LIG1        0.2922
     44 C          -0.0631   -8.3740   -0.7462 C.3     1  LIG1       -0.0397
     45 H           0.3598   -7.4492   -0.3474 H       1  LIG1        0.0278
     46 H           0.2778   -8.4729   -1.7819 H       1  LIG1        0.0278
     47 H           0.3673   -9.2070   -0.1832 H       1  LIG1        0.0278
@<TRIPOS>BOND
     1    12    11    1
     2    11    10    3
     3    46    44    1
     4    10     3    1
     5    41    36    1
     6    37    34    1
     7    36    34   ar
     8    36    39   ar
     9    28    27    1
    10    34    33   ar
    11    44    39    1
    12    44    45    1
    13    44    47    1
    14    21    22    3
    15    39    38   ar
    16    43    42    1
    17    33    42    1
    18    33    35   ar
    19    22    15    1
    20    38    35   ar
    21    38    40    1
    22    35    26    1
    23    19    20    3
    24     3     2   ar
    25     3     4   ar
    26    27    26   ar
    27    27    23   ar
    28     8     9    3
    29    15    14   ar
    30    15    16   ar
    31    20    14    1
    32    14    13   ar
    33    26    25   ar
    34    16    23    1
    35    16    17   ar
    36    23    24   ar
    37     9     2    1
    38    13    17   ar
    39    13     4    1
    40    17    18    1
    41    25    24   ar
    42    25    32    1
    43     2     1   ar
    44     4     5   ar
    45    24    29    1
    46    30    29    1
    47    29    31    1
    48     5     1   ar
    49     5     6    1
    50     1     7    1
