@<TRIPOS>MOLECULE
mol_data/opt/cam/geoms/mol2/13de13de-13de.out
 35 37 0 0 0
SMALL
GASTEIGER

@<TRIPOS>ATOM
      1 C           1.2821   -0.4134   -0.0010 C.ar    1  LIG1        0.0209
      2 C           0.9335    0.9187   -0.0006 C.ar    1  LIG1        0.0850
      3 C          -0.4957    0.9862    0.0002 C.ar    1  LIG1        0.0687
      4 C          -0.9581   -0.3226    0.0002 C.ar    1  LIG1        0.0810
      5 N           0.1437   -1.1464   -0.0005 N.ar    1  LIG1       -0.3573
      6 H           0.1081   -2.1571   -0.0007 H       1  LIG1        0.1655
      7 H           2.2573   -0.8741   -0.0016 H       1  LIG1        0.0820
      8 N           2.5709    2.9096   -0.0011 N.1     1  LIG1       -0.1908
      9 C           1.8332    2.0185   -0.0008 C.1     1  LIG1        0.1019
     10 C          -1.2891    2.1599    0.0008 C.1     1  LIG1       -0.0662
     11 C          -1.9649    3.1571    0.0013 C.1     1  LIG1       -0.1138
     12 H          -2.6043    4.0114    0.0018 H       1  LIG1        0.1232
     13 C          -2.3062   -0.8441    0.0008 C.ar    1  LIG1        0.0834
     14 C          -2.7459   -2.1623    0.0008 C.ar    1  LIG1        0.0944
     15 C          -4.1730   -2.1500    0.0015 C.ar    1  LIG1        0.0694
     16 C          -4.5626   -0.8175    0.0019 C.ar    1  LIG1        0.0815
     17 N          -3.4201   -0.0544    0.0015 N.ar    1  LIG1       -0.3498
     18 H          -3.3817    0.9607    0.0017 H       1  LIG1        0.1661
     19 N          -1.1597   -4.1884   -0.0004 N.1     1  LIG1       -0.1908
     20 C          -1.9092   -3.3039    0.0001 C.1     1  LIG1        0.1026
     21 C          -5.0032   -3.3000    0.0017 C.1     1  LIG1       -0.0662
     22 C          -5.6965   -4.2863    0.0019 C.1     1  LIG1       -0.1138
     23 H          -6.2819   -5.1780    0.0020 H       1  LIG1        0.1232
     24 C          -5.9014   -0.2682    0.0027 C.ar    1  LIG1        0.0829
     25 C          -6.3849    1.0358    0.0032 C.ar    1  LIG1        0.0937
     26 C          -7.8176    0.9748    0.0040 C.ar    1  LIG1        0.0600
     27 C          -8.1467   -0.3596    0.0039 C.ar    1  LIG1        0.0190
     28 N          -6.9955   -1.0865    0.0032 N.ar    1  LIG1       -0.3573
     29 H          -6.9322   -2.0961    0.0030 H       1  LIG1        0.1655
     30 H          -9.1164   -0.8308    0.0043 H       1  LIG1        0.0820
     31 N          -4.9923    3.2002    0.0028 N.1     1  LIG1       -0.1908
     32 C          -5.6181    2.2256    0.0030 C.1     1  LIG1        0.1026
     33 C          -8.7108    2.0780    0.0046 C.1     1  LIG1       -0.0669
     34 C          -9.4603    3.0191    0.0052 C.1     1  LIG1       -0.1138
     35 H         -10.1194    3.8567    0.0057 H       1  LIG1        0.1232
@<TRIPOS>BOND
     1     7     1    1
     2     8     9    3
     3     1     2   ar
     4     1     5   ar
     5     9     2    1
     6     6     5    1
     7     2     3   ar
     8     5     4   ar
     9    19    20    3
    10    20    14    1
    11     4     3   ar
    12     4    13    1
    13     3    10    1
    14    14    13   ar
    15    14    15   ar
    16    13    17   ar
    17    10    11    3
    18    11    12    1
    19    17    18    1
    20    17    16   ar
    21    15    21    1
    22    15    16   ar
    23    21    22    3
    24    22    23    1
    25    16    24    1
    26    24    28   ar
    27    24    25   ar
    28    31    32    3
    29    29    28    1
    30    32    25    1
    31    28    27   ar
    32    25    26   ar
    33    27    26   ar
    34    27    30    1
    35    26    33    1
    36    33    34    3
    37    34    35    1
