@<TRIPOS>MOLECULE
mol_data/opt/cam/geoms/mol2/13de13de13de13de-.out
 46 49 0 0 0
SMALL
GASTEIGER

@<TRIPOS>ATOM
      1 C           1.0685   -0.8942    0.0074 C.ar    1  LIG1        0.0209
      2 C           0.9064    0.4244   -0.3518 C.ar    1  LIG1        0.0850
      3 C          -0.4997    0.7048   -0.3590 C.ar    1  LIG1        0.0687
      4 C          -1.1363   -0.4678    0.0106 C.ar    1  LIG1        0.0810
      5 N          -0.1616   -1.4255    0.2155 N.ar    1  LIG1       -0.3573
      6 H          -0.3251   -2.3673    0.5478 H       1  LIG1        0.1655
      7 H           1.9699   -1.4734    0.1313 H       1  LIG1        0.0820
      8 N           2.8114    2.0597   -0.9387 N.1     1  LIG1       -0.1908
      9 C           1.9526    1.3309   -0.6749 C.1     1  LIG1        0.1019
     10 C          -1.1082    1.9294   -0.7307 C.1     1  LIG1       -0.0662
     11 C          -1.6170    2.9700   -1.0542 C.1     1  LIG1       -0.1138
     12 H          -2.0768    3.8951   -1.3168 H       1  LIG1        0.1232
     13 C          -2.5347   -0.8206    0.1331 C.ar    1  LIG1        0.0834
     14 C          -3.6668   -0.1549    0.5770 C.ar    1  LIG1        0.0944
     15 C          -4.7740   -1.0706    0.5131 C.ar    1  LIG1        0.0694
     16 C          -4.2761   -2.2668    0.0358 C.ar    1  LIG1        0.0815
     17 N          -2.9232   -2.0939   -0.1779 N.ar    1  LIG1       -0.3498
     18 H          -2.3586   -2.7195   -0.7345 H       1  LIG1        0.1661
     19 N          -3.8254    2.2119    1.5829 N.1     1  LIG1       -0.1908
     20 C          -3.7385    1.1561    1.1183 C.1     1  LIG1        0.1026
     21 C          -6.1001   -0.8151    0.9420 C.1     1  LIG1       -0.0662
     22 C          -7.2265   -0.6015    1.3050 C.1     1  LIG1       -0.1138
     23 H          -8.2307   -0.4123    1.6088 H       1  LIG1        0.1232
     24 C          -4.7972   -3.6094   -0.0966 C.ar    1  LIG1        0.0834
     25 C          -5.9983   -4.2030   -0.4587 C.ar    1  LIG1        0.0944
     26 C          -5.7959   -5.6255   -0.4448 C.ar    1  LIG1        0.0694
     27 C          -4.4751   -5.8441   -0.0837 C.ar    1  LIG1        0.0815
     28 N          -3.9087   -4.6203    0.1248 N.ar    1  LIG1       -0.3498
     29 H          -2.9897   -4.4789    0.5183 H       1  LIG1        0.1661
     30 N          -8.1896   -3.0541   -1.1758 N.1     1  LIG1       -0.1908
     31 C          -7.2000   -3.5541   -0.8458 C.1     1  LIG1        0.1026
     32 C          -6.7460   -6.6297   -0.7631 C.1     1  LIG1       -0.0662
     33 C          -7.5399   -7.4982   -1.0238 C.1     1  LIG1       -0.1138
     34 H          -8.2732   -8.2331   -1.2691 H       1  LIG1        0.1232
     35 C          -3.6805   -7.0400    0.0462 C.ar    1  LIG1        0.0829
     36 C          -2.3073   -7.1748    0.2504 C.ar    1  LIG1        0.0937
     37 C          -2.0084   -8.5768    0.2931 C.ar    1  LIG1        0.0600
     38 C          -3.2046   -9.2295    0.1099 C.ar    1  LIG1        0.0190
     39 N          -4.1927   -8.2966   -0.0343 N.ar    1  LIG1       -0.3573
     40 H          -5.1729   -8.4821   -0.2027 H       1  LIG1        0.1655
     41 H          -3.4123  -10.2868    0.0739 H       1  LIG1        0.0820
     42 N          -0.8122   -5.0894    0.4398 N.1     1  LIG1       -0.1908
     43 C          -1.4193   -6.0764    0.3626 C.1     1  LIG1        0.1026
     44 C          -0.7301   -9.1646    0.4818 C.1     1  LIG1       -0.0669
     45 C           0.3585   -9.6505    0.6425 C.1     1  LIG1       -0.1138
     46 H           1.3235  -10.0808    0.7849 H       1  LIG1        0.1232
@<TRIPOS>BOND
     1    12    11    1
     2    34    33    1
     3    30    31    3
     4    11    10    3
     5    33    32    3
     6     8     9    3
     7    31    25    1
     8    32    26    1
     9    18    17    1
    10    10     3    1
    11     9     2    1
    12    25    26   ar
    13    25    24   ar
    14    26    27   ar
    15     3     2   ar
    16     3     4   ar
    17     2     1   ar
    18    40    39    1
    19    17    16   ar
    20    17    13   ar
    21    24    16    1
    22    24    28   ar
    23    27    35    1
    24    27    28   ar
    25    39    35   ar
    26    39    38   ar
    27     1     7    1
    28     1     5   ar
    29     4    13    1
    30     4     5   ar
    31    16    15   ar
    32    35    36   ar
    33    41    38    1
    34    38    37   ar
    35    28    29    1
    36    13    14   ar
    37     5     6    1
    38    36    37   ar
    39    36    43    1
    40    37    44    1
    41    43    42    3
    42    44    45    3
    43    15    14   ar
    44    15    21    1
    45    14    20    1
    46    45    46    1
    47    21    22    3
    48    20    19    3
    49    22    23    1
