@<TRIPOS>MOLECULE
mol_data/opt/cam/geoms/mol2/13de13de-13de-13de-.out
 46 49 0 0 0
SMALL
GASTEIGER

@<TRIPOS>ATOM
      1 C           1.2633   -0.1967   -0.4531 C.ar    1  LIG1        0.0209
      2 C           0.7807    1.0109   -0.9042 C.ar    1  LIG1        0.0850
      3 C          -0.6473    0.9601   -0.8117 C.ar    1  LIG1        0.0687
      4 C          -0.9701   -0.2901   -0.3008 C.ar    1  LIG1        0.0810
      5 N           0.2059   -0.9659   -0.0951 N.ar    1  LIG1       -0.3573
      6 H           0.2682   -1.9079    0.2705 H       1  LIG1        0.1655
      7 H           2.2794   -0.5477   -0.3677 H       1  LIG1        0.0820
      8 N           2.1876    2.9984   -1.7500 N.1     1  LIG1       -0.1908
      9 C           1.5574    2.1050   -1.3720 C.1     1  LIG1        0.1019
     10 C          -1.5551    1.9854   -1.1835 C.1     1  LIG1       -0.0662
     11 C          -2.3301    2.8517   -1.5043 C.1     1  LIG1       -0.1138
     12 H          -2.9785    3.6397   -1.8161 H       1  LIG1        0.1232
     13 C          -2.2625   -0.8625   -0.0036 C.ar    1  LIG1        0.0834
     14 C          -2.6161   -2.1099    0.4968 C.ar    1  LIG1        0.0944
     15 C          -4.0425   -2.1641    0.5900 C.ar    1  LIG1        0.0694
     16 C          -4.5100   -0.9439    0.1360 C.ar    1  LIG1        0.0815
     17 N          -3.4206   -0.1756   -0.2045 N.ar    1  LIG1       -0.3498
     18 H          -3.4515    0.7253   -0.6668 H       1  LIG1        0.1661
     19 N          -0.8449   -3.8655    1.1296 N.1     1  LIG1       -0.1908
     20 C          -1.6852   -3.1142    0.8594 C.1     1  LIG1        0.1026
     21 C          -4.8103   -3.2437    1.0938 C.1     1  LIG1       -0.0662
     22 C          -5.4525   -4.1650    1.5239 C.1     1  LIG1       -0.1138
     23 H          -6.0287   -4.9877    1.8814 H       1  LIG1        0.1232
     24 C          -5.8570   -0.4143    0.0453 C.ar    1  LIG1        0.0834
     25 C          -7.0244   -0.9492   -0.4713 C.ar    1  LIG1        0.0944
     26 C          -8.0604    0.0291   -0.3251 C.ar    1  LIG1        0.0694
     27 C          -7.4850    1.1359    0.2714 C.ar    1  LIG1        0.0815
     28 N          -6.1582    0.8456    0.4872 N.ar    1  LIG1       -0.3498
     29 H          -5.4944    1.4786    0.9060 H       1  LIG1        0.1661
     30 N          -7.2973   -3.2588   -1.5819 N.1     1  LIG1       -0.1908
     31 C          -7.1690   -2.2250   -1.0793 C.1     1  LIG1        0.1026
     32 C          -9.4182   -0.1181   -0.7069 C.1     1  LIG1       -0.0662
     33 C         -10.5677   -0.2495   -1.0344 C.1     1  LIG1       -0.1138
     34 H         -11.5826   -0.3595   -1.3417 H       1  LIG1        0.1232
     35 C          -8.0635    2.4027    0.6842 C.ar    1  LIG1        0.0829
     36 C          -8.8177    3.3298   -0.0105 C.ar    1  LIG1        0.0937
     37 C          -9.1182    4.4105    0.8851 C.ar    1  LIG1        0.0600
     38 C          -8.5306    4.0972    2.0876 C.ar    1  LIG1        0.0190
     39 N          -7.8919    2.8980    1.9522 N.ar    1  LIG1       -0.3573
     40 H          -7.4850    2.3754    2.7119 H       1  LIG1        0.1655
     41 H          -8.5286    4.6427    3.0177 H       1  LIG1        0.0820
     42 N          -9.4671    3.2109   -2.5020 N.1     1  LIG1       -0.1908
     43 C          -9.1798    3.2551   -1.3824 C.1     1  LIG1        0.1026
     44 C          -9.8638    5.5808    0.5823 C.1     1  LIG1       -0.0669
     45 C         -10.4958    6.5693    0.3174 C.1     1  LIG1       -0.1138
     46 H         -11.0582    7.4417    0.0748 H       1  LIG1        0.1232
@<TRIPOS>BOND
     1    42    43    3
     2    12    11    1
     3     8     9    3
     4    30    31    3
     5    11    10    3
     6    43    36    1
     7     9     2    1
     8    34    33    1
     9    10     3    1
    10    31    25    1
    11    33    32    3
    12     2     3   ar
    13     2     1   ar
    14     3     4   ar
    15    32    26    1
    16    18    17    1
    17    25    26   ar
    18    25    24   ar
    19     1     7    1
    20     1     5   ar
    21    26    27   ar
    22     4     5   ar
    23     4    13    1
    24    17    13   ar
    25    17    16   ar
    26     5     6    1
    27    36    35   ar
    28    36    37   ar
    29    13    14   ar
    30    24    16    1
    31    24    28   ar
    32    46    45    1
    33    16    15   ar
    34    27    28   ar
    35    27    35    1
    36    45    44    3
    37    28    29    1
    38    14    15   ar
    39    14    20    1
    40    44    37    1
    41    15    21    1
    42    35    39   ar
    43    20    19    3
    44    37    38   ar
    45    21    22    3
    46    22    23    1
    47    39    38   ar
    48    39    40    1
    49    38    41    1
