@<TRIPOS>MOLECULE
mol_data/opt/cam/geoms/mol2/13df13df13df13df-.out
 42 45 0 0 0
SMALL
GASTEIGER

@<TRIPOS>ATOM
      1 C           1.1365   -0.5832    0.0658 C.ar    1  LIG1        0.0233
      2 C           0.8565    0.7436    0.3240 C.ar    1  LIG1        0.1110
      3 C          -0.5588    0.9031    0.2558 C.ar    1  LIG1        0.1609
      4 C          -1.1001   -0.3430   -0.0350 C.ar    1  LIG1        0.1076
      5 N          -0.0298   -1.2311   -0.1364 N.ar    1  LIG1       -0.3554
      6 H          -0.1002   -2.1755   -0.4860 H       1  LIG1        0.1655
      7 H           2.0894   -1.0842   -0.0023 H       1  LIG1        0.0821
      8 N           2.5915    2.5788    0.8371 N.1     1  LIG1       -0.1907
      9 C           1.8057    1.7612    0.6083 C.1     1  LIG1        0.1043
     10 O          -1.1471    2.0739    0.5288 O.3     1  LIG1       -0.5034
     11 H          -1.9976    2.1841    0.0741 H       1  LIG1        0.2923
     12 C          -2.4502   -0.8287   -0.1209 C.ar    1  LIG1        0.0882
     13 C          -3.6543   -0.2024   -0.4267 C.ar    1  LIG1        0.1205
     14 C          -4.6980   -1.1734   -0.3271 C.ar    1  LIG1        0.1616
     15 C          -4.1114   -2.3759    0.0166 C.ar    1  LIG1        0.1081
     16 N          -2.7336   -2.1393    0.1217 N.ar    1  LIG1       -0.3478
     17 H          -2.1325   -2.7088    0.7004 H       1  LIG1        0.1661
     18 N          -3.7918    2.2740   -1.1008 N.1     1  LIG1       -0.1907
     19 C          -3.7813    1.1505   -0.8128 C.1     1  LIG1        0.1050
     20 O          -5.9630   -0.8620   -0.6317 O.3     1  LIG1       -0.5034
     21 H          -6.6012   -1.5049   -0.2880 H       1  LIG1        0.2923
     22 C          -4.5751   -3.7326    0.0920 C.ar    1  LIG1        0.0883
     23 C          -5.8285   -4.3140    0.3163 C.ar    1  LIG1        0.1205
     24 C          -5.6470   -5.7289    0.2845 C.ar    1  LIG1        0.1616
     25 C          -4.3153   -5.9820    0.0605 C.ar    1  LIG1        0.1080
     26 N          -3.6928   -4.7488   -0.0515 N.ar    1  LIG1       -0.3478
     27 H          -2.7392   -4.6299   -0.3612 H       1  LIG1        0.1661
     28 N          -8.0026   -3.0016    0.7145 N.1     1  LIG1       -0.1907
     29 C          -7.0291   -3.6118    0.5464 C.1     1  LIG1        0.1050
     30 O          -6.5686   -6.7066    0.4564 O.3     1  LIG1       -0.5034
     31 H          -7.4399   -6.3256    0.6234 H       1  LIG1        0.2923
     32 C          -3.5862   -7.2155   -0.0290 C.ar    1  LIG1        0.0878
     33 C          -2.2103   -7.4292   -0.1861 C.ar    1  LIG1        0.1198
     34 C          -2.0058   -8.8453   -0.2111 C.ar    1  LIG1        0.1521
     35 C          -3.2292   -9.4388   -0.0709 C.ar    1  LIG1        0.0455
     36 N          -4.1707   -8.4307    0.0366 N.ar    1  LIG1       -0.3553
     37 H          -5.1648   -8.5557    0.1601 H       1  LIG1        0.1655
     38 H          -3.4964  -10.4813   -0.0406 H       1  LIG1        0.0845
     39 N          -0.5501   -5.4730   -0.3536 N.1     1  LIG1       -0.1907
     40 C          -1.2552   -6.3948   -0.2817 C.1     1  LIG1        0.1050
     41 O          -0.8357   -9.5087   -0.3444 O.3     1  LIG1       -0.5040
     42 H          -0.1097   -8.8808   -0.4361 H       1  LIG1        0.2923
@<TRIPOS>BOND
     1    18    19    3
     2    19    13    1
     3    20    14    1
     4    20    21    1
     5     6     5    1
     6    42    41    1
     7    13    14   ar
     8    13    12   ar
     9    27    26    1
    10    39    40    3
    11    41    34    1
    12    14    15   ar
    13    40    33    1
    14    34    33   ar
    15    34    35   ar
    16    33    32   ar
    17     5     4   ar
    18     5     1   ar
    19    12     4    1
    20    12    16   ar
    21    35    38    1
    22    35    36   ar
    23    26    25   ar
    24    26    22   ar
    25     4     3   ar
    26    32    36   ar
    27    32    25    1
    28     7     1    1
    29    15    22    1
    30    15    16   ar
    31    36    37    1
    32    25    24   ar
    33     1     2   ar
    34    11    10    1
    35    22    23   ar
    36    16    17    1
    37     3     2   ar
    38     3    10    1
    39    24    23   ar
    40    24    30    1
    41    23    29    1
    42     2     9    1
    43    30    31    1
    44    29    28    3
    45     9     8    3
