@<TRIPOS>MOLECULE
mol_data/opt/cam/geoms/mol2/13df4ie-4fh13af-.out
 49 52 0 0 0
SMALL
GASTEIGER

@<TRIPOS>ATOM
      1 C           1.3032   -0.0826    0.4883 C.ar    1  LIG1        0.0233
      2 C           0.9442    1.1186   -0.0940 C.ar    1  LIG1        0.1109
      3 C          -0.4591    1.0551   -0.3350 C.ar    1  LIG1        0.1594
      4 C          -0.9192   -0.1616    0.1125 C.ar    1  LIG1        0.0901
      5 N           0.1898   -0.8434    0.5897 N.ar    1  LIG1       -0.3565
      6 H           0.1413   -1.7503    1.0247 H       1  LIG1        0.1655
      7 H           2.2687   -0.4222    0.8281 H       1  LIG1        0.0821
      8 N           2.5354    3.0638   -0.6643 N.1     1  LIG1       -0.1907
      9 C           1.8168    2.1928   -0.4098 C.1     1  LIG1        0.1043
     10 O          -1.1564    2.0536   -0.9324 O.3     1  LIG1       -0.5034
     11 H          -1.9733    1.6897   -1.2966 H       1  LIG1        0.2923
     12 C          -3.3817   -0.1220    0.6266 C.ar    1  LIG1       -0.0406
     13 C          -4.6187   -0.7491    0.5243 C.ar    1  LIG1       -0.0492
     14 C          -2.2598   -0.7643    0.0663 C.ar    1  LIG1        0.0060
     15 C          -4.8004   -1.9938   -0.0795 C.ar    1  LIG1        0.0013
     16 H          -5.4868   -0.2564    0.9467 H       1  LIG1        0.0627
     17 C          -2.4253   -2.0061   -0.5423 C.ar    1  LIG1       -0.0363
     18 C          -3.6702   -2.6361   -0.6210 C.ar    1  LIG1        0.0331
     19 H          -1.5698   -2.4935   -0.9980 H       1  LIG1        0.0637
     20 C          -3.2601    1.1812    1.3720 C.3     1  LIG1       -0.0391
     21 H          -4.2175    1.4630    1.8132 H       1  LIG1        0.0278
     22 H          -2.9267    2.0015    0.7313 H       1  LIG1        0.0278
     23 H          -2.5222    1.1008    2.1755 H       1  LIG1        0.0278
     24 C          -3.7412   -3.8965   -1.3010 C.1     1  LIG1       -0.0690
     25 C          -3.7402   -4.9480   -1.8877 C.1     1  LIG1       -0.1139
     26 H          -3.7553   -5.8723   -2.4177 H       1  LIG1        0.1232
     27 C          -7.2718   -1.9013   -0.5583 C.ar    1  LIG1        0.1253
     28 C          -8.5258   -2.4930   -0.5349 C.ar    1  LIG1       -0.0087
     29 C          -6.1511   -2.6080   -0.1043 C.ar    1  LIG1        0.0265
     30 C          -8.7260   -3.7946   -0.0711 C.ar    1  LIG1        0.0225
     31 H          -9.3892   -1.9168   -0.8551 H       1  LIG1        0.0661
     32 C          -6.3529   -3.9129    0.3426 C.ar    1  LIG1       -0.0292
     33 C          -7.6021   -4.5203    0.3645 C.ar    1  LIG1        0.0346
     34 H          -5.4924   -4.4811    0.6806 H       1  LIG1        0.0643
     35 O          -7.0947   -0.6244   -1.0101 O.3     1  LIG1       -0.5061
     36 H          -7.9403   -0.2838   -1.3239 H       1  LIG1        0.2922
     37 N          -7.7472   -5.8453    0.8580 N.pl3   1  LIG1       -0.3574
     38 H          -8.2132   -6.4466    0.1851 H       1  LIG1        0.1423
     39 H          -6.8489   -6.2523    1.0888 H       1  LIG1        0.1423
     40 C         -10.0862   -4.3381   -0.0408 C.ar    1  LIG1        0.0519
     41 C         -11.2041   -3.9772   -0.7724 C.ar    1  LIG1        0.0052
     42 C         -12.2818   -4.7574   -0.2995 C.ar    1  LIG1        0.1347
     43 C         -11.8117   -5.5753    0.7028 C.ar    1  LIG1        0.0441
     44 N         -10.4702   -5.3153    0.8385 N.ar    1  LIG1       -0.3575
     45 H          -9.8366   -5.7169    1.5144 H       1  LIG1        0.1654
     46 H         -12.3123   -6.3172    1.3057 H       1  LIG1        0.0844
     47 H         -11.2510   -3.2556   -1.5737 H       1  LIG1        0.0675
     48 O         -13.5430   -4.6704   -0.8096 O.3     1  LIG1       -0.5053
     49 H         -14.1137   -5.2909   -0.3435 H       1  LIG1        0.2922
@<TRIPOS>BOND
     1    26    25    1
     2    25    24    3
     3    47    41    1
     4    36    35    1
     5    24    18    1
     6    11    10    1
     7    35    27    1
     8    19    17    1
     9    10     3    1
    10    31    28    1
    11    48    49    1
    12    48    42    1
    13    41    42   ar
    14    41    40   ar
    15     8     9    3
    16    18    17   ar
    17    18    15   ar
    18    27    28   ar
    19    27    29   ar
    20    17    14   ar
    21    28    30   ar
    22     9     2    1
    23     3     2   ar
    24     3     4   ar
    25    42    43   ar
    26    29    15    1
    27    29    32   ar
    28     2     1   ar
    29    15    13   ar
    30    30    40    1
    31    30    33   ar
    32    40    44   ar
    33    14     4    1
    34    14    12   ar
    35     4     5   ar
    36    38    37    1
    37    32    33   ar
    38    32    34    1
    39    33    37    1
    40     1     5   ar
    41     1     7    1
    42    13    12   ar
    43    13    16    1
    44     5     6    1
    45    12    20    1
    46    43    44   ar
    47    43    46    1
    48    22    20    1
    49    44    45    1
    50    37    39    1
    51    20    21    1
    52    20    23    1
