@<TRIPOS>MOLECULE
mol_data/opt/cam/geoms/mol2/13df13df-13df-13df.out
 42 45 0 0 0
SMALL
GASTEIGER

@<TRIPOS>ATOM
      1 C           1.2094   -0.1622   -0.0617 C.ar    1  LIG1        0.0233
      2 C           0.6789    1.0995   -0.2862 C.ar    1  LIG1        0.1110
      3 C          -0.7342    0.9492   -0.2969 C.ar    1  LIG1        0.1609
      4 C          -1.0224   -0.3817   -0.0816 C.ar    1  LIG1        0.1076
      5 N           0.1887   -1.0362    0.0544 N.ar    1  LIG1       -0.3554
      6 H           0.2849   -2.0272    0.2276 H       1  LIG1        0.1655
      7 H           2.2401   -0.4695    0.0163 H       1  LIG1        0.0821
      8 N           1.8881    3.3481   -0.6212 N.1     1  LIG1       -0.1907
      9 C           1.3745    2.3215   -0.4692 C.1     1  LIG1        0.1043
     10 O          -1.6979    1.8771   -0.4999 O.3     1  LIG1       -0.5034
     11 H          -1.3586    2.7781   -0.4196 H       1  LIG1        0.2923
     12 C          -2.3160   -0.9949    0.0250 C.ar    1  LIG1        0.0882
     13 C          -2.7054   -2.3122    0.2845 C.ar    1  LIG1        0.1205
     14 C          -4.1305   -2.3378    0.2859 C.ar    1  LIG1        0.1616
     15 C          -4.5750   -1.0595    0.0233 C.ar    1  LIG1        0.1081
     16 N          -3.4430   -0.2661   -0.1246 N.ar    1  LIG1       -0.3478
     17 H          -3.4147    0.7098   -0.3932 H       1  LIG1        0.1661
     18 N          -1.0622   -4.2468    0.7006 N.1     1  LIG1       -0.1907
     19 C          -1.8246   -3.3910    0.5174 C.1     1  LIG1        0.1050
     20 O          -4.9411   -3.3811    0.5347 O.3     1  LIG1       -0.5034
     21 H          -4.4298   -4.1949    0.6241 H       1  LIG1        0.2923
     22 C          -5.8912   -0.4829   -0.0286 C.ar    1  LIG1        0.0883
     23 C          -7.1604   -1.0247   -0.2559 C.ar    1  LIG1        0.1205
     24 C          -8.0842    0.0578   -0.2164 C.ar    1  LIG1        0.1616
     25 C          -7.3869    1.2179    0.0185 C.ar    1  LIG1        0.1080
     26 N          -6.0553    0.8555    0.1312 N.ar    1  LIG1       -0.3478
     27 H          -5.3308    1.5011    0.4131 H       1  LIG1        0.1661
     28 N          -8.0357   -3.3712   -0.8279 N.1     1  LIG1       -0.1907
     29 C          -7.5663   -2.3463   -0.5582 C.1     1  LIG1        0.1050
     30 O          -9.4266    0.0079   -0.3944 O.3     1  LIG1       -0.5034
     31 H          -9.6941   -0.9017   -0.5866 H       1  LIG1        0.2923
     32 C          -7.8432    2.5764    0.1096 C.ar    1  LIG1        0.0878
     33 C          -7.1210    3.7652    0.2466 C.ar    1  LIG1        0.1198
     34 C          -8.0706    4.8294    0.2737 C.ar    1  LIG1        0.1521
     35 C          -9.3172    4.2773    0.1538 C.ar    1  LIG1        0.0455
     36 N          -9.1542    2.9057    0.0573 N.ar    1  LIG1       -0.3553
     37 H          -9.8868    2.2212   -0.0594 H       1  LIG1        0.1655
     38 H         -10.2931    4.7346    0.1308 H       1  LIG1        0.0845
     39 N          -4.5530    3.7531    0.3582 N.1     1  LIG1       -0.1907
     40 C          -5.7110    3.8291    0.3142 C.1     1  LIG1        0.1050
     41 O          -7.6970    6.1234    0.3986 O.3     1  LIG1       -0.5040
     42 H          -8.4768    6.6898    0.3862 H       1  LIG1        0.2923
@<TRIPOS>BOND
     1    28    29    3
     2     8     9    3
     3    31    30    1
     4    29    23    1
     5    10    11    1
     6    10     3    1
     7     9     2    1
     8    30    24    1
     9    17    16    1
    10     3     2   ar
    11     3     4   ar
    12     2     1   ar
    13    23    24   ar
    14    23    22   ar
    15    24    25   ar
    16    16    15   ar
    17    16    12   ar
    18     4    12    1
    19     4     5   ar
    20     1     7    1
    21     1     5   ar
    22    37    36    1
    23    22    15    1
    24    22    26   ar
    25    25    32    1
    26    25    26   ar
    27    15    14   ar
    28    12    13   ar
    29     5     6    1
    30    36    32   ar
    31    36    35   ar
    32    32    33   ar
    33    38    35    1
    34    26    27    1
    35    35    34   ar
    36    33    34   ar
    37    33    40    1
    38    34    41    1
    39    13    14   ar
    40    13    19    1
    41    14    20    1
    42    40    39    3
    43    42    41    1
    44    19    18    3
    45    20    21    1
