@<TRIPOS>MOLECULE
mol_data/opt/cam/geoms/mol2/13df13aa12dd-13li.out
 44 47 0 0 0
SMALL
GASTEIGER

@<TRIPOS>ATOM
      1 C           1.2593    0.2749    0.6548 C.ar    1  LIG1        0.0233
      2 C           0.9236    1.2297   -0.2863 C.ar    1  LIG1        0.1110
      3 C          -0.4661    1.0705   -0.5593 C.ar    1  LIG1        0.1609
      4 C          -0.9339    0.0317    0.2135 C.ar    1  LIG1        0.1062
      5 N           0.1514   -0.4497    0.9364 N.ar    1  LIG1       -0.3554
      6 H           0.0773   -1.1137    1.6895 H       1  LIG1        0.1655
      7 H           2.2084    0.0847    1.1303 H       1  LIG1        0.0821
      8 N           2.5352    2.9373   -1.3482 N.1     1  LIG1       -0.1907
      9 C           1.8068    2.1732   -0.8745 C.1     1  LIG1        0.1043
     10 O          -1.1422    1.8180   -1.4533 O.3     1  LIG1       -0.5034
     11 H          -2.0395    1.4669   -1.5400 H       1  LIG1        0.2923
     12 C          -2.2697   -0.5256    0.2705 C.ar    1  LIG1        0.0670
     13 C          -3.4959    0.1119    0.3432 C.ar    1  LIG1       -0.0342
     14 C          -4.5032   -0.8763    0.3090 C.ar    1  LIG1       -0.0327
     15 C          -3.8717   -2.1019    0.2218 C.ar    1  LIG1        0.0839
     16 N          -2.5139   -1.8742    0.2057 N.ar    1  LIG1       -0.3505
     17 H          -1.8242   -2.5777   -0.0043 H       1  LIG1        0.1660
     18 H          -3.6387    1.1757    0.4678 H       1  LIG1        0.0639
     19 H          -5.5702   -0.7218    0.3649 H       1  LIG1        0.0640
     20 C          -4.4032   -3.4324    0.1496 C.ar    1  LIG1        0.1704
     21 C          -5.6685   -3.9413    0.0630 C.ar    1  LIG1        0.1169
     22 C          -5.5352   -5.3786    0.0117 C.ar    1  LIG1        0.1170
     23 C          -4.1914   -5.6456    0.0535 C.ar    1  LIG1        0.1740
     24 O          -3.5089   -4.4615    0.1428 O.2     1  LIG1       -0.4491
     25 N          -7.8251   -2.5360    0.0301 N.1     1  LIG1       -0.1907
     26 C          -6.8664   -3.1844    0.0412 C.1     1  LIG1        0.1043
     27 N          -7.5213   -7.0163    0.0291 N.1     1  LIG1       -0.1907
     28 C          -6.6123   -6.3006    0.0032 C.1     1  LIG1        0.1043
     29 C          -3.3881   -6.8302    0.0398 C.ar    1  LIG1        0.1259
     30 C          -3.6556   -8.1166   -0.4045 C.ar    1  LIG1        0.1512
     31 C          -2.4859   -8.9050   -0.2317 C.ar    1  LIG1        0.0092
     32 C          -1.5409   -8.0633    0.3116 C.ar    1  LIG1        0.0088
     33 N          -2.0758   -6.8209    0.4628 N.ar    1  LIG1       -0.3550
     34 H          -1.6122   -6.0215    0.8583 H       1  LIG1        0.1655
     35 H          -0.5175   -8.2686    0.5885 H       1  LIG1        0.0811
     36 O          -4.8203   -8.4671   -1.0004 O.3     1  LIG1       -0.4926
     37 C          -5.5564   -9.5220   -0.3867 C.3     1  LIG1        0.0789
     38 H          -6.5138   -9.5646   -0.9031 H       1  LIG1        0.0660
     39 H          -5.0390  -10.4807   -0.4866 H       1  LIG1        0.0660
     40 H          -5.7364   -9.3070    0.6705 H       1  LIG1        0.0660
     41 C          -2.2947  -10.3386   -0.6158 C.3     1  LIG1       -0.0348
     42 H          -1.2328  -10.5914   -0.6542 H       1  LIG1        0.0279
     43 H          -2.7209  -10.5379   -1.6028 H       1  LIG1        0.0279
     44 H          -2.7702  -11.0248    0.0922 H       1  LIG1        0.0279
@<TRIPOS>BOND
     1    43    41    1
     2    11    10    1
     3    10     3    1
     4     8     9    3
     5    36    30    1
     6    36    37    1
     7    38    37    1
     8     9     2    1
     9    42    41    1
    10    41    31    1
    11    41    44    1
    12     3     2   ar
    13     3     4   ar
    14    39    37    1
    15    30    31   ar
    16    30    29   ar
    17    37    40    1
    18     2     1   ar
    19    31    32   ar
    20    17    16    1
    21    28    22    1
    22    28    27    3
    23    22    23   ar
    24    22    21   ar
    25    25    26    3
    26    29    23    1
    27    29    33   ar
    28    26    21    1
    29    23    24   ar
    30    21    20   ar
    31    24    20   ar
    32    20    15    1
    33    16    15   ar
    34    16    12   ar
    35     4    12    1
    36     4     5   ar
    37    15    14   ar
    38    12    13   ar
    39    14    13   ar
    40    14    19    1
    41    32    33   ar
    42    32    35    1
    43    13    18    1
    44    33    34    1
    45     1     5   ar
    46     1     7    1
    47     5     6    1
