@<TRIPOS>MOLECULE
mol_data/opt/cam/geoms/mol2/13df12da13aa13ff.out
 38 41 0 0 0
SMALL
GASTEIGER

@<TRIPOS>ATOM
      1 C           1.0540   -0.1796    0.7384 C.ar    1  LIG1        0.0234
      2 C           0.7678    1.0823    0.2530 C.ar    1  LIG1        0.1111
      3 C          -0.6159    1.1067   -0.0874 C.ar    1  LIG1        0.1625
      4 C          -1.1312   -0.1516    0.2035 C.ar    1  LIG1        0.1267
      5 N          -0.0787   -0.9074    0.7052 N.ar    1  LIG1       -0.3541
      6 H          -0.1843   -1.8532    1.0330 H       1  LIG1        0.1656
      7 H           1.9862   -0.5796    1.1050 H       1  LIG1        0.0821
      8 N           2.4509    3.0182    0.0086 N.1     1  LIG1       -0.1907
      9 C           1.6879    2.1549    0.1144 C.1     1  LIG1        0.1043
     10 O          -1.1767    2.1897   -0.6399 O.3     1  LIG1       -0.5034
     11 H          -2.1416    2.2097   -0.5494 H       1  LIG1        0.2923
     12 C          -2.4214   -0.7567    0.0417 C.ar    1  LIG1        0.1727
     13 C          -3.7005   -0.2907   -0.1435 C.ar    1  LIG1        0.0996
     14 C          -4.5589   -1.4350   -0.2482 C.ar    1  LIG1        0.0037
     15 C          -3.7637   -2.5230   -0.0954 C.ar    1  LIG1        0.1531
     16 O          -2.4571   -2.1147    0.0777 O.2     1  LIG1       -0.4504
     17 N          -4.2751    2.2162   -0.2268 N.1     1  LIG1       -0.1907
     18 C          -4.0536    1.0782   -0.1922 C.1     1  LIG1        0.1030
     19 H          -5.6233   -1.4285   -0.4204 H       1  LIG1        0.0669
     20 C          -3.9965   -3.9419   -0.0731 C.ar    1  LIG1        0.0826
     21 C          -5.1619   -4.6689    0.0633 C.ar    1  LIG1       -0.0328
     22 C          -4.8222   -6.0375    0.0078 C.ar    1  LIG1       -0.0342
     23 C          -3.4530   -6.1241   -0.1582 C.ar    1  LIG1        0.0671
     24 N          -2.9649   -4.8426   -0.2144 N.ar    1  LIG1       -0.3505
     25 H          -1.9891   -4.5956   -0.2208 H       1  LIG1        0.1660
     26 H          -6.1500   -4.2518    0.1921 H       1  LIG1        0.0640
     27 H          -5.4895   -6.8825    0.0792 H       1  LIG1        0.0639
     28 C          -2.5837   -7.2713   -0.2699 C.ar    1  LIG1        0.1086
     29 C          -2.7244   -8.5433    0.2271 C.ar    1  LIG1        0.1856
     30 C          -1.5720   -9.2852   -0.1458 C.ar    1  LIG1        0.1767
     31 C          -0.7505   -8.4617   -0.8641 C.ar    1  LIG1        0.0480
     32 N          -1.3465   -7.2131   -0.9017 N.ar    1  LIG1       -0.3535
     33 H          -1.1829   -6.5790   -1.6685 H       1  LIG1        0.1656
     34 H           0.2031   -8.6482   -1.3328 H       1  LIG1        0.0845
     35 O          -3.7546   -9.0051    0.9792 O.3     1  LIG1       -0.5019
     36 H          -3.5450   -9.9133    1.2342 H       1  LIG1        0.2924
     37 O          -1.4368  -10.5805    0.2615 O.3     1  LIG1       -0.5023
     38 H          -0.5981  -10.9399   -0.0464 H       1  LIG1        0.2923
@<TRIPOS>BOND
     1    33    32    1
     2    34    31    1
     3    32    31   ar
     4    32    28   ar
     5    31    30   ar
     6    10    11    1
     7    10     3    1
     8    19    14    1
     9    28    23    1
    10    28    29   ar
    11    14    13   ar
    12    14    15   ar
    13    17    18    3
    14    25    24    1
    15    24    23   ar
    16    24    20   ar
    17    18    13    1
    18    23    22   ar
    19    30    29   ar
    20    30    37    1
    21    13    12   ar
    22    15    20    1
    23    15    16   ar
    24     3     4   ar
    25     3     2   ar
    26    20    21   ar
    27    38    37    1
    28    22    21   ar
    29    22    27    1
    30     8     9    3
    31    12    16   ar
    32    12     4    1
    33    21    26    1
    34     9     2    1
    35     4     5   ar
    36    29    35    1
    37     2     1   ar
    38     5     1   ar
    39     5     6    1
    40     1     7    1
    41    35    36    1
