@<TRIPOS>MOLECULE
mol_data/opt/cam/geoms/mol2/13df13df13df-13df-.out
 42 45 0 0 0
SMALL
GASTEIGER

@<TRIPOS>ATOM
      1 C           1.2126   -0.1762    0.4118 C.ar    1  LIG1        0.0233
      2 C           0.9011    0.9831   -0.2690 C.ar    1  LIG1        0.1110
      3 C          -0.5084    0.9877   -0.4797 C.ar    1  LIG1        0.1609
      4 C          -1.0145   -0.1788    0.0770 C.ar    1  LIG1        0.1076
      5 N           0.0710   -0.8696    0.6086 N.ar    1  LIG1       -0.3554
      6 H          -0.0000   -1.6868    1.1948 H       1  LIG1        0.1655
      7 H           2.1659   -0.5264    0.7751 H       1  LIG1        0.0821
      8 N           2.5706    2.7999   -1.0130 N.1     1  LIG1       -0.1907
      9 C           1.8161    1.9873   -0.6838 C.1     1  LIG1        0.1043
     10 O          -1.1115    1.9570   -1.1855 O.3     1  LIG1       -0.5034
     11 H          -2.0216    2.1193   -0.8981 H       1  LIG1        0.2923
     12 C          -2.3296   -0.7638    0.0728 C.ar    1  LIG1        0.0882
     13 C          -3.5989   -0.1791   -0.0023 C.ar    1  LIG1        0.1205
     14 C          -4.5526   -1.2343    0.0236 C.ar    1  LIG1        0.1616
     15 C          -3.8716   -2.4222    0.1313 C.ar    1  LIG1        0.1081
     16 N          -2.5197   -2.1036    0.1601 N.ar    1  LIG1       -0.3478
     17 H          -1.7845   -2.7949    0.1017 H       1  LIG1        0.1661
     18 N          -4.1087    2.3390   -0.0924 N.1     1  LIG1       -0.1907
     19 C          -3.8851    1.2008   -0.0433 C.1     1  LIG1        0.1050
     20 O          -5.9049   -1.1520   -0.0193 O.3     1  LIG1       -0.5034
     21 H          -6.1825   -0.2347   -0.1394 H       1  LIG1        0.2923
     22 C          -4.3769   -3.7623    0.2173 C.ar    1  LIG1        0.0883
     23 C          -3.7019   -4.9762    0.3719 C.ar    1  LIG1        0.1205
     24 C          -4.6840   -6.0106    0.3678 C.ar    1  LIG1        0.1616
     25 C          -5.9155   -5.4181    0.2112 C.ar    1  LIG1        0.1080
     26 N          -5.6981   -4.0460    0.1392 N.ar    1  LIG1       -0.3478
     27 H          -6.3951   -3.3487   -0.0808 H       1  LIG1        0.1661
     28 N          -1.1495   -5.0916    0.6586 N.1     1  LIG1       -0.1907
     29 C          -2.3040   -5.0912    0.5349 C.1     1  LIG1        0.1050
     30 O          -4.5020   -7.3324    0.5526 O.3     1  LIG1       -0.5034
     31 H          -3.5978   -7.5859    0.3307 H       1  LIG1        0.2923
     32 C          -7.2350   -6.0028    0.1517 C.ar    1  LIG1        0.0878
     33 C          -7.6762   -7.1735   -0.4557 C.ar    1  LIG1        0.1198
     34 C          -9.0803   -7.2784   -0.2104 C.ar    1  LIG1        0.1521
     35 C          -9.4582   -6.1868    0.5208 C.ar    1  LIG1        0.0455
     36 N          -8.3254   -5.4195    0.7211 N.ar    1  LIG1       -0.3553
     37 H          -8.2776   -4.6350    1.3506 H       1  LIG1        0.1655
     38 H         -10.4242   -5.8984    0.8994 H       1  LIG1        0.0845
     39 N          -6.4116   -8.8801   -1.9073 N.1     1  LIG1       -0.1907
     40 C          -6.9374   -8.0900   -1.2423 C.1     1  LIG1        0.1050
     41 O          -9.9050   -8.2606   -0.6336 O.3     1  LIG1       -0.5040
     42 H          -9.3950   -8.9098   -1.1354 H       1  LIG1        0.2923
@<TRIPOS>BOND
     1    39    40    3
     2    40    33    1
     3    10    11    1
     4    10     3    1
     5    42    41    1
     6     8     9    3
     7     9     2    1
     8    41    34    1
     9     3     2   ar
    10     3     4   ar
    11    33    34   ar
    12    33    32   ar
    13     2     1   ar
    14    34    35   ar
    15    21    20    1
    16    18    19    3
    17    27    26    1
    18    19    13    1
    19    20    14    1
    20    13    14   ar
    21    13    12   ar
    22    14    15   ar
    23    12     4    1
    24    12    16   ar
    25     4     5   ar
    26    17    16    1
    27    15    16   ar
    28    15    22    1
    29    26    25   ar
    30    26    22   ar
    31    32    25    1
    32    32    36   ar
    33    25    24   ar
    34    22    23   ar
    35    31    30    1
    36    24    23   ar
    37    24    30    1
    38    23    29    1
    39     1     5   ar
    40     1     7    1
    41    35    36   ar
    42    35    38    1
    43    29    28    3
    44     5     6    1
    45    36    37    1
