@<TRIPOS>MOLECULE
mol_data/opt/cam/geoms/mol2/13df13df-13df.out
 32 34 0 0 0
SMALL
GASTEIGER

@<TRIPOS>ATOM
      1 C           1.2318   -0.3405   -0.0046 C.ar    1  LIG1        0.0233
      2 C           0.7933    0.9750   -0.0004 C.ar    1  LIG1        0.1110
      3 C          -0.6277    0.9306    0.0010 C.ar    1  LIG1        0.1609
      4 C          -1.0125   -0.3928   -0.0021 C.ar    1  LIG1        0.1076
      5 N           0.1503   -1.1454   -0.0055 N.ar    1  LIG1       -0.3554
      6 H           0.1768   -2.1553   -0.0084 H       1  LIG1        0.1655
      7 H           2.2375   -0.7297   -0.0069 H       1  LIG1        0.0821
      8 N           2.1504    3.1629    0.0040 N.1     1  LIG1       -0.1907
      9 C           1.5714    2.1599    0.0019 C.1     1  LIG1        0.1043
     10 O          -1.5162    1.9462    0.0048 O.3     1  LIG1       -0.5034
     11 H          -1.0751    2.8053    0.0068 H       1  LIG1        0.2923
     12 C          -2.3424   -0.9352   -0.0018 C.ar    1  LIG1        0.0882
     13 C          -2.7875   -2.2627   -0.0043 C.ar    1  LIG1        0.1205
     14 C          -4.2080   -2.2194   -0.0026 C.ar    1  LIG1        0.1616
     15 C          -4.5969   -0.9002    0.0009 C.ar    1  LIG1        0.1080
     16 N          -3.4373   -0.1419    0.0012 N.ar    1  LIG1       -0.3478
     17 H          -3.3942    0.8723    0.0037 H       1  LIG1        0.1661
     18 N          -1.2678   -4.3374   -0.0112 N.1     1  LIG1       -0.1907
     19 C          -1.9684   -3.4116   -0.0081 C.1     1  LIG1        0.1050
     20 O          -5.0823   -3.2593   -0.0039 O.3     1  LIG1       -0.5034
     21 H          -4.6028   -4.0970   -0.0062 H       1  LIG1        0.2923
     22 C          -5.9252   -0.3466    0.0037 C.ar    1  LIG1        0.0878
     23 C          -6.3674    0.9769    0.0072 C.ar    1  LIG1        0.1198
     24 C          -7.7928    0.9406    0.0089 C.ar    1  LIG1        0.1521
     25 C          -8.1768   -0.3734    0.0064 C.ar    1  LIG1        0.0455
     26 N          -7.0252   -1.1383    0.0034 N.ar    1  LIG1       -0.3553
     27 H          -6.9752   -2.1461    0.0007 H       1  LIG1        0.1655
     28 H          -9.1563   -0.8237    0.0065 H       1  LIG1        0.0845
     29 N          -4.7775    2.9994    0.0099 N.1     1  LIG1       -0.1907
     30 C          -5.5283    2.1152    0.0088 C.1     1  LIG1        0.1050
     31 O          -8.5410    2.0679    0.0123 O.3     1  LIG1       -0.5040
     32 H          -9.4765    1.8363    0.0128 H       1  LIG1        0.2923
@<TRIPOS>BOND
     1    18    19    3
     2     6     5    1
     3    19    13    1
     4     7     1    1
     5    21    20    1
     6     5     1   ar
     7     5     4   ar
     8     1     2   ar
     9    13    14   ar
    10    13    12   ar
    11    20    14    1
    12    14    15   ar
    13     4    12    1
    14     4     3   ar
    15    12    16   ar
    16     2     3   ar
    17     2     9    1
    18    27    26    1
    19    15    16   ar
    20    15    22    1
    21     3    10    1
    22    16    17    1
    23     9     8    3
    24    26    22   ar
    25    26    25   ar
    26    22    23   ar
    27    10    11    1
    28    25    28    1
    29    25    24   ar
    30    23    30    1
    31    23    24   ar
    32    30    29    3
    33    24    31    1
    34    31    32    1
