@<TRIPOS>MOLECULE
mol_data/opt/cam/geoms/mol2/13df13df-13df-13df-.out
 42 45 0 0 0
SMALL
GASTEIGER

@<TRIPOS>ATOM
      1 C           1.3011   -0.3664   -0.3807 C.ar    1  LIG1        0.0233
      2 C           0.8261    0.8600   -0.8184 C.ar    1  LIG1        0.1110
      3 C          -0.5877    0.8209   -0.6820 C.ar    1  LIG1        0.1609
      4 C          -0.9349   -0.4101   -0.1712 C.ar    1  LIG1        0.1076
      5 N           0.2457   -1.1124    0.0026 N.ar    1  LIG1       -0.3554
      6 H           0.2989   -2.0552    0.3639 H       1  LIG1        0.1655
      7 H           2.3138   -0.7327   -0.3254 H       1  LIG1        0.0821
      8 N           2.0695    2.9209   -1.7299 N.1     1  LIG1       -0.1907
      9 C           1.5523    1.9714   -1.3147 C.1     1  LIG1        0.1043
     10 O          -1.4893    1.7894   -0.9813 O.3     1  LIG1       -0.5034
     11 H          -1.0402    2.5446   -1.3846 H       1  LIG1        0.2923
     12 C          -2.2432   -0.9218    0.1314 C.ar    1  LIG1        0.0882
     13 C          -2.6517   -2.1651    0.6180 C.ar    1  LIG1        0.1205
     14 C          -4.0756   -2.1444    0.6906 C.ar    1  LIG1        0.1616
     15 C          -4.5002   -0.9110    0.2528 C.ar    1  LIG1        0.1081
     16 N          -3.3589   -0.1802   -0.0638 N.ar    1  LIG1       -0.3478
     17 H          -3.3368    0.7129   -0.5367 H       1  LIG1        0.1661
     18 N          -1.0322   -4.0571    1.2612 N.1     1  LIG1       -0.1907
     19 C          -1.7864   -3.2212    0.9800 C.1     1  LIG1        0.1050
     20 O          -4.8970   -3.1032    1.1555 O.3     1  LIG1       -0.5034
     21 H          -4.4363   -3.9498    1.2056 H       1  LIG1        0.2923
     22 C          -5.8317   -0.3634    0.1505 C.ar    1  LIG1        0.0883
     23 C          -7.0219   -0.9543   -0.2656 C.ar    1  LIG1        0.1205
     24 C          -8.0398    0.0411   -0.2014 C.ar    1  LIG1        0.1616
     25 C          -7.4649    1.2103    0.2399 C.ar    1  LIG1        0.1080
     26 N          -6.1189    0.9311    0.4526 N.ar    1  LIG1       -0.3478
     27 H          -5.4457    1.6047    0.7805 H       1  LIG1        0.1661
     28 N          -7.4954   -3.3293   -1.1343 N.1     1  LIG1       -0.1907
     29 C          -7.2358   -2.2752   -0.7299 C.1     1  LIG1        0.1050
     30 O          -9.3450   -0.1020   -0.4926 O.3     1  LIG1       -0.5034
     31 H          -9.5006   -0.9724   -0.8825 H       1  LIG1        0.2923
     32 C          -8.0442    2.5106    0.4929 C.ar    1  LIG1        0.0878
     33 C          -8.9491    3.2565   -0.2528 C.ar    1  LIG1        0.1198
     34 C          -9.1912    4.4724    0.4586 C.ar    1  LIG1        0.1521
     35 C          -8.4360    4.4456    1.5977 C.ar    1  LIG1        0.0455
     36 N          -7.7374    3.2519    1.5944 N.ar    1  LIG1       -0.3553
     37 H          -7.2377    2.8887    2.3897 H       1  LIG1        0.1655
     38 H          -8.3373    5.1693    2.3890 H       1  LIG1        0.0845
     39 N         -10.0024    2.8015   -2.5554 N.1     1  LIG1       -0.1907
     40 C          -9.5086    2.9556   -1.5185 C.1     1  LIG1        0.1050
     41 O          -9.9988    5.4859    0.0777 O.3     1  LIG1       -0.5040
     42 H         -10.4219    5.2563   -0.7600 H       1  LIG1        0.2923
@<TRIPOS>BOND
     1    39    40    3
     2     8     9    3
     3    40    33    1
     4    11    10    1
     5     9     2    1
     6    28    29    3
     7    10     3    1
     8    31    30    1
     9     2     3   ar
    10     2     1   ar
    11    42    41    1
    12    29    23    1
    13     3     4   ar
    14    17    16    1
    15    30    24    1
    16     1     7    1
    17     1     5   ar
    18    23    24   ar
    19    23    22   ar
    20    33    34   ar
    21    33    32   ar
    22    24    25   ar
    23     4     5   ar
    24     4    12    1
    25    16    12   ar
    26    16    15   ar
    27     5     6    1
    28    41    34    1
    29    12    13   ar
    30    22    15    1
    31    22    26   ar
    32    25    26   ar
    33    25    32    1
    34    15    14   ar
    35    26    27    1
    36    34    35   ar
    37    32    36   ar
    38    13    14   ar
    39    13    19    1
    40    14    20    1
    41    19    18    3
    42    20    21    1
    43    36    35   ar
    44    36    37    1
    45    35    38    1
