@<TRIPOS>MOLECULE
mol_data/opt/cam/geoms/mol2/13df13df13df-13df.out
 42 45 0 0 0
SMALL
GASTEIGER

@<TRIPOS>ATOM
      1 C           1.2391   -0.2172   -0.3117 C.ar    1  LIG1        0.0233
      2 C           0.8863    1.0066    0.2190 C.ar    1  LIG1        0.1110
      3 C          -0.5344    1.0266    0.3378 C.ar    1  LIG1        0.1609
      4 C          -1.0052   -0.1960   -0.1200 C.ar    1  LIG1        0.1076
      5 N           0.1107   -0.9345   -0.5032 N.ar    1  LIG1       -0.3554
      6 H           0.0727   -1.8041   -1.0116 H       1  LIG1        0.1655
      7 H           2.2129   -0.5989   -0.5751 H       1  LIG1        0.0821
      8 N           2.5114    2.8978    0.8703 N.1     1  LIG1       -0.1907
      9 C           1.7757    2.0529    0.5819 C.1     1  LIG1        0.1043
     10 O          -1.1810    2.0624    0.8951 O.3     1  LIG1       -0.5034
     11 H          -2.0651    2.1950    0.5224 H       1  LIG1        0.2923
     12 C          -2.3189   -0.7853   -0.1364 C.ar    1  LIG1        0.0882
     13 C          -3.5872   -0.2009   -0.2296 C.ar    1  LIG1        0.1205
     14 C          -4.5427   -1.2541   -0.1871 C.ar    1  LIG1        0.1616
     15 C          -3.8588   -2.4429   -0.0888 C.ar    1  LIG1        0.1081
     16 N          -2.5057   -2.1269   -0.0637 N.ar    1  LIG1       -0.3478
     17 H          -1.7792   -2.7962    0.1481 H       1  LIG1        0.1661
     18 N          -4.0423    2.3156   -0.4926 N.1     1  LIG1       -0.1907
     19 C          -3.8531    1.1754   -0.3842 C.1     1  LIG1        0.1050
     20 O          -5.8876   -1.1977   -0.2549 O.3     1  LIG1       -0.5034
     21 H          -6.2129   -0.2896   -0.2881 H       1  LIG1        0.2923
     22 C          -4.3758   -3.7790   -0.0360 C.ar    1  LIG1        0.0883
     23 C          -3.7040   -5.0082    0.0024 C.ar    1  LIG1        0.1205
     24 C          -4.7015   -6.0200    0.0482 C.ar    1  LIG1        0.1616
     25 C          -5.9330   -5.4071    0.0359 C.ar    1  LIG1        0.1080
     26 N          -5.7015   -4.0417   -0.0157 N.ar    1  LIG1       -0.3478
     27 H          -6.4178   -3.3232   -0.0423 H       1  LIG1        0.1661
     28 N          -1.1430   -5.2312   -0.0374 N.1     1  LIG1       -0.1907
     29 C          -2.3025   -5.1668   -0.0180 C.1     1  LIG1        0.1050
     30 O          -4.5379   -7.3676    0.0938 O.3     1  LIG1       -0.5034
     31 H          -3.5992   -7.5912    0.1086 H       1  LIG1        0.2923
     32 C          -7.2433   -6.0013    0.0674 C.ar    1  LIG1        0.0878
     33 C          -8.5120   -5.4201    0.0576 C.ar    1  LIG1        0.1198
     34 C          -9.4592   -6.4845    0.1032 C.ar    1  LIG1        0.1521
     35 C          -8.7615   -7.6621    0.1387 C.ar    1  LIG1        0.0455
     36 N          -7.4164   -7.3444    0.1161 N.ar    1  LIG1       -0.3553
     37 H          -6.6468   -7.9967    0.1329 H       1  LIG1        0.1655
     38 H          -9.1017   -8.6843    0.1778 H       1  LIG1        0.0845
     39 N          -8.8890   -2.8770   -0.0281 N.1     1  LIG1       -0.1907
     40 C          -8.7664   -4.0298    0.0113 C.1     1  LIG1        0.1050
     41 O         -10.7931   -6.2604    0.1066 O.3     1  LIG1       -0.5040
     42 H         -11.2640   -7.1005    0.1431 H       1  LIG1        0.2923
@<TRIPOS>BOND
     1     6     5    1
     2     7     1    1
     3     5     1   ar
     4     5     4   ar
     5    18    19    3
     6    19    13    1
     7     1     2   ar
     8    21    20    1
     9    20    14    1
    10    13    14   ar
    11    13    12   ar
    12    14    15   ar
    13    12     4    1
    14    12    16   ar
    15     4     3   ar
    16    15    16   ar
    17    15    22    1
    18    16    17    1
    19    27    26    1
    20    28    29    3
    21    22    26   ar
    22    22    23   ar
    23    39    40    3
    24    29    23    1
    25    26    25   ar
    26    23    24   ar
    27    40    33    1
    28    25    24   ar
    29    25    32    1
    30    24    30    1
    31    33    32   ar
    32    33    34   ar
    33    32    36   ar
    34    30    31    1
    35    34    41    1
    36    34    35   ar
    37    41    42    1
    38    36    37    1
    39    36    35   ar
    40    35    38    1
    41     2     3   ar
    42     2     9    1
    43     3    10    1
    44    11    10    1
    45     9     8    3
