@<TRIPOS>MOLECULE
mol_data/opt/cam/geoms/mol2/13df13df.out
 22 23 0 0 0
SMALL
GASTEIGER

@<TRIPOS>ATOM
      1 C           1.1504   -0.3049   -0.3513 C.ar    1  LIG1        0.0233
      2 C           0.7845    0.9515    0.0827 C.ar    1  LIG1        0.1110
      3 C          -0.6340    0.9516    0.2489 C.ar    1  LIG1        0.1609
      4 C          -1.0869   -0.3152   -0.0789 C.ar    1  LIG1        0.1076
      5 N           0.0315   -1.0629   -0.4332 N.ar    1  LIG1       -0.3554
      6 H          -0.0157   -1.9513   -0.9056 H       1  LIG1        0.1655
      7 H           2.1235   -0.6859   -0.6181 H       1  LIG1        0.0821
      8 N           2.3904    2.9203    0.5161 N.1     1  LIG1       -0.1907
      9 C           1.6623    2.0417    0.3251 C.1     1  LIG1        0.1043
     10 O          -1.2992    2.0139    0.7318 O.3     1  LIG1       -0.5034
     11 H          -2.1612    2.1295    0.3003 H       1  LIG1        0.2923
     12 C          -2.3955   -0.9214   -0.0071 C.ar    1  LIG1        0.0878
     13 C          -3.6587   -0.3755   -0.2112 C.ar    1  LIG1        0.1198
     14 C          -4.6165   -1.4096    0.0148 C.ar    1  LIG1        0.1521
     15 C          -3.9292   -2.5476    0.3325 C.ar    1  LIG1        0.0455
     16 N          -2.5778   -2.2343    0.3009 N.ar    1  LIG1       -0.3553
     17 H          -1.8534   -2.8231    0.6785 H       1  LIG1        0.1655
     18 H          -4.2744   -3.5425    0.5631 H       1  LIG1        0.0845
     19 N          -3.9851    2.0879   -0.8659 N.1     1  LIG1       -0.1907
     20 C          -3.8910    0.9656   -0.5871 C.1     1  LIG1        0.1050
     21 O          -5.9441   -1.1967   -0.1147 O.3     1  LIG1       -0.5040
     22 H          -6.4278   -2.0056    0.0871 H       1  LIG1        0.2923
@<TRIPOS>BOND
     1     6     5    1
     2    19    20    3
     3     7     1    1
     4    20    13    1
     5     5     1   ar
     6     5     4   ar
     7     1     2   ar
     8    13    12   ar
     9    13    14   ar
    10    21    14    1
    11    21    22    1
    12     4    12    1
    13     4     3   ar
    14    12    16   ar
    15    14    15   ar
    16     2     3   ar
    17     2     9    1
    18     3    10    1
    19    11    10    1
    20    16    15   ar
    21    16    17    1
    22     9     8    3
    23    15    18    1
