@<TRIPOS>MOLECULE
mol_data/opt/cam/geoms/mol2/13df13df-4df13df.out
 44 47 0 0 0
SMALL
GASTEIGER

@<TRIPOS>ATOM
      1 C           1.3854   -0.4491   -0.0348 C.ar    1  LIG1        0.0233
      2 C           0.9813    0.8738   -0.1328 C.ar    1  LIG1        0.1110
      3 C          -0.4402    0.8652   -0.1386 C.ar    1  LIG1        0.1609
      4 C          -0.8590   -0.4446   -0.0428 C.ar    1  LIG1        0.1076
      5 N           0.2844   -1.2250    0.0151 N.ar    1  LIG1       -0.3554
      6 H           0.2863   -2.2326    0.0867 H       1  LIG1        0.1655
      7 H           2.3809   -0.8623   -0.0004 H       1  LIG1        0.0821
      8 N           2.4012    3.0168   -0.2773 N.1     1  LIG1       -0.1907
      9 C           1.7918    2.0343   -0.2121 C.1     1  LIG1        0.1043
     10 O          -1.3040    1.8952   -0.2384 O.3     1  LIG1       -0.5034
     11 H          -0.8597    2.7479   -0.1484 H       1  LIG1        0.2923
     12 C          -2.2011   -0.9530    0.0052 C.ar    1  LIG1        0.0882
     13 C          -2.6716   -2.2675    0.0804 C.ar    1  LIG1        0.1204
     14 C          -4.0886   -2.1999    0.1053 C.ar    1  LIG1        0.1601
     15 C          -4.4669   -0.8683    0.0489 C.ar    1  LIG1        0.0916
     16 N          -3.2784   -0.1430   -0.0131 N.ar    1  LIG1       -0.3489
     17 H          -3.1993    0.8675   -0.0503 H       1  LIG1        0.1661
     18 N          -1.2183   -4.3876    0.1651 N.1     1  LIG1       -0.1907
     19 C          -1.8848   -3.4377    0.1259 C.1     1  LIG1        0.1050
     20 O          -4.9291   -3.2589    0.1751 O.3     1  LIG1       -0.5034
     21 H          -4.4141   -4.0735    0.2427 H       1  LIG1        0.2923
     22 C          -6.0849    1.0941    0.1746 C.ar    1  LIG1        0.0618
     23 C          -7.3983    1.5645    0.1529 C.ar    1  LIG1       -0.0310
     24 C          -5.8005   -0.2849    0.0424 C.ar    1  LIG1        0.0228
     25 C          -8.5006    0.7253    0.0075 C.ar    1  LIG1        0.0423
     26 H          -7.5485    2.6307    0.2588 H       1  LIG1        0.0638
     27 C          -6.9080   -1.1264   -0.1029 C.ar    1  LIG1       -0.0091
     28 C          -8.2059   -0.6477   -0.1150 C.ar    1  LIG1        0.1267
     29 H          -6.7473   -2.1922   -0.2099 H       1  LIG1        0.0661
     30 N          -4.2227    2.8666    0.4903 N.1     1  LIG1       -0.1908
     31 C          -5.0575    2.0757    0.3515 C.1     1  LIG1        0.0998
     32 O          -9.2422   -1.5261   -0.2573 O.3     1  LIG1       -0.5061
     33 H          -8.8989   -2.4252   -0.3244 H       1  LIG1        0.2922
     34 C          -9.8638    1.2612   -0.0103 C.ar    1  LIG1        0.0713
     35 C         -10.3347    2.5801    0.0527 C.ar    1  LIG1        0.1184
     36 C         -11.7546    2.5270    0.0005 C.ar    1  LIG1        0.1520
     37 C         -12.1202    1.2096   -0.0918 C.ar    1  LIG1        0.0455
     38 N         -10.9640    0.4682   -0.0964 N.ar    1  LIG1       -0.3565
     39 H         -10.8996   -0.5354   -0.1631 H       1  LIG1        0.1655
     40 H         -13.0922    0.7468   -0.1545 H       1  LIG1        0.0845
     41 N          -8.9837    4.7662    0.2214 N.1     1  LIG1       -0.1907
     42 C          -9.5916    3.7827    0.1453 C.1     1  LIG1        0.1050
     43 O         -12.5193    3.6421    0.0405 O.3     1  LIG1       -0.5040
     44 H         -13.4505    3.3994   -0.0085 H       1  LIG1        0.2923
@<TRIPOS>BOND
     1    33    32    1
     2     8     9    3
     3    32    28    1
     4    10    11    1
     5    10     3    1
     6     9     2    1
     7    29    27    1
     8    39    38    1
     9    40    37    1
    10     3     2   ar
    11     3     4   ar
    12     2     1   ar
    13    28    27   ar
    14    28    25   ar
    15    27    24   ar
    16    38    37   ar
    17    38    34   ar
    18    37    36   ar
    19    17    16    1
    20     4    12    1
    21     4     5   ar
    22     1     7    1
    23     1     5   ar
    24    16    12   ar
    25    16    15   ar
    26    34    25    1
    27    34    35   ar
    28    44    43    1
    29    36    43    1
    30    36    35   ar
    31    12    13   ar
    32    25    23   ar
    33     5     6    1
    34    24    15    1
    35    24    22   ar
    36    15    14   ar
    37    35    42    1
    38    13    14   ar
    39    13    19    1
    40    14    20    1
    41    19    18    3
    42    42    41    3
    43    23    22   ar
    44    23    26    1
    45    22    31    1
    46    20    21    1
    47    31    30    3
