@<TRIPOS>MOLECULE
mol_data/opt/cam/geoms/mol2/13df13df-13df13df-.out
 42 45 0 0 0
SMALL
GASTEIGER

@<TRIPOS>ATOM
      1 C           1.2885   -0.3230   -0.0067 C.ar    1  LIG1        0.0233
      2 C           0.8521    0.9934   -0.0068 C.ar    1  LIG1        0.1110
      3 C          -0.5684    0.9510   -0.0048 C.ar    1  LIG1        0.1609
      4 C          -0.9557   -0.3717   -0.0036 C.ar    1  LIG1        0.1076
      5 N           0.2060   -1.1260   -0.0048 N.ar    1  LIG1       -0.3554
      6 H           0.2303   -2.1363   -0.0044 H       1  LIG1        0.1655
      7 H           2.2935   -0.7140   -0.0079 H       1  LIG1        0.0821
      8 N           2.1994    3.1872   -0.0097 N.1     1  LIG1       -0.1907
      9 C           1.6278    2.1798   -0.0084 C.1     1  LIG1        0.1043
     10 O          -1.4519    1.9731   -0.0042 O.3     1  LIG1       -0.5034
     11 H          -0.9992    2.8265   -0.0049 H       1  LIG1        0.2923
     12 C          -2.2864   -0.9112   -0.0015 C.ar    1  LIG1        0.0882
     13 C          -2.7351   -2.2384   -0.0002 C.ar    1  LIG1        0.1205
     14 C          -4.1546   -2.1920    0.0017 C.ar    1  LIG1        0.1616
     15 C          -4.5386   -0.8689    0.0017 C.ar    1  LIG1        0.1081
     16 N          -3.3771   -0.1122   -0.0003 N.ar    1  LIG1       -0.3478
     17 H          -3.3218    0.9000   -0.0008 H       1  LIG1        0.1661
     18 N          -1.1910   -4.2952   -0.0015 N.1     1  LIG1       -0.1907
     19 C          -1.9091   -3.3834   -0.0009 C.1     1  LIG1        0.1050
     20 O          -5.0455   -3.2076    0.0035 O.3     1  LIG1       -0.5034
     21 H          -4.6087   -4.0680    0.0031 H       1  LIG1        0.2923
     22 C          -5.8664   -0.3264    0.0034 C.ar    1  LIG1        0.0883
     23 C          -6.3164    0.9995    0.0035 C.ar    1  LIG1        0.1205
     24 C          -7.7370    0.9508    0.0055 C.ar    1  LIG1        0.1616
     25 C          -8.1226   -0.3695    0.0066 C.ar    1  LIG1        0.1080
     26 N          -6.9607   -1.1236    0.0052 N.ar    1  LIG1       -0.3478
     27 H          -6.9103   -2.1360    0.0055 H       1  LIG1        0.1661
     28 N          -4.8618    3.1215    0.0007 N.1     1  LIG1       -0.1907
     29 C          -5.5189    2.1647    0.0019 C.1     1  LIG1        0.1050
     30 O          -8.6137    1.9873    0.0063 O.3     1  LIG1       -0.5034
     31 H          -8.1360    2.8264    0.0055 H       1  LIG1        0.2923
     32 C          -9.4468   -0.9293    0.0086 C.ar    1  LIG1        0.0878
     33 C          -9.8817   -2.2570    0.0097 C.ar    1  LIG1        0.1198
     34 C         -11.3114   -2.2318    0.0117 C.ar    1  LIG1        0.1521
     35 C         -11.7018   -0.9218    0.0118 C.ar    1  LIG1        0.0455
     36 N         -10.5545   -0.1510    0.0099 N.ar    1  LIG1       -0.3553
     37 H         -10.5130    0.8574    0.0094 H       1  LIG1        0.1655
     38 H         -12.6870   -0.4875    0.0130 H       1  LIG1        0.0845
     39 N          -8.3802   -4.3465    0.0083 N.1     1  LIG1       -0.1907
     40 C          -9.0626   -3.4070    0.0089 C.1     1  LIG1        0.1050
     41 O         -12.1469   -3.2957    0.0132 O.3     1  LIG1       -0.5040
     42 H         -11.6290   -4.1100    0.0126 H       1  LIG1        0.2923
@<TRIPOS>BOND
     1     8     9    3
     2     9     2    1
     3     7     1    1
     4     2     1   ar
     5     2     3   ar
     6     1     5   ar
     7    11    10    1
     8     3    10    1
     9     3     4   ar
    10     5     6    1
    11     5     4   ar
    12     4    12    1
    13    18    19    3
    14    12    16   ar
    15    12    13   ar
    16    19    13    1
    17    17    16    1
    18    16    15   ar
    19    13    14   ar
    20    28    29    3
    21    15    14   ar
    22    15    22    1
    23    14    20    1
    24    29    23    1
    25    21    20    1
    26    22    23   ar
    27    22    26   ar
    28    23    24   ar
    29    26    27    1
    30    26    25   ar
    31    24    30    1
    32    24    25   ar
    33    31    30    1
    34    25    32    1
    35    39    40    3
    36    32    33   ar
    37    32    36   ar
    38    40    33    1
    39    37    36    1
    40    33    34   ar
    41    36    35   ar
    42    34    35   ar
    43    34    41    1
    44    35    38    1
    45    42    41    1
