@<TRIPOS>MOLECULE
mol_data/opt/cam/geoms/mol2/13df13df13df.out
 32 34 0 0 0
SMALL
GASTEIGER

@<TRIPOS>ATOM
      1 C           1.1993   -0.2725    0.1019 C.ar    1  LIG1        0.0233
      2 C           0.8044    0.9763   -0.3281 C.ar    1  LIG1        0.1110
      3 C          -0.6230    1.0043   -0.3136 C.ar    1  LIG1        0.1609
      4 C          -1.0544   -0.2426    0.1162 C.ar    1  LIG1        0.1076
      5 N           0.0882   -1.0038    0.3495 N.ar    1  LIG1       -0.3554
      6 H           0.0844   -1.8717    0.8604 H       1  LIG1        0.1655
      7 H           2.1920   -0.6641    0.2590 H       1  LIG1        0.0821
      8 N           2.3791    2.8915   -1.0318 N.1     1  LIG1       -0.1907
      9 C           1.6641    2.0376   -0.7190 C.1     1  LIG1        0.1043
     10 O          -1.3145    2.0656   -0.7496 O.3     1  LIG1       -0.5034
     11 H          -2.1462    2.1923   -0.2643 H       1  LIG1        0.2923
     12 C          -2.3639   -0.8306    0.2282 C.ar    1  LIG1        0.0882
     13 C          -3.5987   -0.2594    0.4933 C.ar    1  LIG1        0.1205
     14 C          -4.5924   -1.2848    0.4148 C.ar    1  LIG1        0.1616
     15 C          -3.9388   -2.4671    0.1303 C.ar    1  LIG1        0.1080
     16 N          -2.5707   -2.1712    0.0444 N.ar    1  LIG1       -0.3478
     17 H          -1.9504   -2.7145   -0.5389 H       1  LIG1        0.1661
     18 N          -3.8551    2.2415    1.0272 N.1     1  LIG1       -0.1907
     19 C          -3.7945    1.1044    0.8073 C.1     1  LIG1        0.1050
     20 O          -5.8760   -1.0304    0.6968 O.3     1  LIG1       -0.5034
     21 H          -6.4857   -1.5982    0.1964 H       1  LIG1        0.2923
     22 C          -4.3963   -3.8312    0.0340 C.ar    1  LIG1        0.0878
     23 C          -5.6211   -4.3557   -0.3700 C.ar    1  LIG1        0.1198
     24 C          -5.5426   -5.7761   -0.2491 C.ar    1  LIG1        0.1521
     25 C          -4.2905   -6.0843    0.2037 C.ar    1  LIG1        0.0455
     26 N          -3.6025   -4.8885    0.3561 N.ar    1  LIG1       -0.3553
     27 H          -2.7283   -4.7973    0.8469 H       1  LIG1        0.1655
     28 H          -3.8276   -7.0346    0.4152 H       1  LIG1        0.0845
     29 N          -7.5490   -2.8498   -1.1542 N.1     1  LIG1       -0.1907
     30 C          -6.7066   -3.5765   -0.8242 C.1     1  LIG1        0.1050
     31 O          -6.5778   -6.5787   -0.5762 O.3     1  LIG1       -0.5040
     32 H          -6.3404   -7.5009   -0.4271 H       1  LIG1        0.2923
@<TRIPOS>BOND
     1    29    30    3
     2     8     9    3
     3    30    23    1
     4    10     3    1
     5    10    11    1
     6     9     2    1
     7    31    32    1
     8    31    24    1
     9    17    16    1
    10    23    24   ar
    11    23    22   ar
    12     2     3   ar
    13     2     1   ar
    14     3     4   ar
    15    24    25   ar
    16    22    15    1
    17    22    26   ar
    18    16    15   ar
    19    16    12   ar
    20     1     7    1
    21     1     5   ar
    22     4    12    1
    23     4     5   ar
    24    15    14   ar
    25    21    20    1
    26    25    26   ar
    27    25    28    1
    28    12    13   ar
    29     5     6    1
    30    26    27    1
    31    14    13   ar
    32    14    20    1
    33    13    19    1
    34    19    18    3
