@<TRIPOS>MOLECULE
mol_data/opt/cam/geoms/mol2/13df13df13df13df.out
 42 45 0 0 0
SMALL
GASTEIGER

@<TRIPOS>ATOM
      1 C           0.8385    0.1061   -1.4903 C.ar    1  LIG1        0.0233
      2 C           0.8328    1.0024   -0.4440 C.ar    1  LIG1        0.1110
      3 C          -0.4231    0.8734    0.2243 C.ar    1  LIG1        0.1609
      4 C          -1.1379   -0.1156   -0.4309 C.ar    1  LIG1        0.1076
      5 N          -0.3322   -0.5766   -1.4692 N.ar    1  LIG1       -0.3554
      6 H          -0.6781   -1.1077   -2.2529 H       1  LIG1        0.1655
      7 H           1.5882   -0.0649   -2.2468 H       1  LIG1        0.0821
      8 N           2.7565    2.5989    0.1836 N.1     1  LIG1       -0.1907
      9 C           1.8881    1.8859   -0.0913 C.1     1  LIG1        0.1043
     10 O          -0.7170    1.5624    1.3376 O.3     1  LIG1       -0.5034
     11 H          -1.6472    1.8413    1.3581 H       1  LIG1        0.2923
     12 C          -2.4032   -0.7397   -0.1284 C.ar    1  LIG1        0.0882
     13 C          -3.5765   -0.2012    0.3893 C.ar    1  LIG1        0.1205
     14 C          -4.5474   -1.2407    0.4698 C.ar    1  LIG1        0.1616
     15 C          -3.9480   -2.3993    0.0068 C.ar    1  LIG1        0.1081
     16 N          -2.6434   -2.0596   -0.3502 N.ar    1  LIG1       -0.3478
     17 H          -1.9808   -2.6914   -0.7693 H       1  LIG1        0.1661
     18 N          -3.7394    2.2787    1.0440 N.1     1  LIG1       -0.1907
     19 C          -3.7279    1.1569    0.7507 C.1     1  LIG1        0.1050
     20 O          -5.7678   -1.0374    0.9862 O.3     1  LIG1       -0.5034
     21 H          -6.4515   -1.5458    0.5191 H       1  LIG1        0.2923
     22 C          -4.4120   -3.7645   -0.0378 C.ar    1  LIG1        0.0883
     23 C          -5.6743   -4.2777   -0.3172 C.ar    1  LIG1        0.1205
     24 C          -5.6048   -5.6990   -0.2473 C.ar    1  LIG1        0.1616
     25 C          -4.3014   -6.0304    0.0773 C.ar    1  LIG1        0.1080
     26 N          -3.5997   -4.8315    0.1908 N.ar    1  LIG1       -0.3478
     27 H          -2.6234   -4.7686    0.4292 H       1  LIG1        0.1661
     28 N          -7.6599   -2.7251   -0.8170 N.1     1  LIG1       -0.1907
     29 C          -6.7983   -3.4751   -0.6165 C.1     1  LIG1        0.1050
     30 O          -6.6858   -6.4744   -0.4185 O.3     1  LIG1       -0.5034
     31 H          -6.4738   -7.2980   -0.8882 H       1  LIG1        0.2923
     32 C          -3.6738   -7.2978    0.3687 C.ar    1  LIG1        0.0878
     33 C          -3.8974   -8.5569   -0.1776 C.ar    1  LIG1        0.1198
     34 C          -3.0312   -9.4763    0.4869 C.ar    1  LIG1        0.1521
     35 C          -2.2997   -8.7675    1.3987 C.ar    1  LIG1        0.0455
     36 N          -2.6934   -7.4403    1.3034 N.ar    1  LIG1       -0.3553
     37 H          -2.4792   -6.7449    2.0000 H       1  LIG1        0.1655
     38 H          -1.5352   -9.0817    2.0909 H       1  LIG1        0.0845
     39 N          -5.6378   -8.9238   -2.0318 N.1     1  LIG1       -0.1907
     40 C          -4.8267   -8.8131   -1.2098 C.1     1  LIG1        0.1050
     41 O          -3.0038  -10.7881    0.1713 O.3     1  LIG1       -0.5040
     42 H          -2.3775  -11.2522    0.7384 H       1  LIG1        0.2923
@<TRIPOS>BOND
     1     6     5    1
     2     7     1    1
     3    39    40    3
     4     1     5   ar
     5     1     2   ar
     6     5     4   ar
     7    40    33    1
     8    31    30    1
     9    28    29    3
    10    17    16    1
    11    29    23    1
    12     2     9    1
    13     2     3   ar
    14     4    12    1
    15     4     3   ar
    16    30    24    1
    17    16    12   ar
    18    16    15   ar
    19    23    24   ar
    20    23    22   ar
    21    24    25   ar
    22    33    32   ar
    23    33    34   ar
    24    12    13   ar
    25     9     8    3
    26    22    15    1
    27    22    26   ar
    28    15    14   ar
    29    25    26   ar
    30    25    32    1
    31    41    34    1
    32    41    42    1
    33    26    27    1
    34     3    10    1
    35    32    36   ar
    36    13    14   ar
    37    13    19    1
    38    14    20    1
    39    34    35   ar
    40    21    20    1
    41    19    18    3
    42    36    35   ar
    43    36    37    1
    44    10    11    1
    45    35    38    1
