@<TRIPOS>MOLECULE
mol_data/opt/cam/geoms/mol2/13df13df-.out
 22 23 0 0 0
SMALL
GASTEIGER

@<TRIPOS>ATOM
      1 C           1.1475   -0.3204    0.0030 C.ar    1  LIG1        0.0233
      2 C           0.7072    0.9937    0.0083 C.ar    1  LIG1        0.1110
      3 C          -0.7143    0.9477    0.0074 C.ar    1  LIG1        0.1609
      4 C          -1.1000   -0.3732    0.0018 C.ar    1  LIG1        0.1076
      5 N           0.0636   -1.1231   -0.0008 N.ar    1  LIG1       -0.3554
      6 H           0.0865   -2.1337   -0.0052 H       1  LIG1        0.1655
      7 H           2.1525   -0.7109    0.0018 H       1  LIG1        0.0821
      8 N           2.0218    3.2064    0.0181 N.1     1  LIG1       -0.1907
      9 C           1.4709    2.1873    0.0136 C.1     1  LIG1        0.1043
     10 O          -1.5888    1.9857    0.0113 O.3     1  LIG1       -0.5034
     11 H          -1.1054    2.8224    0.0151 H       1  LIG1        0.2923
     12 C          -2.4271   -0.9316   -0.0011 C.ar    1  LIG1        0.0878
     13 C          -2.8624   -2.2585   -0.0070 C.ar    1  LIG1        0.1198
     14 C          -4.2919   -2.2337   -0.0075 C.ar    1  LIG1        0.1521
     15 C          -4.6805   -0.9229   -0.0021 C.ar    1  LIG1        0.0455
     16 N          -3.5329   -0.1527    0.0019 N.ar    1  LIG1       -0.3553
     17 H          -3.4902    0.8561    0.0059 H       1  LIG1        0.1655
     18 H          -5.6655   -0.4881   -0.0005 H       1  LIG1        0.0845
     19 N          -1.2990   -4.3010   -0.0150 N.1     1  LIG1       -0.1907
     20 C          -2.0250   -3.3946   -0.0116 C.1     1  LIG1        0.1050
     21 O          -5.1305   -3.2950   -0.0121 O.3     1  LIG1       -0.5040
     22 H          -4.6174   -4.1120   -0.0169 H       1  LIG1        0.2923
@<TRIPOS>BOND
     1    22    21    1
     2    19    20    3
     3    21    14    1
     4    20    13    1
     5    14    13   ar
     6    14    15   ar
     7    13    12   ar
     8     6     5    1
     9    15    18    1
    10    15    16   ar
    11    12     4    1
    12    12    16   ar
    13     5     4   ar
    14     5     1   ar
    15     4     3   ar
    16     7     1    1
    17    16    17    1
    18     1     2   ar
    19     3     2   ar
    20     3    10    1
    21     2     9    1
    22    10    11    1
    23     9     8    3
