@<TRIPOS>MOLECULE
mol_data/opt/cam/geoms/mol2/13dg13dg-13dg-.out
 32 34 0 0 0
SMALL
GASTEIGER

@<TRIPOS>ATOM
      1 C           1.2085   -0.0714   -0.2987 C.ar    1  LIG1        0.0208
      2 C           0.7743    0.9833    0.4722 C.ar    1  LIG1        0.0828
      3 C          -0.6455    0.8689    0.6112 C.ar    1  LIG1        0.0489
      4 C          -1.0205   -0.2639   -0.0837 C.ar    1  LIG1        0.0788
      5 N           0.1228   -0.8202   -0.6218 N.ar    1  LIG1       -0.3574
      6 H           0.1268   -1.5802   -1.2833 H       1  LIG1        0.1654
      7 H           2.2020   -0.3226   -0.6352 H       1  LIG1        0.0820
      8 N           2.3172    2.7921    1.4728 N.1     1  LIG1       -0.1908
      9 C           1.6144    1.9878    1.0292 C.1     1  LIG1        0.1018
     10 S          -1.6552    1.9057    1.6240 S.3     1  LIG1       -0.1393
     11 H          -2.3377    2.5091    0.6328 H       1  LIG1        0.1072
     12 C          -2.3159   -0.8907   -0.2752 C.ar    1  LIG1        0.0831
     13 C          -3.5318   -0.3658   -0.6736 C.ar    1  LIG1        0.0922
     14 C          -4.4948   -1.4234   -0.6863 C.ar    1  LIG1        0.0496
     15 C          -3.8295   -2.5688   -0.3030 C.ar    1  LIG1        0.0793
     16 N          -2.5090   -2.2322   -0.0755 N.ar    1  LIG1       -0.3499
     17 H          -1.8677   -2.8102    0.4475 H       1  LIG1        0.1661
     18 N          -3.8594    2.0979   -1.3557 N.1     1  LIG1       -0.1908
     19 C          -3.7373    0.9864   -1.0570 C.1     1  LIG1        0.1025
     20 S          -6.1576   -1.2735   -1.2634 S.3     1  LIG1       -0.1393
     21 H          -6.7703   -1.4285   -0.0746 H       1  LIG1        0.1072
     22 C          -4.2864   -3.9370   -0.1366 C.ar    1  LIG1        0.0827
     23 C          -5.3794   -4.4545    0.5377 C.ar    1  LIG1        0.0915
     24 C          -5.3535   -5.8778    0.3865 C.ar    1  LIG1        0.0401
     25 C          -4.2425   -6.1752   -0.3558 C.ar    1  LIG1        0.0167
     26 N          -3.5976   -5.0035   -0.6506 N.ar    1  LIG1       -0.3574
     27 H          -2.8189   -4.9190   -1.2845 H       1  LIG1        0.1654
     28 H          -3.8712   -7.1309   -0.6907 H       1  LIG1        0.0818
     29 N          -7.0823   -3.0385    1.8544 N.1     1  LIG1       -0.1908
     30 C          -6.3202   -3.6882    1.2733 C.1     1  LIG1        0.1024
     31 S          -6.4411   -7.0634    1.1127 S.3     1  LIG1       -0.1399
     32 H          -7.5544   -6.7071    0.4470 H       1  LIG1        0.1072
@<TRIPOS>BOND
     1    18    19    3
     2    27    26    1
     3     6     5    1
     4    20    14    1
     5    20    21    1
     6    19    13    1
     7    28    25    1
     8    14    13   ar
     9    14    15   ar
    10    13    12   ar
    11    26    25   ar
    12    26    22   ar
    13     7     1    1
    14     5     1   ar
    15     5     4   ar
    16    25    24   ar
    17    15    22    1
    18    15    16   ar
    19     1     2   ar
    20    12     4    1
    21    12    16   ar
    22    22    23   ar
    23     4     3   ar
    24    16    17    1
    25    24    23   ar
    26    24    31    1
    27    32    31    1
    28     2     3   ar
    29     2     9    1
    30    23    30    1
    31     3    10    1
    32    11    10    1
    33     9     8    3
    34    30    29    3
