@<TRIPOS>MOLECULE
mol_data/opt/cam/geoms/mol2/13dg13dg13dg-13dg-.out
 42 45 0 0 0
SMALL
GASTEIGER

@<TRIPOS>ATOM
      1 C           0.5660    0.6582    1.6659 C.ar    1  LIG1        0.0208
      2 C           0.7865    1.1269    0.3901 C.ar    1  LIG1        0.0828
      3 C          -0.2999    0.6858   -0.4303 C.ar    1  LIG1        0.0489
      4 C          -1.1391   -0.0457    0.3842 C.ar    1  LIG1        0.0788
      5 N          -0.5910   -0.0529    1.6510 N.ar    1  LIG1       -0.3574
      6 H          -1.0650   -0.3923    2.4736 H       1  LIG1        0.1654
      7 H           1.1463    0.7936    2.5650 H       1  LIG1        0.0820
      8 N           2.8367    2.5191   -0.3256 N.1     1  LIG1       -0.1908
      9 C           1.9117    1.8978   -0.0155 C.1     1  LIG1        0.1018
     10 S          -0.4354    0.9277   -2.1752 S.3     1  LIG1       -0.1393
     11 H          -1.4663    1.7934   -2.1497 H       1  LIG1        0.1072
     12 C          -2.3806   -0.7448    0.0957 C.ar    1  LIG1        0.0831
     13 C          -3.5606   -0.2995   -0.4761 C.ar    1  LIG1        0.0922
     14 C          -4.4841   -1.3879   -0.5033 C.ar    1  LIG1        0.0496
     15 C          -3.8350   -2.4717    0.0541 C.ar    1  LIG1        0.0793
     16 N          -2.5705   -2.0589    0.4152 N.ar    1  LIG1       -0.3499
     17 H          -1.8765   -2.6448    0.8528 H       1  LIG1        0.1661
     18 N          -3.8970    2.1194   -1.2996 N.1     1  LIG1       -0.1908
     19 C          -3.7758    1.0292   -0.9308 C.1     1  LIG1        0.1025
     20 S          -6.0880   -1.3483   -1.2422 S.3     1  LIG1       -0.1393
     21 H          -6.8034   -1.4412   -0.1053 H       1  LIG1        0.1072
     22 C          -4.2668   -3.8435    0.2604 C.ar    1  LIG1        0.0831
     23 C          -5.3933   -4.3525    0.8793 C.ar    1  LIG1        0.0922
     24 C          -5.3435   -5.7793    0.8005 C.ar    1  LIG1        0.0496
     25 C          -4.1766   -6.0970    0.1360 C.ar    1  LIG1        0.0793
     26 N          -3.5289   -4.9153   -0.1672 N.ar    1  LIG1       -0.3499
     27 H          -2.7963   -4.8435   -0.8583 H       1  LIG1        0.1661
     28 N          -7.1599   -2.8600    2.0168 N.1     1  LIG1       -0.1908
     29 C          -6.3810   -3.5557    1.5181 C.1     1  LIG1        0.1025
     30 S          -6.4883   -6.8739    1.5826 S.3     1  LIG1       -0.1393
     31 H          -7.0499   -7.3708    0.4646 H       1  LIG1        0.1072
     32 C          -3.6007   -7.3748   -0.2432 C.ar    1  LIG1        0.0827
     33 C          -4.1669   -8.4705   -0.8784 C.ar    1  LIG1        0.0915
     34 C          -3.1489   -9.4616   -1.0343 C.ar    1  LIG1        0.0401
     35 C          -2.0026   -8.9370   -0.5006 C.ar    1  LIG1        0.0167
     36 N          -2.2853   -7.6729   -0.0391 N.ar    1  LIG1       -0.3574
     37 H          -1.6580   -7.1126    0.5153 H       1  LIG1        0.1654
     38 H          -1.0140   -9.3590   -0.4123 H       1  LIG1        0.0818
     39 N          -6.6102   -8.5845   -1.6876 N.1     1  LIG1       -0.1908
     40 C          -5.5086   -8.5432   -1.3327 C.1     1  LIG1        0.1024
     41 S          -3.4147  -11.0258   -1.8030 S.3     1  LIG1       -0.1399
     42 H          -2.1566  -11.4690   -1.6508 H       1  LIG1        0.1072
@<TRIPOS>BOND
     1    10    11    1
     2    10     3    1
     3    41    42    1
     4    41    34    1
     5    39    40    3
     6    40    33    1
     7    18    19    3
     8    20    14    1
     9    20    21    1
    10    34    33   ar
    11    34    35   ar
    12    19    13    1
    13    33    32   ar
    14    27    26    1
    15    14    13   ar
    16    14    15   ar
    17    35    38    1
    18    35    36   ar
    19    13    12   ar
    20     3     4   ar
    21     3     2   ar
    22     8     9    3
    23    32    36   ar
    24    32    25    1
    25    26    25   ar
    26    26    22   ar
    27    36    37    1
    28     9     2    1
    29    15    22    1
    30    15    16   ar
    31    12     4    1
    32    12    16   ar
    33    25    24   ar
    34    22    23   ar
    35     4     5   ar
    36     2     1   ar
    37    16    17    1
    38    31    30    1
    39    24    23   ar
    40    24    30    1
    41    23    29    1
    42    29    28    3
    43     5     1   ar
    44     5     6    1
    45     1     7    1
