@<TRIPOS>MOLECULE
mol_data/opt/cam/geoms/mol2/13dg13dg-13dg-13dg.out
 42 45 0 0 0
SMALL
GASTEIGER

@<TRIPOS>ATOM
      1 C           0.9665   -1.2788    1.0490 C.ar    1  LIG1        0.0208
      2 C           0.7704    0.0218    1.4619 C.ar    1  LIG1        0.0828
      3 C          -0.5747    0.3845    1.1402 C.ar    1  LIG1        0.0489
      4 C          -1.1459   -0.7196    0.5352 C.ar    1  LIG1        0.0788
      5 N          -0.1885   -1.7174    0.4945 N.ar    1  LIG1       -0.3574
      6 H          -0.3053   -2.6251    0.0616 H       1  LIG1        0.1654
      7 H           1.8463   -1.9001    1.1065 H       1  LIG1        0.0820
      8 N           2.5575    1.4710    2.6277 N.1     1  LIG1       -0.1908
      9 C           1.7478    0.8315    2.1047 C.1     1  LIG1        0.1018
     10 S          -1.3505    1.8897    1.6419 S.3     1  LIG1       -0.1393
     11 H          -1.6093    2.3858    0.4186 H       1  LIG1        0.1072
     12 C          -2.4788   -0.9928    0.0374 C.ar    1  LIG1        0.0831
     13 C          -3.4063   -0.2567   -0.6878 C.ar    1  LIG1        0.0922
     14 C          -4.5413   -1.0929   -0.9459 C.ar    1  LIG1        0.0496
     15 C          -4.2650   -2.3201   -0.3817 C.ar    1  LIG1        0.0793
     16 N          -3.0157   -2.2327    0.2093 N.ar    1  LIG1       -0.3499
     17 H          -2.6571   -2.9007    0.8767 H       1  LIG1        0.1661
     18 N          -2.9950    2.1184   -1.5988 N.1     1  LIG1       -0.1908
     19 C          -3.1997    1.0551   -1.1894 C.1     1  LIG1        0.1025
     20 S          -5.8884   -0.6272   -1.9845 S.3     1  LIG1       -0.1393
     21 H          -6.8821   -1.0380   -1.1775 H       1  LIG1        0.1072
     22 C          -4.8595   -3.6380   -0.4441 C.ar    1  LIG1        0.0831
     23 C          -6.1378   -4.1764   -0.3944 C.ar    1  LIG1        0.0922
     24 C          -6.0079   -5.6032   -0.4267 C.ar    1  LIG1        0.0496
     25 C          -4.6561   -5.8891   -0.4895 C.ar    1  LIG1        0.0793
     26 N          -3.9974   -4.6895   -0.5102 N.ar    1  LIG1       -0.3499
     27 H          -3.0062   -4.5833   -0.6717 H       1  LIG1        0.1661
     28 N          -8.3066   -2.8177   -0.1032 N.1     1  LIG1       -0.1908
     29 C          -7.3404   -3.4407   -0.2413 C.1     1  LIG1        0.1025
     30 S          -7.3263   -6.7787   -0.4570 S.3     1  LIG1       -0.1393
     31 H          -7.6800   -6.7056    0.8400 H       1  LIG1        0.1072
     32 C          -3.8841   -7.1137   -0.4825 C.ar    1  LIG1        0.0827
     33 C          -2.5056   -7.2866   -0.3394 C.ar    1  LIG1        0.0915
     34 C          -2.2395   -8.6921   -0.3699 C.ar    1  LIG1        0.0401
     35 C          -3.4492   -9.3129   -0.5354 C.ar    1  LIG1        0.0167
     36 N          -4.4236   -8.3554   -0.6034 N.ar    1  LIG1       -0.3574
     37 H          -5.4195   -8.5130   -0.6946 H       1  LIG1        0.1654
     38 H          -3.6789  -10.3638   -0.6136 H       1  LIG1        0.0818
     39 N          -0.9400   -5.2638   -0.0476 N.1     1  LIG1       -0.1908
     40 C          -1.5841   -6.2216   -0.1736 C.1     1  LIG1        0.1024
     41 S          -0.6634   -9.4867   -0.3218 S.3     1  LIG1       -0.1399
     42 H          -0.4472   -9.3741    1.0020 H       1  LIG1        0.1072
@<TRIPOS>BOND
     1    20    21    1
     2    20    14    1
     3    18    19    3
     4    19    13    1
     5    14    13   ar
     6    14    15   ar
     7    37    36    1
     8    13    12   ar
     9    27    26    1
    10    38    35    1
    11    36    35   ar
    12    36    32   ar
    13    35    34   ar
    14    26    25   ar
    15    26    22   ar
    16    25    32    1
    17    25    24   ar
    18    32    33   ar
    19    30    24    1
    20    30    31    1
    21    22    23   ar
    22    22    15    1
    23    24    23   ar
    24    23    29    1
    25    15    16   ar
    26    34    33   ar
    27    34    41    1
    28    33    40    1
    29    41    42    1
    30    29    28    3
    31    40    39    3
    32    12    16   ar
    33    12     4    1
    34     6     5    1
    35    16    17    1
    36    11    10    1
    37     5     4   ar
    38     5     1   ar
    39     4     3   ar
    40     1     7    1
    41     1     2   ar
    42     3     2   ar
    43     3    10    1
    44     2     9    1
    45     9     8    3
