@<TRIPOS>MOLECULE
mol_data/opt/cam/geoms/mol2/13dg13dg-13dg-13dg-.out
 42 45 0 0 0
SMALL
GASTEIGER

@<TRIPOS>ATOM
      1 C           1.2082    0.1191   -0.1980 C.ar    1  LIG1        0.0208
      2 C           0.7053    1.2496    0.4056 C.ar    1  LIG1        0.0828
      3 C          -0.7177    1.1138    0.4730 C.ar    1  LIG1        0.0489
      4 C          -1.0251   -0.1078   -0.0922 C.ar    1  LIG1        0.0788
      5 N           0.1605   -0.6957   -0.4860 N.ar    1  LIG1       -0.3574
      6 H           0.2204   -1.5281   -1.0506 H       1  LIG1        0.1654
      7 H           2.2256   -0.1432   -0.4420 H       1  LIG1        0.0820
      8 N           2.1456    3.2108    1.2615 N.1     1  LIG1       -0.1908
      9 C           1.4884    2.3387    0.8806 C.1     1  LIG1        0.1018
     10 S          -1.8126    2.2422    1.2783 S.3     1  LIG1       -0.1393
     11 H          -2.4368    2.6966    0.1754 H       1  LIG1        0.1072
     12 C          -2.2945   -0.7880   -0.2781 C.ar    1  LIG1        0.0831
     13 C          -3.4866   -0.3540   -0.8282 C.ar    1  LIG1        0.0922
     14 C          -4.4333   -1.4232   -0.7525 C.ar    1  LIG1        0.0496
     15 C          -3.7812   -2.4859   -0.1606 C.ar    1  LIG1        0.0793
     16 N          -2.4827   -2.0906    0.1009 N.ar    1  LIG1       -0.3499
     17 H          -1.8720   -2.5684    0.7466 H       1  LIG1        0.1661
     18 N          -3.7942    1.9846   -1.8667 N.1     1  LIG1       -0.1908
     19 C          -3.6816    0.9269   -1.4107 C.1     1  LIG1        0.1025
     20 S          -6.0452   -1.3918   -1.4736 S.3     1  LIG1       -0.1393
     21 H          -6.7514   -1.4210   -0.3278 H       1  LIG1        0.1072
     22 C          -4.2281   -3.8263    0.1690 C.ar    1  LIG1        0.0831
     23 C          -5.3778   -4.2754    0.7942 C.ar    1  LIG1        0.0922
     24 C          -5.3223   -5.7029    0.8636 C.ar    1  LIG1        0.0496
     25 C          -4.1281   -6.0811    0.2876 C.ar    1  LIG1        0.0793
     26 N          -3.4701   -4.9333   -0.1103 N.ar    1  LIG1       -0.3499
     27 H          -2.7090   -4.9300   -0.7728 H       1  LIG1        0.1661
     28 N          -7.1881   -2.7083    1.7470 N.1     1  LIG1       -0.1908
     29 C          -6.3880   -3.4328    1.3292 C.1     1  LIG1        0.1025
     30 S          -6.4991   -6.7246    1.6951 S.3     1  LIG1       -0.1393
     31 H          -7.0227   -7.3101    0.6014 H       1  LIG1        0.1072
     32 C          -3.5351   -7.3898    0.0769 C.ar    1  LIG1        0.0827
     33 C          -4.0599   -8.5438   -0.4792 C.ar    1  LIG1        0.0915
     34 C          -3.0403   -9.5481   -0.4480 C.ar    1  LIG1        0.0401
     35 C          -1.9325   -8.9674    0.1086 C.ar    1  LIG1        0.0167
     36 N          -2.2334   -7.6643    0.4040 N.ar    1  LIG1       -0.3574
     37 H          -1.6437   -7.0447    0.9366 H       1  LIG1        0.1654
     38 H          -0.9612   -9.3893    0.3131 H       1  LIG1        0.0818
     39 N          -6.4499   -8.7424   -1.4210 N.1     1  LIG1       -0.1908
     40 C          -5.3703   -8.6667   -1.0100 C.1     1  LIG1        0.1024
     41 S          -3.1106  -11.1827   -1.1106 S.3     1  LIG1       -0.1399
     42 H          -4.0386  -11.6705   -0.2678 H       1  LIG1        0.1072
@<TRIPOS>BOND
     1    18    19    3
     2    20    14    1
     3    20    21    1
     4    39    40    3
     5    19    13    1
     6    41    34    1
     7    41    42    1
     8     6     5    1
     9    40    33    1
    10    13    14   ar
    11    13    12   ar
    12    27    26    1
    13    14    15   ar
    14     5     1   ar
    15     5     4   ar
    16    33    34   ar
    17    33    32   ar
    18    34    35   ar
    19     7     1    1
    20    12     4    1
    21    12    16   ar
    22     1     2   ar
    23    15    16   ar
    24    15    22    1
    25    26    22   ar
    26    26    25   ar
    27     4     3   ar
    28    32    25    1
    29    32    36   ar
    30    16    17    1
    31    35    38    1
    32    35    36   ar
    33    22    23   ar
    34    11    10    1
    35    25    24   ar
    36    36    37    1
    37     2     3   ar
    38     2     9    1
    39     3    10    1
    40    31    30    1
    41    23    24   ar
    42    23    29    1
    43    24    30    1
    44     9     8    3
    45    29    28    3
