@<TRIPOS>MOLECULE
mol_data/opt/cam/geoms/mol2/13dg13dg-13dg.out
 32 34 0 0 0
SMALL
GASTEIGER

@<TRIPOS>ATOM
      1 C           0.2218   -0.0128   -2.0625 C.ar    1  LIG1        0.0208
      2 C           0.5926    0.7891   -1.0056 C.ar    1  LIG1        0.0828
      3 C          -0.3928    0.6431    0.0209 C.ar    1  LIG1        0.0489
      4 C          -1.3338   -0.2480   -0.4595 C.ar    1  LIG1        0.0788
      5 N          -0.9357   -0.6326   -1.7235 N.ar    1  LIG1       -0.3574
      6 H          -1.4673   -1.2316   -2.3370 H       1  LIG1        0.1654
      7 H           0.6990   -0.1696   -3.0169 H       1  LIG1        0.0820
      8 N           2.7139    2.2554   -0.9513 N.1     1  LIG1       -0.1908
      9 C           1.7603    1.6009   -0.9641 C.1     1  LIG1        0.1018
     10 S          -0.2707    1.3275    1.6447 S.3     1  LIG1       -0.1393
     11 H          -1.2627    2.2308    1.5428 H       1  LIG1        0.1072
     12 C          -2.5303   -0.8107    0.1355 C.ar    1  LIG1        0.0831
     13 C          -3.5549   -0.2432    0.8763 C.ar    1  LIG1        0.0922
     14 C          -4.4984   -1.2726    1.1744 C.ar    1  LIG1        0.0496
     15 C          -4.0271   -2.4385    0.5973 C.ar    1  LIG1        0.0793
     16 N          -2.8396   -2.1304   -0.0211 N.ar    1  LIG1       -0.3499
     17 H          -2.2289   -2.8120   -0.4534 H       1  LIG1        0.1661
     18 N          -3.8051    2.2637    1.4142 N.1     1  LIG1       -0.1908
     19 C          -3.6922    1.1344    1.1861 C.1     1  LIG1        0.1025
     20 S          -5.9496   -1.0853    2.1667 S.3     1  LIG1       -0.1393
     21 H          -6.7473   -0.5229    1.2390 H       1  LIG1        0.1072
     22 C          -4.5642   -3.7839    0.5475 C.ar    1  LIG1        0.0827
     23 C          -4.1509   -4.8873   -0.1952 C.ar    1  LIG1        0.0915
     24 C          -5.0334   -5.9712    0.1051 C.ar    1  LIG1        0.0401
     25 C          -5.9382   -5.4938    1.0165 C.ar    1  LIG1        0.0167
     26 N          -5.6438   -4.1851    1.2746 N.ar    1  LIG1       -0.3574
     27 H          -6.1538   -3.5606    1.8869 H       1  LIG1        0.1654
     28 H          -6.7620   -5.9965    1.4980 H       1  LIG1        0.0818
     29 N          -2.1478   -4.7463   -1.8040 N.1     1  LIG1       -0.1908
     30 C          -3.0566   -4.8732   -1.0947 C.1     1  LIG1        0.1024
     31 S          -4.9312   -7.6349   -0.4765 S.3     1  LIG1       -0.1399
     32 H          -5.3834   -7.4168   -1.7253 H       1  LIG1        0.1072
@<TRIPOS>BOND
     1     7     1    1
     2     6     5    1
     3     1     5   ar
     4     1     2   ar
     5    29    30    3
     6    32    31    1
     7     5     4   ar
     8    30    23    1
     9     2     9    1
    10     2     3   ar
    11     9     8    3
    12    31    24    1
    13     4     3   ar
    14     4    12    1
    15    17    16    1
    16    23    24   ar
    17    23    22   ar
    18    16    12   ar
    19    16    15   ar
    20     3    10    1
    21    24    25   ar
    22    12    13   ar
    23    22    15    1
    24    22    26   ar
    25    15    14   ar
    26    13    14   ar
    27    13    19    1
    28    25    26   ar
    29    25    28    1
    30    14    20    1
    31    19    18    3
    32    21    20    1
    33    26    27    1
    34    11    10    1
