@<TRIPOS>MOLECULE
mol_data/opt/cam/geoms/mol2/13dg13dg13dg13dg.out
 42 45 0 0 0
SMALL
GASTEIGER

@<TRIPOS>ATOM
      1 C           1.2112    0.1151    0.1734 C.ar    1  LIG1        0.0208
      2 C           0.6979    1.2590   -0.3952 C.ar    1  LIG1        0.0828
      3 C          -0.7262    1.1243   -0.4405 C.ar    1  LIG1        0.0489
      4 C          -1.0237   -0.1099    0.1020 C.ar    1  LIG1        0.0788
      5 N           0.1687   -0.7062    0.4613 N.ar    1  LIG1       -0.3574
      6 H           0.2385   -1.5514    1.0054 H       1  LIG1        0.1654
      7 H           2.2327   -0.1523    0.3934 H       1  LIG1        0.0820
      8 N           2.1231    3.2398   -1.2312 N.1     1  LIG1       -0.1908
      9 C           1.4726    2.3590   -0.8589 C.1     1  LIG1        0.1018
     10 S          -1.8350    2.2705   -1.2004 S.3     1  LIG1       -0.1393
     11 H          -2.4394    2.6995   -0.0766 H       1  LIG1        0.1072
     12 C          -2.2896   -0.7946    0.2948 C.ar    1  LIG1        0.0831
     13 C          -3.4717   -0.3735    0.8757 C.ar    1  LIG1        0.0922
     14 C          -4.4197   -1.4410    0.7925 C.ar    1  LIG1        0.0496
     15 C          -3.7784   -2.4898    0.1651 C.ar    1  LIG1        0.0793
     16 N          -2.4847   -2.0883   -0.1103 N.ar    1  LIG1       -0.3499
     17 H          -1.8856   -2.5510   -0.7776 H       1  LIG1        0.1661
     18 N          -3.7604    1.9408    1.9724 N.1     1  LIG1       -0.1908
     19 C          -3.6562    0.8939    1.4905 C.1     1  LIG1        0.1025
     20 S          -6.0186   -1.4264    1.5427 S.3     1  LIG1       -0.1393
     21 H          -6.7451   -1.4300    0.4093 H       1  LIG1        0.1072
     22 C          -4.2312   -3.8224   -0.1869 C.ar    1  LIG1        0.0831
     23 C          -5.3919   -4.2576   -0.8015 C.ar    1  LIG1        0.0922
     24 C          -5.3377   -5.6832   -0.9043 C.ar    1  LIG1        0.0496
     25 C          -4.1334   -6.0740   -0.3586 C.ar    1  LIG1        0.0793
     26 N          -3.4683   -4.9352    0.0534 N.ar    1  LIG1       -0.3499
     27 H          -2.6957   -4.9468    0.7024 H       1  LIG1        0.1661
     28 N          -7.2188   -2.6699   -1.6860 N.1     1  LIG1       -0.1908
     29 C          -6.4115   -3.4034   -1.2992 C.1     1  LIG1        0.1025
     30 S          -6.5292   -6.6860   -1.7378 S.3     1  LIG1       -0.1393
     31 H          -7.0332   -7.2966   -0.6487 H       1  LIG1        0.1072
     32 C          -3.5368   -7.3869   -0.1882 C.ar    1  LIG1        0.0827
     33 C          -4.0517   -8.5535    0.3505 C.ar    1  LIG1        0.0915
     34 C          -3.0329   -9.5563    0.2787 C.ar    1  LIG1        0.0401
     35 C          -1.9350   -8.9627   -0.2839 C.ar    1  LIG1        0.0167
     36 N          -2.2411   -7.6533   -0.5442 N.ar    1  LIG1       -0.3574
     37 H          -1.6608   -7.0216   -1.0731 H       1  LIG1        0.1654
     38 H          -0.9674   -9.3794   -0.5152 H       1  LIG1        0.0818
     39 N          -6.4248   -8.7746    1.3295 N.1     1  LIG1       -0.1908
     40 C          -5.3526   -8.6890    0.9013 C.1     1  LIG1        0.1024
     41 S          -3.0916  -11.2057    0.9049 S.3     1  LIG1       -0.1399
     42 H          -4.0352  -11.6740    0.0685 H       1  LIG1        0.1072
@<TRIPOS>BOND
     1    30    24    1
     2    30    31    1
     3    28    29    3
     4    29    23    1
     5     8     9    3
     6    10     3    1
     7    10    11    1
     8    37    36    1
     9    24    23   ar
    10    24    25   ar
    11     9     2    1
    12    23    22   ar
    13    17    16    1
    14    36    35   ar
    15    36    32   ar
    16    38    35    1
    17     3     2   ar
    18     3     4   ar
    19     2     1   ar
    20    25    32    1
    21    25    26   ar
    22    35    34   ar
    23    32    33   ar
    24    22    26   ar
    25    22    15    1
    26    16    15   ar
    27    16    12   ar
    28    26    27    1
    29    42    41    1
    30     4    12    1
    31     4     5   ar
    32    15    14   ar
    33     1     7    1
    34     1     5   ar
    35    34    33   ar
    36    34    41    1
    37    12    13   ar
    38    33    40    1
    39    21    20    1
    40     5     6    1
    41    14    13   ar
    42    14    20    1
    43    13    19    1
    44    40    39    3
    45    19    18    3
