@<TRIPOS>MOLECULE
mol_data/opt/cam/geoms/mol2/13dg13dg13dg-.out
 32 34 0 0 0
SMALL
GASTEIGER

@<TRIPOS>ATOM
      1 C           0.2312   -0.1200    1.9892 C.ar    1  LIG1        0.0208
      2 C           0.5286    0.7928    0.9998 C.ar    1  LIG1        0.0828
      3 C          -0.5131    0.7316    0.0209 C.ar    1  LIG1        0.0489
      4 C          -1.4169   -0.2140    0.4625 C.ar    1  LIG1        0.0788
      5 N          -0.9362   -0.7176    1.6611 N.ar    1  LIG1       -0.3574
      6 H          -1.4256   -1.3800    2.2437 H       1  LIG1        0.1654
      7 H           0.7713   -0.3659    2.8899 H       1  LIG1        0.0820
      8 N           2.6254    2.2858    0.8634 N.1     1  LIG1       -0.1908
      9 C           1.6849    1.6157    0.9402 C.1     1  LIG1        0.1018
     10 S          -0.6104    1.6694   -1.4662 S.3     1  LIG1       -0.1393
     11 H           0.7179    1.7099   -1.6714 H       1  LIG1        0.1072
     12 C          -2.6242   -0.7611   -0.1210 C.ar    1  LIG1        0.0831
     13 C          -3.6795   -0.1908   -0.8168 C.ar    1  LIG1        0.0922
     14 C          -4.6104   -1.2313   -1.1214 C.ar    1  LIG1        0.0496
     15 C          -4.1033   -2.4045   -0.5930 C.ar    1  LIG1        0.0793
     16 N          -2.9042   -2.0920   -0.0003 N.ar    1  LIG1       -0.3499
     17 H          -2.2654   -2.7760    0.3838 H       1  LIG1        0.1661
     18 N          -4.0697    2.3122   -1.2875 N.1     1  LIG1       -0.1908
     19 C          -3.8747    1.1897   -1.0843 C.1     1  LIG1        0.1025
     20 S          -6.0914   -1.0473   -2.0685 S.3     1  LIG1       -0.1393
     21 H          -6.8591   -0.4790   -1.1198 H       1  LIG1        0.1072
     22 C          -4.6153   -3.7596   -0.5601 C.ar    1  LIG1        0.0827
     23 C          -4.1588   -4.8723    0.1429 C.ar    1  LIG1        0.0915
     24 C          -5.0330   -5.9645   -0.1530 C.ar    1  LIG1        0.0401
     25 C          -5.9761   -5.4823   -1.0219 C.ar    1  LIG1        0.0167
     26 N          -5.7120   -4.1630   -1.2596 N.ar    1  LIG1       -0.3574
     27 H          -6.2557   -3.5318   -1.8351 H       1  LIG1        0.1654
     28 H          -6.8075   -5.9881   -1.4869 H       1  LIG1        0.0818
     29 N          -2.1079   -4.7252    1.6894 N.1     1  LIG1       -0.1908
     30 C          -3.0368   -4.8571    1.0073 C.1     1  LIG1        0.1024
     31 S          -4.8835   -7.6388    0.3866 S.3     1  LIG1       -0.1399
     32 H          -5.3034   -7.4581    1.6525 H       1  LIG1        0.1072
@<TRIPOS>BOND
     1    20    14    1
     2    20    21    1
     3    27    26    1
     4    11    10    1
     5    28    25    1
     6    10     3    1
     7    18    19    3
     8    26    25   ar
     9    26    22   ar
    10    14    13   ar
    11    14    15   ar
    12    19    13    1
    13    25    24   ar
    14    13    12   ar
    15    15    22    1
    16    15    16   ar
    17    22    23   ar
    18    24    23   ar
    19    24    31    1
    20    12    16   ar
    21    12     4    1
    22    16    17    1
    23     3     4   ar
    24     3     2   ar
    25    23    30    1
    26    31    32    1
    27     4     5   ar
    28     8     9    3
    29     9     2    1
    30     2     1   ar
    31    30    29    3
    32     5     1   ar
    33     5     6    1
    34     1     7    1
