@<TRIPOS>MOLECULE
mol_data/opt/cam/geoms/mol2/13dg13dg13dg13dg-.out
 42 45 0 0 0
SMALL
GASTEIGER

@<TRIPOS>ATOM
      1 C           1.2086    0.1159    0.2044 C.ar    1  LIG1        0.0208
      2 C           0.7026    1.2569   -0.3765 C.ar    1  LIG1        0.0828
      3 C          -0.7208    1.1222   -0.4386 C.ar    1  LIG1        0.0489
      4 C          -1.0252   -0.1091    0.1066 C.ar    1  LIG1        0.0788
      5 N           0.1625   -0.7038    0.4836 N.ar    1  LIG1       -0.3574
      6 H           0.2254   -1.5460    1.0332 H       1  LIG1        0.1654
      7 H           2.2273   -0.1505    0.4382 H       1  LIG1        0.0820
      8 N           2.1384    3.2330   -1.2053 N.1     1  LIG1       -0.1908
      9 C           1.4832    2.3543   -0.8364 C.1     1  LIG1        0.1018
     10 S          -1.8198    2.2648   -1.2179 S.3     1  LIG1       -0.1393
     11 H          -2.4387    2.6989   -0.1040 H       1  LIG1        0.1072
     12 C          -2.2936   -0.7927    0.2873 C.ar    1  LIG1        0.0831
     13 C          -3.4828   -0.3686    0.8510 C.ar    1  LIG1        0.0922
     14 C          -4.4297   -1.4366    0.7617 C.ar    1  LIG1        0.0496
     15 C          -3.7807   -2.4887    0.1480 C.ar    1  LIG1        0.0793
     16 N          -2.4836   -2.0886   -0.1134 N.ar    1  LIG1       -0.3499
     17 H          -1.8763   -2.5548   -0.7707 H       1  LIG1        0.1661
     18 N          -3.7853    1.9514    1.9320 N.1     1  LIG1       -0.1908
     19 C          -3.6751    0.9019    1.4568 C.1     1  LIG1        0.1025
     20 S          -6.0378   -1.4180    1.4918 S.3     1  LIG1       -0.1393
     21 H          -6.7501   -1.4281    0.3494 H       1  LIG1        0.1072
     22 C          -4.2290   -3.8232   -0.2025 C.ar    1  LIG1        0.0831
     23 C          -5.3819   -4.2618   -0.8293 C.ar    1  LIG1        0.0922
     24 C          -5.3265   -5.6879   -0.9237 C.ar    1  LIG1        0.0496
     25 C          -4.1291   -6.0757   -0.3608 C.ar    1  LIG1        0.0793
     26 N          -3.4693   -4.9347    0.0534 N.ar    1  LIG1       -0.3499
     27 H          -2.7044   -4.9427    0.7115 H       1  LIG1        0.1661
     28 N          -7.1977   -2.6790   -1.7450 N.1     1  LIG1       -0.1908
     29 C          -6.3952   -3.4104   -1.3443 C.1     1  LIG1        0.1025
     30 S          -6.5075   -6.6954   -1.7663 S.3     1  LIG1       -0.1393
     31 H          -7.0252   -7.2997   -0.6800 H       1  LIG1        0.1072
     32 C          -3.5349   -7.3877   -0.1758 C.ar    1  LIG1        0.0827
     33 C          -4.0566   -8.5510    0.3635 C.ar    1  LIG1        0.0915
     34 C          -3.0374   -9.5546    0.3095 C.ar    1  LIG1        0.0401
     35 C          -1.9326   -8.9645   -0.2433 C.ar    1  LIG1        0.0167
     36 N          -2.2351   -7.6566   -0.5149 N.ar    1  LIG1       -0.3574
     37 H          -1.6481   -7.0279   -1.0397 H       1  LIG1        0.1654
     38 H          -0.9624   -9.3827   -0.4606 H       1  LIG1        0.0818
     39 N          -6.4415   -8.7659    1.3149 N.1     1  LIG1       -0.1908
     40 C          -5.3641   -8.6830    0.8993 C.1     1  LIG1        0.1024
     41 S          -3.1043  -11.2005    0.9441 S.3     1  LIG1       -0.1399
     42 H          -4.0369  -11.6735    0.0980 H       1  LIG1        0.1072
@<TRIPOS>BOND
     1    30    24    1
     2    30    31    1
     3    28    29    3
     4    29    23    1
     5    10     3    1
     6    10    11    1
     7     8     9    3
     8    37    36    1
     9    24    23   ar
    10    24    25   ar
    11     9     2    1
    12    23    22   ar
    13    17    16    1
    14    36    35   ar
    15    36    32   ar
    16    38    35    1
    17     3     2   ar
    18     3     4   ar
    19     2     1   ar
    20    25    32    1
    21    25    26   ar
    22    35    34   ar
    23    22    26   ar
    24    22    15    1
    25    32    33   ar
    26    16    15   ar
    27    16    12   ar
    28    26    27    1
    29    42    41    1
    30     4    12    1
    31     4     5   ar
    32    15    14   ar
    33     1     7    1
    34     1     5   ar
    35    12    13   ar
    36    34    33   ar
    37    34    41    1
    38    21    20    1
    39    33    40    1
    40     5     6    1
    41    14    13   ar
    42    14    20    1
    43    13    19    1
    44    40    39    3
    45    19    18    3
