@<TRIPOS>MOLECULE
mol_data/opt/cam/geoms/mol2/13dg13dg-13dg13dg-.out
 42 45 0 0 0
SMALL
GASTEIGER

@<TRIPOS>ATOM
      1 C           0.3730   -0.2412   -2.4773 C.ar    1  LIG1        0.0208
      2 C           0.8230    0.4394   -1.3682 C.ar    1  LIG1        0.0828
      3 C          -0.1646    0.3040   -0.3418 C.ar    1  LIG1        0.0489
      4 C          -1.1820   -0.4640   -0.8716 C.ar    1  LIG1        0.0788
      5 N          -0.8309   -0.7861   -2.1668 N.ar    1  LIG1       -0.3574
      6 H          -1.4431   -1.2375   -2.8281 H       1  LIG1        0.1654
      7 H           0.8247   -0.3605   -3.4494 H       1  LIG1        0.0820
      8 N           3.0709    1.6976   -1.2365 N.1     1  LIG1       -0.1908
      9 C           2.0605    1.1367   -1.2833 C.1     1  LIG1        0.1018
     10 S           0.0027    0.8819    1.3192 S.3     1  LIG1       -0.1393
     11 H          -0.9204    1.8600    1.2592 H       1  LIG1        0.1072
     12 C          -2.4247   -0.9416   -0.2912 C.ar    1  LIG1        0.0831
     13 C          -3.4316   -0.2688    0.3819 C.ar    1  LIG1        0.0922
     14 C          -4.4478   -1.2103    0.7268 C.ar    1  LIG1        0.0496
     15 C          -4.0338   -2.4350    0.2388 C.ar    1  LIG1        0.0793
     16 N          -2.8140   -2.2472   -0.3786 N.ar    1  LIG1       -0.3499
     17 H          -2.2455   -2.9824   -0.7743 H       1  LIG1        0.1661
     18 N          -3.4007    2.2706    0.8206 N.1     1  LIG1       -0.1908
     19 C          -3.4375    1.1290    0.6339 C.1     1  LIG1        0.1025
     20 S          -5.8410   -0.8522    1.7516 S.3     1  LIG1       -0.1393
     21 H          -6.8006   -0.9879    0.8184 H       1  LIG1        0.1072
     22 C          -4.6178   -3.7596    0.3187 C.ar    1  LIG1        0.0831
     23 C          -5.9162   -4.2179    0.1570 C.ar    1  LIG1        0.0922
     24 C          -5.8994   -5.6376    0.3103 C.ar    1  LIG1        0.0496
     25 C          -4.5874   -6.0065    0.5482 C.ar    1  LIG1        0.0793
     26 N          -3.8389   -4.8553    0.5512 N.ar    1  LIG1       -0.3499
     27 H          -2.8561   -4.8188    0.7893 H       1  LIG1        0.1661
     28 N          -7.9332   -2.7744   -0.5388 N.1     1  LIG1       -0.1908
     29 C          -7.0353   -3.4282   -0.2125 C.1     1  LIG1        0.1025
     30 S          -7.3132   -6.6983    0.2794 S.3     1  LIG1       -0.1393
     31 H          -7.4493   -6.8023   -1.0562 H       1  LIG1        0.1072
     32 C          -3.9577   -7.2974    0.7420 C.ar    1  LIG1        0.0827
     33 C          -2.6082   -7.6415    0.7264 C.ar    1  LIG1        0.0915
     34 C          -2.5144   -9.0508    0.9447 C.ar    1  LIG1        0.0401
     35 C          -3.7987   -9.5067    1.0899 C.ar    1  LIG1        0.0167
     36 N          -4.6519   -8.4463    0.9702 N.ar    1  LIG1       -0.3574
     37 H          -5.6631   -8.4800    0.9986 H       1  LIG1        0.1654
     38 H          -4.1578  -10.5069    1.2742 H       1  LIG1        0.0818
     39 N          -0.8031   -5.8621    0.2868 N.1     1  LIG1       -0.1908
     40 C          -1.5633   -6.7135    0.4928 C.1     1  LIG1        0.1024
     41 S          -1.0485  -10.0195    1.1162 S.3     1  LIG1       -0.1399
     42 H          -0.6899  -10.0317   -0.1810 H       1  LIG1        0.1072
@<TRIPOS>BOND
     1     7     1    1
     2     6     5    1
     3     1     5   ar
     4     1     2   ar
     5     5     4   ar
     6     2     9    1
     7     2     3   ar
     8     9     8    3
     9    31    30    1
    10     4     3   ar
    11     4    12    1
    12    17    16    1
    13    28    29    3
    14    16    12   ar
    15    16    15   ar
    16     3    10    1
    17    12    13   ar
    18    29    23    1
    19    42    41    1
    20    23    24   ar
    21    23    22   ar
    22    15    22    1
    23    15    14   ar
    24    30    24    1
    25    39    40    3
    26    24    25   ar
    27    22    26   ar
    28    13    19    1
    29    13    14   ar
    30    40    33    1
    31    25    26   ar
    32    25    32    1
    33    26    27    1
    34    19    18    3
    35    33    32   ar
    36    33    34   ar
    37    14    20    1
    38    32    36   ar
    39    21    20    1
    40    34    35   ar
    41    34    41    1
    42    36    37    1
    43    36    35   ar
    44    35    38    1
    45    11    10    1
