@<TRIPOS>MOLECULE
mol_data/opt/cam/geoms/mol2/13dg13dg13dg-13dg.out
 42 45 0 0 0
SMALL
GASTEIGER

@<TRIPOS>ATOM
      1 C           0.4266    0.3848    2.2033 C.ar    1  LIG1        0.0208
      2 C           0.7786    0.9774    1.0112 C.ar    1  LIG1        0.0828
      3 C          -0.2318    0.6565    0.0502 C.ar    1  LIG1        0.0489
      4 C          -1.1605   -0.1301    0.6997 C.ar    1  LIG1        0.0788
      5 N          -0.7377   -0.2852    2.0042 N.ar    1  LIG1       -0.3574
      6 H          -1.2917   -0.7002    2.7373 H       1  LIG1        0.1654
      7 H           0.9202    0.4071    3.1621 H       1  LIG1        0.0820
      8 N           2.9120    2.3791    0.6413 N.1     1  LIG1       -0.1908
      9 C           1.9514    1.7541    0.7969 C.1     1  LIG1        0.1018
     10 S          -0.1915    1.0791   -1.6650 S.3     1  LIG1       -0.1393
     11 H          -1.1908    1.9811   -1.6450 H       1  LIG1        0.1072
     12 C          -2.3801   -0.7596    0.2212 C.ar    1  LIG1        0.0831
     13 C          -3.4855   -0.2252   -0.4197 C.ar    1  LIG1        0.0922
     14 C          -4.4219   -1.2783   -0.6484 C.ar    1  LIG1        0.0496
     15 C          -3.8557   -2.4295   -0.1403 C.ar    1  LIG1        0.0793
     16 N          -2.6276   -2.0925    0.3868 N.ar    1  LIG1       -0.3499
     17 H          -1.9988   -2.7362    0.8425 H       1  LIG1        0.1661
     18 N          -3.6961    2.2706   -1.0275 N.1     1  LIG1       -0.1908
     19 C          -3.6293    1.1470   -0.7583 C.1     1  LIG1        0.1025
     20 S          -5.9465   -1.1237   -1.5273 S.3     1  LIG1       -0.1393
     21 H          -6.7684   -1.3034   -0.4760 H       1  LIG1        0.1072
     22 C          -4.3390   -3.8004   -0.1137 C.ar    1  LIG1        0.0831
     23 C          -5.5114   -4.3352    0.3924 C.ar    1  LIG1        0.0922
     24 C          -5.4817   -5.7483    0.1914 C.ar    1  LIG1        0.0496
     25 C          -4.2859   -6.0340   -0.4367 C.ar    1  LIG1        0.0793
     26 N          -3.6081   -4.8459   -0.6020 N.ar    1  LIG1       -0.3499
     27 H          -2.7030   -4.7578   -1.0388 H       1  LIG1        0.1661
     28 N          -7.3396   -2.8941    1.4981 N.1     1  LIG1       -0.1908
     29 C          -6.5331   -3.5677    1.0132 C.1     1  LIG1        0.1025
     30 S          -6.7985   -6.8627    0.5712 S.3     1  LIG1       -0.1393
     31 H          -6.1933   -7.5033    1.5892 H       1  LIG1        0.1072
     32 C          -3.7224   -7.2918   -0.8987 C.ar    1  LIG1        0.0827
     33 C          -3.5117   -8.4837   -0.2277 C.ar    1  LIG1        0.0915
     34 C          -2.9215   -9.4065   -1.1484 C.ar    1  LIG1        0.0401
     35 C          -2.7821   -8.7403   -2.3369 C.ar    1  LIG1        0.0167
     36 N          -3.2511   -7.4645   -2.1726 N.ar    1  LIG1       -0.3574
     37 H          -3.3799   -6.7990   -2.9191 H       1  LIG1        0.1654
     38 H          -2.3860   -9.0850   -3.2791 H       1  LIG1        0.0818
     39 N          -4.0875   -8.8447    2.2578 N.1     1  LIG1       -0.1908
     40 C          -3.8142   -8.7001    1.1420 C.1     1  LIG1        0.1024
     41 S          -2.3479  -11.0439   -0.8222 S.3     1  LIG1       -0.1399
     42 H          -3.5483  -11.6042   -0.5883 H       1  LIG1        0.1072
@<TRIPOS>BOND
     1    38    35    1
     2    37    36    1
     3    35    36   ar
     4    35    34   ar
     5    36    32   ar
     6    10    11    1
     7    10     3    1
     8    20    14    1
     9    20    21    1
    10    34    41    1
    11    34    33   ar
    12    27    26    1
    13    18    19    3
    14    32    25    1
    15    32    33   ar
    16    41    42    1
    17    19    13    1
    18    14    13   ar
    19    14    15   ar
    20    26    25   ar
    21    26    22   ar
    22    25    24   ar
    23    13    12   ar
    24    33    40    1
    25    15    22    1
    26    15    16   ar
    27    22    23   ar
    28     3     4   ar
    29     3     2   ar
    30    24    23   ar
    31    24    30    1
    32    12    16   ar
    33    12     4    1
    34    16    17    1
    35    23    29    1
    36    30    31    1
    37     8     9    3
    38     4     5   ar
    39     9     2    1
    40     2     1   ar
    41    29    28    3
    42    40    39    3
    43     5     1   ar
    44     5     6    1
    45     1     7    1
