@<TRIPOS>MOLECULE
mol_data/opt/cam/geoms/mol2/13dg13dg-13dg13dg.out
 42 45 0 0 0
SMALL
GASTEIGER

@<TRIPOS>ATOM
      1 C           1.2083    0.1178    0.2129 C.ar    1  LIG1        0.0208
      2 C           0.7058    1.2513   -0.3853 C.ar    1  LIG1        0.0828
      3 C          -0.7172    1.1158   -0.4542 C.ar    1  LIG1        0.0489
      4 C          -1.0249   -0.1085    0.1049 C.ar    1  LIG1        0.0788
      5 N           0.1606   -0.6983    0.4964 N.ar    1  LIG1       -0.3574
      6 H           0.2202   -1.5336    1.0568 H       1  LIG1        0.1654
      7 H           2.2256   -0.1457    0.4561 H       1  LIG1        0.0820
      8 N           2.1465    3.2168   -1.2307 N.1     1  LIG1       -0.1908
      9 C           1.4892    2.3428   -0.8544 C.1     1  LIG1        0.1018
     10 S          -1.8117    2.2481   -1.2546 S.3     1  LIG1       -0.1393
     11 H          -2.4364    2.6971   -0.1498 H       1  LIG1        0.1072
     12 C          -2.2944   -0.7895    0.2871 C.ar    1  LIG1        0.0831
     13 C          -3.4867   -0.3580    0.8388 C.ar    1  LIG1        0.0922
     14 C          -4.4334   -1.4268    0.7577 C.ar    1  LIG1        0.0496
     15 C          -3.7813   -2.4867    0.1609 C.ar    1  LIG1        0.0793
     16 N          -2.4826   -2.0902   -0.0984 N.ar    1  LIG1       -0.3499
     17 H          -1.8719   -2.5647   -0.7466 H       1  LIG1        0.1661
     18 N          -3.7946    1.9755    1.8887 N.1     1  LIG1       -0.1908
     19 C          -3.6819    0.9201    1.4273 C.1     1  LIG1        0.1025
     20 S          -6.0454   -1.3988    1.4788 S.3     1  LIG1       -0.1393
     21 H          -6.7516   -1.4229    0.3328 H       1  LIG1        0.1072
     22 C          -4.2280   -3.8254   -0.1755 C.ar    1  LIG1        0.0831
     23 C          -5.3777   -4.2715   -0.8031 C.ar    1  LIG1        0.0922
     24 C          -5.3219   -5.6986   -0.8798 C.ar    1  LIG1        0.0496
     25 C          -4.1278   -6.0796   -0.3056 C.ar    1  LIG1        0.0793
     26 N          -3.4699   -4.9337    0.0981 N.ar    1  LIG1       -0.3499
     27 H          -2.7085   -4.9337    0.7603 H       1  LIG1        0.1661
     28 N          -7.1883   -2.7001   -1.7482 N.1     1  LIG1       -0.1908
     29 C          -6.3881   -3.4264   -1.3340 C.1     1  LIG1        0.1025
     30 S          -6.4984   -6.7164   -1.7164 S.3     1  LIG1       -0.1393
     31 H          -7.0230   -7.3063   -0.6255 H       1  LIG1        0.1072
     32 C          -3.5349   -7.3894   -0.1010 C.ar    1  LIG1        0.0827
     33 C          -4.0598   -8.5456    0.4502 C.ar    1  LIG1        0.0915
     34 C          -3.0405   -9.5499    0.4147 C.ar    1  LIG1        0.0401
     35 C          -1.9327   -8.9671   -0.1398 C.ar    1  LIG1        0.0167
     36 N          -2.2333   -7.6626   -0.4294 N.ar    1  LIG1       -0.3574
     37 H          -1.6437   -7.0410   -0.9598 H       1  LIG1        0.1654
     38 H          -0.9614   -9.3882   -0.3462 H       1  LIG1        0.0818
     39 N          -6.4500   -8.7477    1.3912 N.1     1  LIG1       -0.1908
     40 C          -5.3702   -8.6705    0.9806 C.1     1  LIG1        0.1024
     41 S          -3.1111  -11.1875    1.0700 S.3     1  LIG1       -0.1399
     42 H          -4.0390  -11.6712    0.2247 H       1  LIG1        0.1072
@<TRIPOS>BOND
     1    28    29    3
     2    30    24    1
     3    30    31    1
     4    29    23    1
     5    10     3    1
     6    10    11    1
     7     8     9    3
     8    37    36    1
     9    24    23   ar
    10    24    25   ar
    11     9     2    1
    12    23    22   ar
    13    17    16    1
    14     3     2   ar
    15     3     4   ar
    16    36    35   ar
    17    36    32   ar
    18     2     1   ar
    19    38    35    1
    20    25    32    1
    21    25    26   ar
    22    22    26   ar
    23    22    15    1
    24    35    34   ar
    25    32    33   ar
    26    16    15   ar
    27    16    12   ar
    28    26    27    1
    29     4    12    1
    30     4     5   ar
    31    15    14   ar
    32     1     7    1
    33     1     5   ar
    34    42    41    1
    35    12    13   ar
    36    21    20    1
    37    34    33   ar
    38    34    41    1
    39    33    40    1
    40     5     6    1
    41    14    13   ar
    42    14    20    1
    43    13    19    1
    44    40    39    3
    45    19    18    3
