@<TRIPOS>MOLECULE
mol_data/opt/cam/geoms/mol2/13dg13dg13dg.out
 32 34 0 0 0
SMALL
GASTEIGER

@<TRIPOS>ATOM
      1 C           1.2030   -0.0629    0.3132 C.ar    1  LIG1        0.0208
      2 C           0.7676    0.9971   -0.4498 C.ar    1  LIG1        0.0828
      3 C          -0.6516    0.8799   -0.5930 C.ar    1  LIG1        0.0489
      4 C          -1.0249   -0.2596    0.0918 C.ar    1  LIG1        0.0788
      5 N           0.1187   -0.8172    0.6279 N.ar    1  LIG1       -0.3574
      6 H           0.1235   -1.5830    1.2826 H       1  LIG1        0.1654
      7 H           2.1964   -0.3141    0.6500 H       1  LIG1        0.0820
      8 N           2.3076    2.8184   -1.4321 N.1     1  LIG1       -0.1908
      9 C           1.6062    2.0084   -0.9967 C.1     1  LIG1        0.1018
     10 S          -1.6619    1.9223   -1.5993 S.3     1  LIG1       -0.1393
     11 H          -2.3482    2.5155   -0.6046 H       1  LIG1        0.1072
     12 C          -2.3191   -0.8914    0.2753 C.ar    1  LIG1        0.0831
     13 C          -3.5373   -0.3730    0.6753 C.ar    1  LIG1        0.0922
     14 C          -4.4975   -1.4332    0.6771 C.ar    1  LIG1        0.0496
     15 C          -3.8283   -2.5737    0.2859 C.ar    1  LIG1        0.0793
     16 N          -2.5082   -2.2318    0.0641 N.ar    1  LIG1       -0.3499
     17 H          -1.8643   -2.8036   -0.4626 H       1  LIG1        0.1661
     18 N          -3.8729    2.0841    1.3771 N.1     1  LIG1       -0.1908
     19 C          -3.7472    0.9755    1.0693 C.1     1  LIG1        0.1025
     20 S          -6.1619   -1.2922    1.2518 S.3     1  LIG1       -0.1393
     21 H          -6.7717   -1.4393    0.0604 H       1  LIG1        0.1072
     22 C          -4.2812   -3.9416    0.1073 C.ar    1  LIG1        0.0827
     23 C          -5.3714   -4.4564   -0.5736 C.ar    1  LIG1        0.0915
     24 C          -5.3421   -5.8809   -0.4340 C.ar    1  LIG1        0.0401
     25 C          -4.2319   -6.1815    0.3082 C.ar    1  LIG1        0.0167
     26 N          -3.5908   -5.0105    0.6140 N.ar    1  LIG1       -0.3574
     27 H          -2.8129   -4.9293    1.2493 H       1  LIG1        0.1654
     28 H          -3.8588   -7.1388    0.6362 H       1  LIG1        0.0818
     29 N          -7.0753   -3.0344   -1.8823 N.1     1  LIG1       -0.1908
     30 C          -6.3128   -3.6867   -1.3049 C.1     1  LIG1        0.1024
     31 S          -6.4254   -7.0630   -1.1723 S.3     1  LIG1       -0.1399
     32 H          -7.5407   -6.7154   -0.5053 H       1  LIG1        0.1072
@<TRIPOS>BOND
     1    29    30    3
     2    10    11    1
     3    10     3    1
     4     8     9    3
     5    30    23    1
     6    31    32    1
     7    31    24    1
     8     9     2    1
     9     3     2   ar
    10     3     4   ar
    11    23    24   ar
    12    23    22   ar
    13    17    16    1
    14     2     1   ar
    15    24    25   ar
    16    21    20    1
    17    16    12   ar
    18    16    15   ar
    19     4    12    1
    20     4     5   ar
    21    22    15    1
    22    22    26   ar
    23    12    13   ar
    24    15    14   ar
    25    25    26   ar
    26    25    28    1
    27     1     5   ar
    28     1     7    1
    29    26    27    1
    30     5     6    1
    31    13    14   ar
    32    13    19    1
    33    14    20    1
    34    19    18    3
