@<TRIPOS>MOLECULE
mol_data/opt/cam/geoms/mol2/13dg13dg.out
 22 23 0 0 0
SMALL
GASTEIGER

@<TRIPOS>ATOM
      1 C           1.1277   -0.2068    0.5656 C.ar    1  LIG1        0.0208
      2 C           0.7621    0.9499   -0.0851 C.ar    1  LIG1        0.0828
      3 C          -0.6252    0.8422   -0.4212 C.ar    1  LIG1        0.0489
      4 C          -1.0498   -0.3876    0.0388 C.ar    1  LIG1        0.0788
      5 N           0.0322   -1.0071    0.6298 N.ar    1  LIG1       -0.3574
      6 H          -0.0242   -1.8630    1.1592 H       1  LIG1        0.1654
      7 H           2.0784   -0.4979    0.9836 H       1  LIG1        0.0820
      8 N           2.3595    2.9101   -0.5946 N.1     1  LIG1       -0.1908
      9 C           1.6336    2.0378   -0.3708 C.1     1  LIG1        0.1018
     10 S          -1.5409    2.0124   -1.3767 S.3     1  LIG1       -0.1393
     11 H          -2.3269    2.4741   -0.3859 H       1  LIG1        0.1072
     12 C          -2.3432   -1.0462   -0.0280 C.ar    1  LIG1        0.0827
     13 C          -3.6066   -0.6053    0.3256 C.ar    1  LIG1        0.0915
     14 C          -4.5317   -1.6640    0.0546 C.ar    1  LIG1        0.0401
     15 C          -3.7995   -2.7111   -0.4364 C.ar    1  LIG1        0.0167
     16 N          -2.4828   -2.3358   -0.4671 N.ar    1  LIG1       -0.3574
     17 H          -1.7407   -2.8688   -0.8928 H       1  LIG1        0.1654
     18 H          -4.1225   -3.6870   -0.7629 H       1  LIG1        0.0818
     19 N          -4.1068    1.7144    1.3298 N.1     1  LIG1       -0.1908
     20 C          -3.8957    0.6659    0.8864 C.1     1  LIG1        0.1024
     21 S          -6.2630   -1.7019    0.3976 S.3     1  LIG1       -0.1399
     22 H          -6.6352   -0.7531   -0.4803 H       1  LIG1        0.1072
@<TRIPOS>BOND
     1    10     3    1
     2    10    11    1
     3    17    16    1
     4    18    15    1
     5     8     9    3
     6    22    21    1
     7    16    15   ar
     8    16    12   ar
     9    15    14   ar
    10     3     2   ar
    11     3     4   ar
    12     9     2    1
    13     2     1   ar
    14    12     4    1
    15    12    13   ar
    16     4     5   ar
    17    14    13   ar
    18    14    21    1
    19    13    20    1
    20     1     5   ar
    21     1     7    1
    22     5     6    1
    23    20    19    3
