@<TRIPOS>MOLECULE
mol_data/opt/cam/geoms/mol2/13dg13dg-.out
 22 23 0 0 0
SMALL
GASTEIGER

@<TRIPOS>ATOM
      1 C           1.1241   -0.2038   -0.5809 C.ar    1  LIG1        0.0208
      2 C           0.7661    0.9419    0.0933 C.ar    1  LIG1        0.0828
      3 C          -0.6192    0.8315    0.4370 C.ar    1  LIG1        0.0489
      4 C          -1.0502   -0.3888   -0.0420 C.ar    1  LIG1        0.0788
      5 N           0.0260   -1.0000   -0.6519 N.ar    1  LIG1       -0.3574
      6 H          -0.0365   -1.8454   -1.1972 H       1  LIG1        0.1654
      7 H           2.0710   -0.4894   -1.0110 H       1  LIG1        0.0820
      8 N           2.3725    2.8882    0.6270 N.1     1  LIG1       -0.1908
      9 C           1.6425    2.0221    0.3926 C.1     1  LIG1        0.1018
     10 S          -1.5249    1.9863    1.4204 S.3     1  LIG1       -0.1393
     11 H          -2.3173    2.4676    0.4441 H       1  LIG1        0.1072
     12 C          -2.3446   -1.0456    0.0223 C.ar    1  LIG1        0.0827
     13 C          -3.6094   -0.5951   -0.3140 C.ar    1  LIG1        0.0915
     14 C          -4.5354   -1.6560   -0.0553 C.ar    1  LIG1        0.0401
     15 C          -3.8024   -2.7139    0.4111 C.ar    1  LIG1        0.0167
     16 N          -2.4845   -2.3424    0.4391 N.ar    1  LIG1       -0.3574
     17 H          -1.7406   -2.8850    0.8494 H       1  LIG1        0.1654
     18 H          -4.1257   -3.6947    0.7222 H       1  LIG1        0.0818
     19 N          -4.1111    1.7438   -1.2722 N.1     1  LIG1       -0.1908
     20 C          -3.8992    0.6868   -0.8497 C.1     1  LIG1        0.1024
     21 S          -6.2691   -1.6845   -0.3867 S.3     1  LIG1       -0.1399
     22 H          -6.6336   -0.7518    0.5115 H       1  LIG1        0.1072
@<TRIPOS>BOND
     1    19    20    3
     2     6     5    1
     3     7     1    1
     4    20    13    1
     5     5     1   ar
     6     5     4   ar
     7     1     2   ar
     8    21    14    1
     9    21    22    1
    10    13    14   ar
    11    13    12   ar
    12    14    15   ar
    13     4    12    1
    14     4     3   ar
    15    12    16   ar
    16     2     9    1
    17     2     3   ar
    18     9     8    3
    19    15    16   ar
    20    15    18    1
    21     3    10    1
    22    16    17    1
    23    11    10    1
