@<TRIPOS>MOLECULE
mol_data/opt/cam/geoms/mol2/13dh13dh13dh-13dh-.out
 46 49 0 0 0
SMALL
GASTEIGER

@<TRIPOS>ATOM
      1 C           1.2400   -0.2544   -0.2940 C.ar    1  LIG1        0.0215
      2 C           0.8792    1.0198    0.0968 C.ar    1  LIG1        0.0903
      3 C          -0.5518    1.0850    0.1341 C.ar    1  LIG1        0.0693
      4 C          -1.0118   -0.1702   -0.2445 C.ar    1  LIG1        0.0864
      5 N           0.1121   -0.9633   -0.4876 N.ar    1  LIG1       -0.3568
      6 H           0.0847   -1.8844   -0.8964 H       1  LIG1        0.1655
      7 H           2.2200   -0.6743   -0.4578 H       1  LIG1        0.0820
      8 N           2.4046    3.0105    0.6833 N.1     1  LIG1       -0.1908
      9 C           1.7439    2.0970    0.4170 C.1     1  LIG1        0.1025
     10 N          -1.2644    2.1752    0.5756 N.pl3   1  LIG1       -0.3553
     11 H          -0.7083    3.0081    0.7081 H       1  LIG1        0.1424
     12 H          -2.1506    2.3663    0.1293 H       1  LIG1        0.1424
     13 C          -2.3292   -0.7490   -0.2894 C.ar    1  LIG1        0.0846
     14 C          -3.5892   -0.2074   -0.5429 C.ar    1  LIG1        0.0997
     15 C          -4.5479   -1.2652   -0.4504 C.ar    1  LIG1        0.0699
     16 C          -3.8541   -2.4159   -0.1643 C.ar    1  LIG1        0.0869
     17 N          -2.5181   -2.0830   -0.0722 N.ar    1  LIG1       -0.3493
     18 H          -1.8017   -2.7195    0.2491 H       1  LIG1        0.1661
     19 N          -4.1126    2.2288   -1.1850 N.1     1  LIG1       -0.1907
     20 C          -3.8769    1.1292   -0.9006 C.1     1  LIG1        0.1032
     21 N          -5.9589   -1.2135   -0.6403 N.pl3   1  LIG1       -0.3553
     22 H          -6.3812   -0.5407   -0.0057 H       1  LIG1        0.1424
     23 H          -6.1853   -0.9042   -1.5825 H       1  LIG1        0.1424
     24 C          -4.3413   -3.7609   -0.0002 C.ar    1  LIG1        0.0846
     25 C          -3.6576   -4.9686    0.1509 C.ar    1  LIG1        0.0997
     26 C          -4.6235   -6.0217    0.2110 C.ar    1  LIG1        0.0699
     27 C          -5.8687   -5.4169    0.0910 C.ar    1  LIG1        0.0869
     28 N          -5.6578   -4.0461   -0.0259 N.ar    1  LIG1       -0.3493
     29 H          -6.3323   -3.3260   -0.2690 H       1  LIG1        0.1661
     30 N          -1.0896   -5.0652    0.2435 N.1     1  LIG1       -0.1907
     31 C          -2.2504   -5.0745    0.2098 C.1     1  LIG1        0.1032
     32 N          -4.3263   -7.3461    0.4485 N.pl3   1  LIG1       -0.3553
     33 H          -4.9160   -8.0319   -0.0041 H       1  LIG1        0.1424
     34 H          -3.3468   -7.5758    0.3626 H       1  LIG1        0.1424
     35 C          -7.2103   -5.9433    0.1728 C.ar    1  LIG1        0.0842
     36 C          -7.7573   -7.1562   -0.2441 C.ar    1  LIG1        0.0990
     37 C          -9.1511   -7.1595    0.0942 C.ar    1  LIG1        0.0604
     38 C          -9.4129   -5.9532    0.6865 C.ar    1  LIG1        0.0243
     39 N          -8.2302   -5.2286    0.7158 N.ar    1  LIG1       -0.3568
     40 H          -8.0977   -4.3796    1.2405 H       1  LIG1        0.1655
     41 H         -10.3284   -5.5511    1.0886 H       1  LIG1        0.0826
     42 N          -6.4953   -9.0163   -1.4949 N.1     1  LIG1       -0.1907
     43 C          -7.0736   -8.1777   -0.9382 C.1     1  LIG1        0.1032
     44 N         -10.0136   -8.2276   -0.1171 N.pl3   1  LIG1       -0.3558
     45 H         -10.9872   -7.9738   -0.1980 H       1  LIG1        0.1424
     46 H          -9.7300   -8.8472   -0.8633 H       1  LIG1        0.1424
@<TRIPOS>BOND
     1    23    21    1
     2    42    43    3
     3    19    20    3
     4    43    36    1
     5    20    14    1
     6     6     5    1
     7    46    44    1
     8    21    15    1
     9    21    22    1
    10    14    15   ar
    11    14    13   ar
    12     5     1   ar
    13     5     4   ar
    14     7     1    1
    15    15    16   ar
    16     1     2   ar
    17    13     4    1
    18    13    17   ar
    19    29    28    1
    20     4     3   ar
    21    36    37   ar
    22    36    35   ar
    23    45    44    1
    24    16    17   ar
    25    16    24    1
    26    44    37    1
    27    17    18    1
    28    28    24   ar
    29    28    27   ar
    30    33    32    1
    31    24    25   ar
    32    27    35    1
    33    27    26   ar
    34    37    38   ar
    35     2     3   ar
    36     2     9    1
    37    12    10    1
    38     3    10    1
    39    25    31    1
    40    25    26   ar
    41    35    39   ar
    42    31    30    3
    43    26    32    1
    44    34    32    1
    45     9     8    3
    46    10    11    1
    47    38    39   ar
    48    38    41    1
    49    39    40    1
