@<TRIPOS>MOLECULE
mol_data/opt/cam/geoms/mol2/13dh13dh.out
 24 25 0 0 0
SMALL
GASTEIGER

@<TRIPOS>ATOM
      1 C           1.1736   -0.3611   -0.4321 C.ar    1  LIG1        0.0215
      2 C           0.8380    0.9237   -0.0560 C.ar    1  LIG1        0.0903
      3 C          -0.5830    0.9764    0.1324 C.ar    1  LIG1        0.0693
      4 C          -1.0613   -0.2960   -0.1374 C.ar    1  LIG1        0.0864
      5 N           0.0384   -1.0897   -0.4659 N.ar    1  LIG1       -0.3568
      6 H          -0.0389   -2.0044   -0.8801 H       1  LIG1        0.1655
      7 H           2.1355   -0.7762   -0.6888 H       1  LIG1        0.0820
      8 N           2.4047    2.9402    0.2833 N.1     1  LIG1       -0.1908
      9 C           1.7220    2.0175    0.1271 C.1     1  LIG1        0.1025
     10 N          -1.2706    2.0782    0.5944 N.pl3   1  LIG1       -0.3553
     11 H          -0.7217    2.9265    0.6106 H       1  LIG1        0.1424
     12 H          -2.1923    2.2301    0.2068 H       1  LIG1        0.1424
     13 C          -2.3783   -0.8787   -0.0304 C.ar    1  LIG1        0.0841
     14 C          -3.6411   -0.3584   -0.3026 C.ar    1  LIG1        0.0990
     15 C          -4.6162   -1.3688   -0.0075 C.ar    1  LIG1        0.0604
     16 C          -3.9225   -2.4704    0.4158 C.ar    1  LIG1        0.0243
     17 N          -2.5694   -2.1600    0.3830 N.ar    1  LIG1       -0.3568
     18 H          -1.8536   -2.7094    0.8298 H       1  LIG1        0.1655
     19 H          -4.2689   -3.4401    0.7340 H       1  LIG1        0.0826
     20 N          -4.1216    1.9851   -1.2493 N.1     1  LIG1       -0.1907
     21 C          -3.9104    0.9232   -0.8310 C.1     1  LIG1        0.1032
     22 N          -5.9902   -1.1932   -0.1060 N.pl3   1  LIG1       -0.3558
     23 H          -6.2703   -0.4707   -0.7546 H       1  LIG1        0.1424
     24 H          -6.5162   -2.0428   -0.2481 H       1  LIG1        0.1424
@<TRIPOS>BOND
     1    20    21    3
     2     6     5    1
     3    21    14    1
     4    23    22    1
     5     7     1    1
     6     5     1   ar
     7     5     4   ar
     8     1     2   ar
     9    14    13   ar
    10    14    15   ar
    11    24    22    1
    12     4    13    1
    13     4     3   ar
    14    22    15    1
    15     2     9    1
    16     2     3   ar
    17    13    17   ar
    18    15    16   ar
    19     9     8    3
    20     3    10    1
    21    12    10    1
    22    17    16   ar
    23    17    18    1
    24    16    19    1
    25    10    11    1
