@<TRIPOS>MOLECULE
mol_data/opt/cam/geoms/mol2/13dh13dh13dh13dh.out
 46 49 0 0 0
SMALL
GASTEIGER

@<TRIPOS>ATOM
      1 C           0.8077   -0.0083   -1.7443 C.ar    1  LIG1        0.0215
      2 C           0.8648    0.8897   -0.6992 C.ar    1  LIG1        0.0903
      3 C          -0.3770    0.8215    0.0158 C.ar    1  LIG1        0.0693
      4 C          -1.1473   -0.1344   -0.6284 C.ar    1  LIG1        0.0864
      5 N          -0.3872   -0.6346   -1.6888 N.ar    1  LIG1       -0.3568
      6 H          -0.7757   -1.1670   -2.4510 H       1  LIG1        0.1655
      7 H           1.5307   -0.2120   -2.5185 H       1  LIG1        0.0820
      8 N           2.8060    2.4514   -0.0444 N.1     1  LIG1       -0.1908
      9 C           1.9495    1.7383   -0.3592 C.1     1  LIG1        0.1025
     10 N          -0.6499    1.5139    1.1742 N.pl3   1  LIG1       -0.3553
     11 H           0.0235    2.2358    1.3901 H       1  LIG1        0.1424
     12 H          -1.6018    1.8320    1.2983 H       1  LIG1        0.1424
     13 C          -2.4303   -0.7107   -0.3066 C.ar    1  LIG1        0.0846
     14 C          -3.6002   -0.1334    0.1832 C.ar    1  LIG1        0.0997
     15 C          -4.6034   -1.1491    0.2930 C.ar    1  LIG1        0.0699
     16 C          -4.0192   -2.3284   -0.1392 C.ar    1  LIG1        0.0869
     17 N          -2.7003   -2.0271   -0.4913 N.ar    1  LIG1       -0.3493
     18 H          -2.0444   -2.6919   -0.8673 H       1  LIG1        0.1661
     19 N          -3.9070    2.3558    0.7564 N.1     1  LIG1       -0.1907
     20 C          -3.7787    1.2345    0.4874 C.1     1  LIG1        0.1032
     21 N          -5.8622   -0.9527    0.8146 N.pl3   1  LIG1       -0.3553
     22 H          -6.1135    0.0178    0.9399 H       1  LIG1        0.1424
     23 H          -6.6127   -1.4887    0.3997 H       1  LIG1        0.1424
     24 C          -4.4984   -3.6887   -0.1590 C.ar    1  LIG1        0.0846
     25 C          -5.7424   -4.2178   -0.4981 C.ar    1  LIG1        0.0997
     26 C          -5.6862   -5.6432   -0.3736 C.ar    1  LIG1        0.0699
     27 C          -4.3993   -5.9526    0.0332 C.ar    1  LIG1        0.0869
     28 N          -3.7054   -4.7455    0.1512 N.ar    1  LIG1       -0.3493
     29 H          -2.7514   -4.6730    0.4642 H       1  LIG1        0.1661
     30 N          -7.7808   -2.8431   -1.2558 N.1     1  LIG1       -0.1907
     31 C          -6.8616   -3.4710   -0.9281 C.1     1  LIG1        0.1032
     32 N          -6.7573   -6.4892   -0.5592 N.pl3   1  LIG1       -0.3553
     33 H          -7.5616   -6.0532   -0.9874 H       1  LIG1        0.1424
     34 H          -6.5542   -7.3924   -0.9659 H       1  LIG1        0.1424
     35 C          -3.7765   -7.2008    0.4048 C.ar    1  LIG1        0.0842
     36 C          -3.8928   -8.4794   -0.1342 C.ar    1  LIG1        0.0990
     37 C          -3.0623   -9.3666    0.6285 C.ar    1  LIG1        0.0604
     38 C          -2.4560   -8.6037    1.5901 C.ar    1  LIG1        0.0243
     39 N          -2.8882   -7.2933    1.4318 N.ar    1  LIG1       -0.3568
     40 H          -2.7772   -6.5802    2.1343 H       1  LIG1        0.1655
     41 H          -1.7603   -8.8750    2.3673 H       1  LIG1        0.0826
     42 N          -5.3053   -9.1001   -2.1930 N.1     1  LIG1       -0.1907
     43 C          -4.6569   -8.8264   -1.2702 C.1     1  LIG1        0.1032
     44 N          -2.9658  -10.7348    0.4174 N.pl3   1  LIG1       -0.3558
     45 H          -3.1877  -11.0287   -0.5235 H       1  LIG1        0.1424
     46 H          -2.1109  -11.1569    0.7479 H       1  LIG1        0.1424
@<TRIPOS>BOND
     1     7     1    1
     2     6     5    1
     3    42    43    3
     4     1     5   ar
     5     1     2   ar
     6     5     4   ar
     7    43    36    1
     8    30    31    3
     9    33    32    1
    10    34    32    1
    11    31    25    1
    12    18    17    1
    13     2     9    1
    14     2     3   ar
    15     4    13    1
    16     4     3   ar
    17    32    26    1
    18    45    44    1
    19    25    26   ar
    20    25    24   ar
    21    17    13   ar
    22    17    16   ar
    23    26    27   ar
    24     9     8    3
    25    13    14   ar
    26    24    16    1
    27    24    28   ar
    28    16    15   ar
    29    36    35   ar
    30    36    37   ar
    31     3    10    1
    32    27    28   ar
    33    27    35    1
    34    28    29    1
    35    14    15   ar
    36    14    20    1
    37    15    21    1
    38    23    21    1
    39    35    39   ar
    40    44    37    1
    41    44    46    1
    42    20    19    3
    43    37    38   ar
    44    21    22    1
    45    10    12    1
    46    10    11    1
    47    39    38   ar
    48    39    40    1
    49    38    41    1
