@<TRIPOS>MOLECULE
mol_data/opt/cam/geoms/mol2/13dh13dh-13dh.out
 35 37 0 0 0
SMALL
GASTEIGER

@<TRIPOS>ATOM
      1 C           1.2491   -0.3368   -0.0835 C.ar    1  LIG1        0.0215
      2 C           0.8107    0.9726   -0.0799 C.ar    1  LIG1        0.0903
      3 C          -0.6180    0.9421   -0.0709 C.ar    1  LIG1        0.0693
      4 C          -0.9900   -0.3859   -0.0698 C.ar    1  LIG1        0.0864
      5 N           0.1592   -1.1428   -0.0772 N.ar    1  LIG1       -0.3568
      6 H           0.1815   -2.1533   -0.0775 H       1  LIG1        0.1655
      7 H           2.2521   -0.7330   -0.0899 H       1  LIG1        0.0820
      8 N           2.2496    3.1112   -0.0887 N.1     1  LIG1       -0.1908
      9 C           1.6189    2.1405   -0.0847 C.1     1  LIG1        0.1025
     10 N          -1.5532    2.0103   -0.0638 N.pl3   1  LIG1       -0.3553
     11 H          -1.4602    2.6001    0.7576 H       1  LIG1        0.1424
     12 H          -1.4624    2.6097   -0.8784 H       1  LIG1        0.1424
     13 C          -2.3226   -0.9412   -0.0634 C.ar    1  LIG1        0.0846
     14 C          -2.7806   -2.2562   -0.0608 C.ar    1  LIG1        0.0997
     15 C          -4.2082   -2.2089   -0.0554 C.ar    1  LIG1        0.0699
     16 C          -4.5662   -0.8759   -0.0551 C.ar    1  LIG1        0.0869
     17 N          -3.4120   -0.1325   -0.0593 N.ar    1  LIG1       -0.3493
     18 H          -3.2992    0.8839   -0.0605 H       1  LIG1        0.1661
     19 N          -1.2229   -4.3051   -0.0675 N.1     1  LIG1       -0.1907
     20 C          -1.9513   -3.4018   -0.0641 C.1     1  LIG1        0.1032
     21 N          -5.1378   -3.2884   -0.0497 N.pl3   1  LIG1       -0.3553
     22 H          -5.0028   -3.8908   -0.8572 H       1  LIG1        0.1424
     23 H          -5.0178   -3.8690    0.7760 H       1  LIG1        0.1424
     24 C          -5.8877   -0.2939   -0.0509 C.ar    1  LIG1        0.0842
     25 C          -6.3189    1.0350   -0.0552 C.ar    1  LIG1        0.0990
     26 C          -7.7494    1.0243   -0.0541 C.ar    1  LIG1        0.0604
     27 C          -8.1319   -0.2958   -0.0526 C.ar    1  LIG1        0.0243
     28 N          -6.9924   -1.0704   -0.0492 N.ar    1  LIG1       -0.3568
     29 H          -6.9114   -2.0825   -0.0510 H       1  LIG1        0.1655
     30 H          -9.1150   -0.7377   -0.0405 H       1  LIG1        0.0826
     31 N          -4.8003    3.1130   -0.0959 N.1     1  LIG1       -0.1907
     32 C          -5.4915    2.1809   -0.0724 C.1     1  LIG1        0.1032
     33 N          -8.5553    2.1566    0.0060 N.pl3   1  LIG1       -0.3558
     34 H          -8.1106    2.9939   -0.3442 H       1  LIG1        0.1424
     35 H          -9.4736    2.0364   -0.3962 H       1  LIG1        0.1424
@<TRIPOS>BOND
     1    12    10    1
     2    22    21    1
     3    35    33    1
     4    34    33    1
     5    31    32    3
     6     7     1    1
     7     8     9    3
     8     9     2    1
     9     1     2   ar
    10     1     5   ar
    11     2     3   ar
    12     6     5    1
    13     5     4   ar
    14    32    25    1
    15     3     4   ar
    16     3    10    1
    17     4    13    1
    18    19    20    3
    19    20    14    1
    20    10    11    1
    21    13    14   ar
    22    13    17   ar
    23    14    15   ar
    24    18    17    1
    25    17    16   ar
    26    15    16   ar
    27    15    21    1
    28    25    26   ar
    29    25    24   ar
    30    16    24    1
    31    26    27   ar
    32    26    33    1
    33    27    28   ar
    34    27    30    1
    35    29    28    1
    36    24    28   ar
    37    21    23    1
