@<TRIPOS>MOLECULE
mol_data/opt/cam/geoms/mol2/13dh13dh-13dh13dh-.out
 46 49 0 0 0
SMALL
GASTEIGER

@<TRIPOS>ATOM
      1 C           1.3161   -0.3320   -0.0800 C.ar    1  LIG1        0.0215
      2 C           0.8874    0.9805   -0.1043 C.ar    1  LIG1        0.0903
      3 C          -0.5412    0.9602   -0.1003 C.ar    1  LIG1        0.0693
      4 C          -0.9230   -0.3647   -0.0738 C.ar    1  LIG1        0.0864
      5 N           0.2206   -1.1297   -0.0616 N.ar    1  LIG1       -0.3568
      6 H           0.2350   -2.1404   -0.0419 H       1  LIG1        0.1655
      7 H           2.3162   -0.7356   -0.0747 H       1  LIG1        0.0820
      8 N           2.3361    3.1118   -0.1500 N.1     1  LIG1       -0.1908
      9 C           1.7022    2.1435   -0.1292 C.1     1  LIG1        0.1025
     10 N          -1.4672    2.0376   -0.1189 N.pl3   1  LIG1       -0.3553
     11 H          -1.3673    2.6425    0.6909 H       1  LIG1        0.1424
     12 H          -1.3602    2.6202   -0.9439 H       1  LIG1        0.1424
     13 C          -2.2597   -0.9100   -0.0608 C.ar    1  LIG1        0.0846
     14 C          -2.7275   -2.2224   -0.0350 C.ar    1  LIG1        0.0997
     15 C          -4.1537   -2.1653   -0.0339 C.ar    1  LIG1        0.0699
     16 C          -4.4993   -0.8282   -0.0588 C.ar    1  LIG1        0.0869
     17 N          -3.3411   -0.0912   -0.0748 N.ar    1  LIG1       -0.3493
     18 H          -3.2167    0.9235   -0.0957 H       1  LIG1        0.1661
     19 N          -1.1612   -4.2644    0.0009 N.1     1  LIG1       -0.1907
     20 C          -1.8987   -3.3691   -0.0146 C.1     1  LIG1        0.1032
     21 N          -5.1069   -3.2165   -0.0111 N.pl3   1  LIG1       -0.3553
     22 H          -5.0422   -3.8240   -0.8218 H       1  LIG1        0.1424
     23 H          -5.0304   -3.7981    0.8174 H       1  LIG1        0.1424
     24 C          -5.8217   -0.2506   -0.0665 C.ar    1  LIG1        0.0846
     25 C          -6.2648    1.0700   -0.0856 C.ar    1  LIG1        0.0997
     26 C          -7.6926    1.0373   -0.0833 C.ar    1  LIG1        0.0699
     27 C          -8.0670   -0.2910   -0.0636 C.ar    1  LIG1        0.0869
     28 N          -6.9221   -1.0465   -0.0534 N.ar    1  LIG1       -0.3493
     29 H          -6.8221   -2.0637   -0.0350 H       1  LIG1        0.1661
     30 N          -4.7684    3.1656   -0.1189 N.1     1  LIG1       -0.1907
     31 C          -5.4486    2.2263   -0.1037 C.1     1  LIG1        0.1032
     32 N          -8.6095    2.1279   -0.0967 N.pl3   1  LIG1       -0.3553
     33 H          -8.4778    2.7233    0.7167 H       1  LIG1        0.1424
     34 H          -8.4664    2.7133   -0.9153 H       1  LIG1        0.1424
     35 C          -9.3949   -0.8576   -0.0544 C.ar    1  LIG1        0.0842
     36 C          -9.8415   -2.1816   -0.0443 C.ar    1  LIG1        0.0990
     37 C         -11.2719   -2.1542   -0.0450 C.ar    1  LIG1        0.0604
     38 C         -11.6390   -0.8299   -0.0585 C.ar    1  LIG1        0.0243
     39 N         -10.4904   -0.0685   -0.0624 N.ar    1  LIG1       -0.3568
     40 H         -10.3970    0.9425   -0.0762 H       1  LIG1        0.1655
     41 H         -12.6169   -0.3765   -0.0529 H       1  LIG1        0.0826
     42 N          -8.3445   -4.2756   -0.0617 N.1     1  LIG1       -0.1907
     43 C          -9.0267   -3.3365   -0.0487 C.1     1  LIG1        0.1032
     44 N         -12.0910   -3.2764    0.0265 N.pl3   1  LIG1       -0.3558
     45 H         -13.0091   -3.1480   -0.3737 H       1  LIG1        0.1424
     46 H         -11.6576   -4.1213   -0.3199 H       1  LIG1        0.1424
@<TRIPOS>BOND
     1    12    10    1
     2    34    32    1
     3    22    21    1
     4    45    44    1
     5    46    44    1
     6     8     9    3
     7     9     2    1
     8    30    31    3
     9    10     3    1
    10    10    11    1
    11     2     3   ar
    12     2     1   ar
    13    31    25    1
    14     3     4   ar
    15    32    26    1
    16    32    33    1
    17    18    17    1
    18    25    26   ar
    19    25    24   ar
    20    26    27   ar
    21     1     7    1
    22     1     5   ar
    23    40    39    1
    24    17    13   ar
    25    17    16   ar
    26     4     5   ar
    27     4    13    1
    28    24    16    1
    29    24    28   ar
    30    27    35    1
    31    27    28   ar
    32    39    38   ar
    33    39    35   ar
    34    42    43    3
    35     5     6    1
    36    13    14   ar
    37    16    15   ar
    38    38    41    1
    39    38    37   ar
    40    35    36   ar
    41    28    29    1
    42    43    36    1
    43    37    36   ar
    44    37    44    1
    45    14    15   ar
    46    14    20    1
    47    15    21    1
    48    20    19    3
    49    21    23    1
