@<TRIPOS>MOLECULE
mol_data/opt/cam/geoms/mol2/13dh13dh13dh13dh-.out
 46 49 0 0 0
SMALL
GASTEIGER

@<TRIPOS>ATOM
      1 C           1.1099   -0.8125   -0.0534 C.ar    1  LIG1        0.0215
      2 C           0.9225    0.5312   -0.3165 C.ar    1  LIG1        0.0903
      3 C          -0.4860    0.7938   -0.3018 C.ar    1  LIG1        0.0693
      4 C          -1.1076   -0.4189   -0.0243 C.ar    1  LIG1        0.0864
      5 N          -0.0984   -1.3788    0.1101 N.ar    1  LIG1       -0.3568
      6 H          -0.2440   -2.3266    0.4293 H       1  LIG1        0.1655
      7 H           2.0259   -1.3740    0.0431 H       1  LIG1        0.0820
      8 N           2.7020    2.3367   -0.7707 N.1     1  LIG1       -0.1908
      9 C           1.9230    1.5041   -0.5659 C.1     1  LIG1        0.1025
     10 N          -1.0473    2.0056   -0.6164 N.pl3   1  LIG1       -0.3553
     11 H          -0.3941    2.7743   -0.6630 H       1  LIG1        0.1424
     12 H          -1.9215    2.2532   -0.1743 H       1  LIG1        0.1424
     13 C          -2.4834   -0.8283    0.0283 C.ar    1  LIG1        0.0846
     14 C          -3.6708   -0.1633    0.3288 C.ar    1  LIG1        0.0997
     15 C          -4.7613   -1.0946    0.2082 C.ar    1  LIG1        0.0699
     16 C          -4.2054   -2.3082   -0.1544 C.ar    1  LIG1        0.0869
     17 N          -2.8147   -2.1202   -0.2377 N.ar    1  LIG1       -0.3493
     18 H          -2.2313   -2.6970   -0.8269 H       1  LIG1        0.1661
     19 N          -3.8996    2.2731    1.1211 N.1     1  LIG1       -0.1907
     20 C          -3.7971    1.1707    0.7728 C.1     1  LIG1        0.1032
     21 N          -6.0583   -0.8054    0.5365 N.pl3   1  LIG1       -0.3553
     22 H          -6.2793    0.1739    0.6363 H       1  LIG1        0.1424
     23 H          -6.7930   -1.3501    0.1074 H       1  LIG1        0.1424
     24 C          -4.6875   -3.6581   -0.2244 C.ar    1  LIG1        0.0846
     25 C          -5.9166   -4.2682   -0.4815 C.ar    1  LIG1        0.0997
     26 C          -5.7174   -5.6896   -0.4210 C.ar    1  LIG1        0.0699
     27 C          -4.3881   -5.8986   -0.1462 C.ar    1  LIG1        0.0869
     28 N          -3.7911   -4.6645   -0.0311 N.ar    1  LIG1       -0.3493
     29 H          -2.8539   -4.5186    0.3135 H       1  LIG1        0.1661
     30 N          -8.1020   -3.0302   -1.0403 N.1     1  LIG1       -0.1907
     31 C          -7.1218   -3.6003   -0.7933 C.1     1  LIG1        0.1032
     32 N          -6.6549   -6.7426   -0.6165 N.pl3   1  LIG1       -0.3553
     33 H          -7.4060   -6.6881    0.0666 H       1  LIG1        0.1424
     34 H          -7.0897   -6.6782   -1.5334 H       1  LIG1        0.1424
     35 C          -3.6253   -7.1119   -0.0111 C.ar    1  LIG1        0.0842
     36 C          -2.2497   -7.2942    0.1848 C.ar    1  LIG1        0.0990
     37 C          -2.0055   -8.7049    0.2304 C.ar    1  LIG1        0.0604
     38 C          -3.2231   -9.3170    0.0585 C.ar    1  LIG1        0.0243
     39 N          -4.1849   -8.3342   -0.0785 N.ar    1  LIG1       -0.3568
     40 H          -5.1783   -8.4420   -0.2509 H       1  LIG1        0.1655
     41 H          -3.4799  -10.3636    0.0381 H       1  LIG1        0.0826
     42 N          -0.6572   -5.2817    0.3572 N.1     1  LIG1       -0.1907
     43 C          -1.3255   -6.2312    0.2907 C.1     1  LIG1        0.1032
     44 N          -0.7711   -9.2948    0.4783 N.pl3   1  LIG1       -0.3558
     45 H          -0.7056  -10.2590    0.1853 H       1  LIG1        0.1424
     46 H           0.0188   -8.7603    0.1442 H       1  LIG1        0.1424
@<TRIPOS>BOND
     1    34    32    1
     2    30    31    3
     3    18    17    1
     4    31    25    1
     5     8     9    3
     6    11    10    1
     7    32    26    1
     8    32    33    1
     9    10     3    1
    10    10    12    1
    11     9     2    1
    12    25    26   ar
    13    25    24   ar
    14    26    27   ar
    15     2     3   ar
    16     2     1   ar
    17     3     4   ar
    18    40    39    1
    19    17    16   ar
    20    17    13   ar
    21    24    16    1
    22    24    28   ar
    23    16    15   ar
    24    27    28   ar
    25    27    35    1
    26    39    35   ar
    27    39    38   ar
    28     1     7    1
    29     1     5   ar
    30    28    29    1
    31     4    13    1
    32     4     5   ar
    33    35    36   ar
    34    13    14   ar
    35    41    38    1
    36    38    37   ar
    37    23    21    1
    38     5     6    1
    39    46    44    1
    40    36    37   ar
    41    36    43    1
    42    45    44    1
    43    15    14   ar
    44    15    21    1
    45    37    44    1
    46    43    42    3
    47    14    20    1
    48    21    22    1
    49    20    19    3
