@<TRIPOS>MOLECULE
mol_data/opt/cam/geoms/mol2/13dh12ha6hi6ei.out
 50 53 0 0 0
SMALL
GASTEIGER

@<TRIPOS>ATOM
      1 C           1.2367    0.1019   -0.2219 C.ar    1  LIG1        0.0216
      2 C           0.7413    1.3548   -0.5124 C.ar    1  LIG1        0.0903
      3 C          -0.6890    1.2675   -0.5182 C.ar    1  LIG1        0.0709
      4 C          -1.0129   -0.0389   -0.2176 C.ar    1  LIG1        0.1061
      5 N           0.1729   -0.7253   -0.0581 N.ar    1  LIG1       -0.3555
      6 H           0.2136   -1.7003    0.1945 H       1  LIG1        0.1655
      7 H           2.2545   -0.2413   -0.1271 H       1  LIG1        0.0820
      8 N           2.0495    3.5212   -0.9974 N.1     1  LIG1       -0.1908
      9 C           1.4871    2.5331   -0.7756 C.1     1  LIG1        0.1025
     10 N          -1.6160    2.3065   -0.8004 N.pl3   1  LIG1       -0.3552
     11 H          -1.2409    3.2072   -0.5187 H       1  LIG1        0.1424
     12 H          -1.8132    2.3625   -1.7962 H       1  LIG1        0.1424
     13 C          -2.2745   -0.7092   -0.0504 C.ar    1  LIG1        0.1741
     14 C          -3.5514   -0.3013    0.2374 C.ar    1  LIG1        0.0731
     15 C          -4.3337   -1.4968    0.3187 C.ar    1  LIG1        0.0057
     16 C          -3.4955   -2.5516    0.1078 C.ar    1  LIG1        0.1409
     17 O          -2.2365   -2.0879   -0.1232 O.2     1  LIG1       -0.4513
     18 N          -3.9854    0.9846    0.4796 N.pl3   1  LIG1       -0.3550
     19 H          -3.3656    1.7044    0.1080 H       1  LIG1        0.1424
     20 H          -4.9637    1.1436    0.2911 H       1  LIG1        0.1424
     21 H          -5.3944   -1.5496    0.5143 H       1  LIG1        0.0674
     22 C          -2.8493   -4.9261   -0.5162 C.ar    1  LIG1        0.1276
     23 C          -3.7174   -3.9918    0.1021 C.ar    1  LIG1        0.0571
     24 C          -4.8556   -4.5108    0.7126 C.ar    1  LIG1       -0.0428
     25 C          -5.1500   -5.8681    0.7047 C.ar    1  LIG1       -0.0236
     26 C          -4.2293   -6.6899    0.0447 C.ar    1  LIG1        0.0787
     27 N          -3.1251   -6.2305   -0.5393 N.ar    1  LIG1       -0.2314
     28 H          -5.5253   -3.8297    1.2294 H       1  LIG1        0.0629
     29 N          -1.6647   -4.5701   -1.1087 N.pl3   1  LIG1       -0.3426
     30 H          -1.2703   -5.2869   -1.6976 H       1  LIG1        0.1437
     31 H          -1.5323   -3.6101   -1.3789 H       1  LIG1        0.1437
     32 C          -6.3743   -6.4086    1.3948 C.3     1  LIG1       -0.0377
     33 H          -6.1281   -7.2503    2.0474 H       1  LIG1        0.0278
     34 H          -7.1263   -6.7645    0.6836 H       1  LIG1        0.0278
     35 H          -6.8418   -5.6348    2.0078 H       1  LIG1        0.0278
     36 C          -3.6564   -9.0756    0.6691 C.ar    1  LIG1        0.1223
     37 C          -4.4412   -8.1639   -0.0578 C.ar    1  LIG1        0.0347
     38 C          -5.4160   -8.6834   -0.8990 C.ar    1  LIG1       -0.0455
     39 C          -5.5902  -10.0590   -1.0195 C.ar    1  LIG1       -0.0316
     40 C          -4.7477  -10.8617   -0.2533 C.ar    1  LIG1        0.0319
     41 N          -3.8129  -10.4002    0.5689 N.ar    1  LIG1       -0.2458
     42 H          -6.0369   -8.0034   -1.4765 H       1  LIG1        0.0628
     43 H          -4.8385  -11.9453   -0.3087 H       1  LIG1        0.0832
     44 C          -2.6523   -8.6122    1.5882 C.1     1  LIG1       -0.0491
     45 C          -1.8251   -8.2250    2.3704 C.1     1  LIG1       -0.1124
     46 H          -1.0862   -7.8861    3.0593 H       1  LIG1        0.1232
     47 C          -6.6259  -10.6520   -1.9327 C.3     1  LIG1       -0.0383
     48 H          -6.6370  -11.7416   -1.8612 H       1  LIG1        0.0278
     49 H          -6.4318  -10.3874   -2.9765 H       1  LIG1        0.0278
     50 H          -7.6282  -10.2894   -1.6863 H       1  LIG1        0.0278
@<TRIPOS>BOND
     1    49    47    1
     2    47    48    1
     3    47    50    1
     4    47    39    1
     5    12    10    1
     6    30    29    1
     7    42    38    1
     8    31    29    1
     9    29    22    1
    10    39    38   ar
    11    39    40   ar
    12     8     9    3
    13    38    37   ar
    14    10    11    1
    15    10     3    1
    16     9     2    1
    17    27    22   ar
    18    27    26   ar
    19     3     2   ar
    20     3     4   ar
    21    22    23   ar
    22     2     1   ar
    23    43    40    1
    24    40    41   ar
    25     1     7    1
    26     1     5   ar
    27     4     5   ar
    28     4    13    1
    29    17    13   ar
    30    17    16   ar
    31     5     6    1
    32    37    26    1
    33    37    36   ar
    34    13    14   ar
    35    26    25   ar
    36    23    16    1
    37    23    24   ar
    38    16    15   ar
    39    19    18    1
    40    14    15   ar
    41    14    18    1
    42    20    18    1
    43    15    21    1
    44    41    36   ar
    45    36    44    1
    46    34    32    1
    47    25    24   ar
    48    25    32    1
    49    24    28    1
    50    32    35    1
    51    32    33    1
    52    44    45    3
    53    45    46    1
