@<TRIPOS>MOLECULE
mol_data/opt/cam/geoms/mol2/13dh13dh-.out
 24 25 0 0 0
SMALL
GASTEIGER

@<TRIPOS>ATOM
      1 C           1.1891   -0.3268   -0.0296 C.ar    1  LIG1        0.0215
      2 C           0.7707    0.9873   -0.0811 C.ar    1  LIG1        0.0903
      3 C          -0.6589    0.9776   -0.0939 C.ar    1  LIG1        0.0693
      4 C          -1.0537   -0.3420   -0.0502 C.ar    1  LIG1        0.0864
      5 N           0.0851   -1.1134   -0.0107 N.ar    1  LIG1       -0.3568
      6 H           0.0885   -2.1240    0.0269 H       1  LIG1        0.1655
      7 H           2.1852   -0.7392   -0.0055 H       1  LIG1        0.0820
      8 N           2.2138    3.1214   -0.1480 N.1     1  LIG1       -0.1908
      9 C           1.5871    2.1483   -0.1169 C.1     1  LIG1        0.1025
     10 N          -1.5617    2.0795   -0.1405 N.pl3   1  LIG1       -0.3553
     11 H          -1.4386    2.6803    0.6706 H       1  LIG1        0.1424
     12 H          -1.3838    2.6566   -0.9583 H       1  LIG1        0.1424
     13 C          -2.3902   -0.8904   -0.0453 C.ar    1  LIG1        0.0841
     14 C          -2.8489   -2.2091   -0.0043 C.ar    1  LIG1        0.0990
     15 C          -4.2786   -2.1709   -0.0297 C.ar    1  LIG1        0.0604
     16 C          -4.6320   -0.8441   -0.0872 C.ar    1  LIG1        0.0243
     17 N          -3.4763   -0.0921   -0.0927 N.ar    1  LIG1       -0.3568
     18 H          -3.3721    0.9174   -0.1338 H       1  LIG1        0.1655
     19 H          -5.6057   -0.3821   -0.1114 H       1  LIG1        0.0826
     20 N          -1.2777   -4.2445    0.0734 N.1     1  LIG1       -0.1907
     21 C          -2.0163   -3.3490    0.0435 C.1     1  LIG1        0.1032
     22 N          -5.1095   -3.2829    0.0618 N.pl3   1  LIG1       -0.3558
     23 H          -6.0320   -3.1450   -0.3250 H       1  LIG1        0.1424
     24 H          -4.6939   -4.1362   -0.2855 H       1  LIG1        0.1424
@<TRIPOS>BOND
     1    12    10    1
     2    23    22    1
     3    24    22    1
     4     8     9    3
     5    10     3    1
     6    10    11    1
     7    18    17    1
     8     9     2    1
     9    19    16    1
    10     3     2   ar
    11     3     4   ar
    12    17    16   ar
    13    17    13   ar
    14    16    15   ar
    15     2     1   ar
    16     4    13    1
    17     4     5   ar
    18    13    14   ar
    19    15    14   ar
    20    15    22    1
    21     1     5   ar
    22     1     7    1
    23     5     6    1
    24    14    21    1
    25    21    20    3
