@<TRIPOS>MOLECULE
mol_data/opt/cam/geoms/mol2/13dh13dh-13dh-13dh.out
 46 49 0 0 0
SMALL
GASTEIGER

@<TRIPOS>ATOM
      1 C           1.1325   -0.0226   -0.0223 C.ar    1  LIG1        0.0215
      2 C           0.5685    1.1860    0.3436 C.ar    1  LIG1        0.0903
      3 C          -0.8489    1.0230    0.3121 C.ar    1  LIG1        0.0693
      4 C          -1.0902   -0.2851   -0.0642 C.ar    1  LIG1        0.0864
      5 N           0.1286   -0.8931   -0.2736 N.ar    1  LIG1       -0.3568
      6 H           0.2451   -1.8538   -0.5655 H       1  LIG1        0.1655
      7 H           2.1698   -0.3008   -0.1207 H       1  LIG1        0.0820
      8 N           1.7732    3.3690    0.9952 N.1     1  LIG1       -0.1908
      9 C           1.2537    2.3783    0.6967 C.1     1  LIG1        0.1025
     10 N          -1.8580    1.9604    0.6357 N.pl3   1  LIG1       -0.3553
     11 H          -1.5287    2.6502    1.3029 H       1  LIG1        0.1424
     12 H          -2.2254    2.4670   -0.1687 H       1  LIG1        0.1424
     13 C          -2.3616   -0.9486   -0.1851 C.ar    1  LIG1        0.0846
     14 C          -2.7181   -2.2538   -0.5293 C.ar    1  LIG1        0.0997
     15 C          -4.1433   -2.3627   -0.4377 C.ar    1  LIG1        0.0699
     16 C          -4.6063   -1.1153   -0.0344 C.ar    1  LIG1        0.0869
     17 N          -3.4967   -0.2834    0.0991 N.ar    1  LIG1       -0.3493
     18 H          -3.4438    0.6248    0.5606 H       1  LIG1        0.1661
     19 N          -1.0029   -4.0507   -1.1974 N.1     1  LIG1       -0.1907
     20 C          -1.8031   -3.2624   -0.9045 C.1     1  LIG1        0.1032
     21 N          -4.8662   -3.4712   -0.8059 N.pl3   1  LIG1       -0.3553
     22 H          -5.7490   -3.6309   -0.3404 H       1  LIG1        0.1424
     23 H          -4.3258   -4.3147   -0.9284 H       1  LIG1        0.1424
     24 C          -5.9113   -0.5178    0.0505 C.ar    1  LIG1        0.0846
     25 C          -7.1953   -0.9992    0.3078 C.ar    1  LIG1        0.0997
     26 C          -8.0967    0.1153    0.2585 C.ar    1  LIG1        0.0699
     27 C          -7.3434    1.2320   -0.0112 C.ar    1  LIG1        0.0869
     28 N          -6.0332    0.8274   -0.1314 N.ar    1  LIG1       -0.3493
     29 H          -5.2827    1.4260   -0.4448 H       1  LIG1        0.1661
     30 N          -7.8024   -3.4367    0.8659 N.1     1  LIG1       -0.1907
     31 C          -7.5371   -2.3343    0.6190 C.1     1  LIG1        0.1032
     32 N          -9.5060    0.1423    0.4601 N.pl3   1  LIG1       -0.3553
     33 H          -9.9765   -0.4745   -0.1969 H       1  LIG1        0.1424
     34 H          -9.7463   -0.1862    1.3920 H       1  LIG1        0.1424
     35 C          -7.7336    2.6117   -0.1516 C.ar    1  LIG1        0.0842
     36 C          -6.9640    3.7571   -0.3886 C.ar    1  LIG1        0.0990
     37 C          -7.8587    4.8740   -0.4411 C.ar    1  LIG1        0.0604
     38 C          -9.1211    4.3720   -0.2375 C.ar    1  LIG1        0.0243
     39 N          -9.0184    3.0061   -0.0625 N.ar    1  LIG1       -0.3568
     40 H          -9.7554    2.3327    0.1190 H       1  LIG1        0.1655
     41 H         -10.0727    4.8763   -0.1922 H       1  LIG1        0.0826
     42 N          -4.4068    3.6601   -0.6483 N.1     1  LIG1       -0.1907
     43 C          -5.5593    3.7553   -0.5331 C.1     1  LIG1        0.1032
     44 N          -7.4713    6.2006   -0.5940 N.pl3   1  LIG1       -0.3558
     45 H          -6.6290    6.3262   -1.1382 H       1  LIG1        0.1424
     46 H          -8.2062    6.8133   -0.9169 H       1  LIG1        0.1424
@<TRIPOS>BOND
     1    19    20    3
     2    45    44    1
     3    23    21    1
     4    46    44    1
     5    20    14    1
     6    21    15    1
     7    21    22    1
     8    42    43    3
     9    44    37    1
    10     6     5    1
    11    43    36    1
    12    14    15   ar
    13    14    13   ar
    14    29    28    1
    15    37    36   ar
    16    37    38   ar
    17    15    16   ar
    18    36    35   ar
    19     5     4   ar
    20     5     1   ar
    21    38    41    1
    22    38    39   ar
    23    33    32    1
    24    13     4    1
    25    13    17   ar
    26    12    10    1
    27    35    39   ar
    28    35    27    1
    29    28    27   ar
    30    28    24   ar
    31     7     1    1
    32     4     3   ar
    33    39    40    1
    34    16    24    1
    35    16    17   ar
    36     1     2   ar
    37    27    26   ar
    38    24    25   ar
    39    17    18    1
    40    26    25   ar
    41    26    32    1
    42    25    31    1
    43     3     2   ar
    44     3    10    1
    45     2     9    1
    46    32    34    1
    47    31    30    3
    48    10    11    1
    49     9     8    3
