@<TRIPOS>MOLECULE
mol_data/opt/cam/geoms/mol2/13dh6ie-13al-4fd.out
 51 54 0 0 0
SMALL
GASTEIGER

@<TRIPOS>ATOM
      1 C           1.1892   -0.0612    1.0425 C.ar    1  LIG1        0.0215
      2 C           0.9518    0.9608    0.1421 C.ar    1  LIG1        0.0902
      3 C          -0.3965    0.8298   -0.3145 C.ar    1  LIG1        0.0678
      4 C          -0.9369   -0.2752    0.3167 C.ar    1  LIG1        0.0705
      5 N           0.0624   -0.7954    1.1322 N.ar    1  LIG1       -0.3579
      6 H          -0.0637   -1.5780    1.7515 H       1  LIG1        0.1654
      7 H           2.0809   -0.2980    1.6009 H       1  LIG1        0.0820
      8 N           2.5765    2.7822   -0.6805 N.1     1  LIG1       -0.1908
      9 C           1.8657    1.9553   -0.2892 C.1     1  LIG1        0.1025
     10 N          -1.0286    1.6996   -1.1963 N.pl3   1  LIG1       -0.3553
     11 H          -0.3852    2.2697   -1.7295 H       1  LIG1        0.1424
     12 H          -1.7140    1.2598   -1.7957 H       1  LIG1        0.1424
     13 C          -2.6047   -2.1906    0.2308 C.ar    1  LIG1        0.0482
     14 C          -2.2963   -0.8144    0.2448 C.ar    1  LIG1        0.0223
     15 C          -3.3722    0.0675    0.1643 C.ar    1  LIG1       -0.0333
     16 C          -4.6869   -0.3871    0.0801 C.ar    1  LIG1        0.0527
     17 C          -4.8970   -1.7813    0.0952 C.ar    1  LIG1        0.1028
     18 N          -3.8570   -2.6271    0.1675 N.ar    1  LIG1       -0.2485
     19 H          -3.1874    1.1363    0.1715 H       1  LIG1        0.0637
     20 C          -1.5486   -3.2629    0.2738 C.3     1  LIG1       -0.0217
     21 H          -1.2469   -3.4907    1.3036 H       1  LIG1        0.0293
     22 H          -0.6553   -2.9770   -0.2851 H       1  LIG1        0.0293
     23 H          -1.9588   -4.1813   -0.1456 H       1  LIG1        0.0293
     24 C          -5.7350    0.5812   -0.0079 C.1     1  LIG1       -0.0675
     25 C          -6.5626    1.4528   -0.0819 C.1     1  LIG1       -0.1138
     26 H          -7.3012    2.2186   -0.1463 H       1  LIG1        0.1232
     27 C          -6.1961   -2.4350    0.0252 C.ar    1  LIG1        0.0702
     28 C          -7.5108   -1.9880   -0.0305 C.ar    1  LIG1        0.0076
     29 C          -8.3312   -3.1345   -0.0477 C.ar    1  LIG1        0.1460
     30 C          -7.5161   -4.2602    0.0023 C.ar    1  LIG1        0.0927
     31 N          -6.2279   -3.7981    0.0293 N.ar    1  LIG1       -0.3499
     32 H          -5.3830   -4.3403    0.1326 H       1  LIG1        0.1661
     33 H          -7.8242   -0.9596   -0.0633 H       1  LIG1        0.0676
     34 O          -9.6795   -3.2089   -0.1545 O.3     1  LIG1       -0.4930
     35 C         -10.3581   -1.9744   -0.2098 C.3     1  LIG1        0.0789
     36 H         -11.4202   -2.2069   -0.2893 H       1  LIG1        0.0660
     37 H         -10.1856   -1.3803    0.6959 H       1  LIG1        0.0660
     38 H         -10.0518   -1.3858   -1.0833 H       1  LIG1        0.0660
     39 C          -8.8267   -6.2773    0.7186 C.ar    1  LIG1        0.1261
     40 C          -9.0881   -7.6440    0.6298 C.ar    1  LIG1       -0.0183
     41 C          -7.8144   -5.6905   -0.0652 C.ar    1  LIG1        0.0445
     42 C          -8.3381   -8.4550   -0.2035 C.ar    1  LIG1       -0.0409
     43 H          -9.8767   -8.0762    1.2397 H       1  LIG1        0.0655
     44 C          -7.0684   -6.5234   -0.8948 C.ar    1  LIG1       -0.0316
     45 C          -7.3116   -7.8970   -0.9669 C.ar    1  LIG1        0.0526
     46 H          -6.2937   -6.0891   -1.5172 H       1  LIG1        0.0638
     47 H          -8.5412   -9.5179   -0.2622 H       1  LIG1        0.0631
     48 O          -9.5022   -5.4785    1.5706 O.3     1  LIG1       -0.5061
     49 H         -10.1848   -5.9882    2.0230 H       1  LIG1        0.2922
     50 N          -5.8768   -9.3895   -2.5238 N.1     1  LIG1       -0.1909
     51 C          -6.5199   -8.7224   -1.8305 C.1     1  LIG1        0.0992
@<TRIPOS>BOND
     1    50    51    3
     2    51    45    1
     3    12    10    1
     4    11    10    1
     5    46    44    1
     6    10     3    1
     7    38    35    1
     8    45    44   ar
     9    45    42   ar
    10    44    41   ar
    11     8     9    3
    12     3     2   ar
    13     3     4   ar
    14    36    35    1
    15     9     2    1
    16    22    20    1
    17    47    42    1
    18    35    34    1
    19    35    37    1
    20    42    40   ar
    21    34    29    1
    22    26    25    1
    23    23    20    1
    24    25    24    3
    25    41    30    1
    26    41    39   ar
    27    33    28    1
    28    29    28   ar
    29    29    30   ar
    30    28    27   ar
    31    24    16    1
    32    30    31   ar
    33    27    31   ar
    34    27    17    1
    35    31    32    1
    36    16    17   ar
    37    16    15   ar
    38    17    18   ar
    39     2     1   ar
    40    15    19    1
    41    15    14   ar
    42    18    13   ar
    43    13    14   ar
    44    13    20    1
    45    14     4    1
    46    20    21    1
    47     4     5   ar
    48    40    39   ar
    49    40    43    1
    50    39    48    1
    51     1     5   ar
    52     1     7    1
    53     5     6    1
    54    48    49    1
