@<TRIPOS>MOLECULE
mol_data/opt/cam/geoms/mol2/13dh13dh-4dh13dh.out
 48 51 0 0 0
SMALL
GASTEIGER

@<TRIPOS>ATOM
      1 C           1.3529   -0.4448    0.3267 C.ar    1  LIG1        0.0215
      2 C           0.9163    0.8453    0.5730 C.ar    1  LIG1        0.0903
      3 C          -0.4989    0.8608    0.3920 C.ar    1  LIG1        0.0693
      4 C          -0.8706   -0.4279    0.0540 C.ar    1  LIG1        0.0864
      5 N           0.2779   -1.1954    0.0070 N.ar    1  LIG1       -0.3568
      6 H           0.3018   -2.1744   -0.2413 H       1  LIG1        0.1655
      7 H           2.3506   -0.8534    0.3529 H       1  LIG1        0.0820
      8 N           2.3120    2.9060    1.2392 N.1     1  LIG1       -0.1908
      9 C           1.7079    1.9650    0.9379 C.1     1  LIG1        0.1025
     10 N          -1.3812    1.9381    0.5622 N.pl3   1  LIG1       -0.3553
     11 H          -0.9442    2.7250    1.0277 H       1  LIG1        0.1424
     12 H          -1.8175    2.2658   -0.2973 H       1  LIG1        0.1424
     13 C          -2.1932   -0.9462   -0.1672 C.ar    1  LIG1        0.0846
     14 C          -2.6431   -2.2050   -0.5789 C.ar    1  LIG1        0.0996
     15 C          -4.0669   -2.1602   -0.6279 C.ar    1  LIG1        0.0685
     16 C          -4.4495   -0.8820   -0.2478 C.ar    1  LIG1        0.0705
     17 N          -3.2819   -0.1759    0.0161 N.ar    1  LIG1       -0.3504
     18 H          -3.2111    0.7557    0.4104 H       1  LIG1        0.1660
     19 N          -1.0908   -4.1728   -1.1584 N.1     1  LIG1       -0.1907
     20 C          -1.8124   -3.2995   -0.9038 C.1     1  LIG1        0.1032
     21 N          -4.8847   -3.2231   -0.9948 N.pl3   1  LIG1       -0.3553
     22 H          -5.7060   -2.9450   -1.5161 H       1  LIG1        0.1424
     23 H          -4.3867   -3.9623   -1.4739 H       1  LIG1        0.1424
     24 C          -6.0322    1.0814   -0.3908 C.ar    1  LIG1        0.0616
     25 C          -7.3291    1.5821   -0.2791 C.ar    1  LIG1       -0.0328
     26 C          -5.7754   -0.2918   -0.1626 C.ar    1  LIG1        0.0193
     27 C          -8.4120    0.7695    0.0337 C.ar    1  LIG1        0.0215
     28 H          -7.4905    2.6415   -0.4393 H       1  LIG1        0.0638
     29 C          -6.8696   -1.1040    0.1433 C.ar    1  LIG1       -0.0300
     30 C          -8.1691   -0.6103    0.2312 C.ar    1  LIG1        0.0345
     31 H          -6.6963   -2.1553    0.3488 H       1  LIG1        0.0643
     32 N          -4.1117    2.7030   -1.0124 N.1     1  LIG1       -0.1908
     33 C          -4.9830    1.9883   -0.7449 C.1     1  LIG1        0.0998
     34 N          -9.2107   -1.4694    0.5726 N.pl3   1  LIG1       -0.3574
     35 H         -10.0918   -1.2686    0.1174 H       1  LIG1        0.1423
     36 H          -8.9736   -2.4503    0.5190 H       1  LIG1        0.1423
     37 C          -9.7480    1.3543    0.1775 C.ar    1  LIG1        0.0677
     38 C         -10.3458    2.4245   -0.4871 C.ar    1  LIG1        0.0976
     39 C         -11.6385    2.6422    0.0874 C.ar    1  LIG1        0.0603
     40 C         -11.7923    1.7000    1.0737 C.ar    1  LIG1        0.0243
     41 N         -10.6487    0.9269    1.1013 N.ar    1  LIG1       -0.3579
     42 H         -10.4463    0.2041    1.7750 H       1  LIG1        0.1654
     43 H         -12.6121    1.5173    1.7494 H       1  LIG1        0.0826
     44 N          -9.4420    3.7837   -2.4786 N.1     1  LIG1       -0.1907
     45 C          -9.8238    3.1587   -1.5799 C.1     1  LIG1        0.1031
     46 N         -12.5104    3.6567   -0.2824 N.pl3   1  LIG1       -0.3558
     47 H         -12.3328    4.0405   -1.2003 H       1  LIG1        0.1424
     48 H         -13.4887    3.4504   -0.1457 H       1  LIG1        0.1424
@<TRIPOS>BOND
     1    44    45    3
     2    45    38    1
     3    22    21    1
     4    23    21    1
     5    47    46    1
     6    19    20    3
     7    32    33    3
     8    21    15    1
     9    20    14    1
    10    33    24    1
    11    15    14   ar
    12    15    16   ar
    13    14    13   ar
    14    38    39   ar
    15    38    37   ar
    16    28    25    1
    17    24    25   ar
    18    24    26   ar
    19    12    10    1
    20    46    48    1
    21    46    39    1
    22    25    27   ar
    23    16    26    1
    24    16    17   ar
    25     6     5    1
    26    13    17   ar
    27    13     4    1
    28    26    29   ar
    29     5     4   ar
    30     5     1   ar
    31    17    18    1
    32    27    37    1
    33    27    30   ar
    34     4     3   ar
    35    39    40   ar
    36    35    34    1
    37    29    30   ar
    38    29    31    1
    39    37    41   ar
    40    30    34    1
    41     1     7    1
    42     1     2   ar
    43     3    10    1
    44     3     2   ar
    45    36    34    1
    46    10    11    1
    47     2     9    1
    48     9     8    3
    49    40    41   ar
    50    40    43    1
    51    41    42    1
