@<TRIPOS>MOLECULE
mol_data/opt/cam/geoms/mol2/13dh13dh13dh-13dh.out
 46 49 0 0 0
SMALL
GASTEIGER

@<TRIPOS>ATOM
      1 C           1.2436   -0.2657   -0.5115 C.ar    1  LIG1        0.0215
      2 C           0.9278    0.9656    0.0271 C.ar    1  LIG1        0.0903
      3 C          -0.4954    1.0307    0.1848 C.ar    1  LIG1        0.0693
      4 C          -0.9966   -0.1810   -0.2740 C.ar    1  LIG1        0.0864
      5 N           0.0962   -0.9501   -0.6801 N.ar    1  LIG1       -0.3568
      6 H           0.0240   -1.8225   -1.1794 H       1  LIG1        0.1655
      7 H           2.2031   -0.6700   -0.7933 H       1  LIG1        0.0820
      8 N           2.5204    2.8825    0.6776 N.1     1  LIG1       -0.1908
      9 C           1.8278    2.0032    0.3792 C.1     1  LIG1        0.1025
     10 N          -1.1604    2.0748    0.7837 N.pl3   1  LIG1       -0.3553
     11 H          -0.5883    2.8911    0.9480 H       1  LIG1        0.1424
     12 H          -2.0770    2.3086    0.4274 H       1  LIG1        0.1424
     13 C          -2.3204   -0.7487   -0.2697 C.ar    1  LIG1        0.0846
     14 C          -3.5873   -0.1788   -0.3917 C.ar    1  LIG1        0.0997
     15 C          -4.5524   -1.2317   -0.3111 C.ar    1  LIG1        0.0699
     16 C          -3.8534   -2.4063   -0.1646 C.ar    1  LIG1        0.0869
     17 N          -2.5090   -2.0949   -0.1397 N.ar    1  LIG1       -0.3493
     18 H          -1.7802   -2.7542    0.0952 H       1  LIG1        0.1661
     19 N          -4.0856    2.3124   -0.8022 N.1     1  LIG1       -0.1907
     20 C          -3.8692    1.1871   -0.6228 C.1     1  LIG1        0.1032
     21 N          -5.9675   -1.1753   -0.3862 N.pl3   1  LIG1       -0.3553
     22 H          -6.3822   -0.7277    0.4259 H       1  LIG1        0.1424
     23 H          -6.2937   -0.6776   -1.2087 H       1  LIG1        0.1424
     24 C          -4.3595   -3.7520   -0.0761 C.ar    1  LIG1        0.0846
     25 C          -3.7040   -4.9790    0.0066 C.ar    1  LIG1        0.0997
     26 C          -4.7075   -5.9950    0.0550 C.ar    1  LIG1        0.0699
     27 C          -5.9291   -5.3551    0.0005 C.ar    1  LIG1        0.0869
     28 N          -5.6925   -4.0039   -0.0757 N.ar    1  LIG1       -0.3493
     29 H          -6.3645   -3.2411   -0.1734 H       1  LIG1        0.1661
     30 N          -1.1385   -5.1746    0.0139 N.1     1  LIG1       -0.1907
     31 C          -2.2985   -5.1316    0.0156 C.1     1  LIG1        0.1032
     32 N          -4.5477   -7.4074    0.1452 N.pl3   1  LIG1       -0.3553
     33 H          -3.9744   -7.7601   -0.6162 H       1  LIG1        0.1424
     34 H          -4.0852   -7.6695    1.0117 H       1  LIG1        0.1424
     35 C          -7.2539   -5.9283    0.0226 C.ar    1  LIG1        0.0842
     36 C          -8.5207   -5.3392    0.0031 C.ar    1  LIG1        0.0990
     37 C          -9.4872   -6.3930    0.0389 C.ar    1  LIG1        0.0604
     38 C          -8.7809   -7.5716    0.0762 C.ar    1  LIG1        0.0243
     39 N          -7.4376   -7.2652    0.0668 N.ar    1  LIG1       -0.3568
     40 H          -6.6422   -7.8954    0.0927 H       1  LIG1        0.1655
     41 H          -9.1270   -8.5916    0.1212 H       1  LIG1        0.0826
     42 N          -8.9940   -2.8109   -0.0948 N.1     1  LIG1       -0.1907
     43 C          -8.7919   -3.9528   -0.0463 C.1     1  LIG1        0.1032
     44 N         -10.8647   -6.2103    0.0969 N.pl3   1  LIG1       -0.3558
     45 H         -11.1783   -5.3302   -0.2884 H       1  LIG1        0.1424
     46 H         -11.4038   -6.9816   -0.2688 H       1  LIG1        0.1424
@<TRIPOS>BOND
     1    23    21    1
     2     6     5    1
     3    19    20    3
     4     7     1    1
     5     5     1   ar
     6     5     4   ar
     7    20    14    1
     8    33    32    1
     9     1     2   ar
    10    14    15   ar
    11    14    13   ar
    12    21    15    1
    13    21    22    1
    14    15    16   ar
    15    45    44    1
    16     4    13    1
    17     4     3   ar
    18    13    17   ar
    19    46    44    1
    20    29    28    1
    21    16    17   ar
    22    16    24    1
    23    17    18    1
    24    42    43    3
    25    24    28   ar
    26    24    25   ar
    27    28    27   ar
    28    43    36    1
    29    27    35    1
    30    27    26   ar
    31    36    35   ar
    32    36    37   ar
    33    25    31    1
    34    25    26   ar
    35    30    31    3
    36    35    39   ar
    37     2     3   ar
    38     2     9    1
    39    37    38   ar
    40    37    44    1
    41    26    32    1
    42    39    38   ar
    43    39    40    1
    44    38    41    1
    45    32    34    1
    46     3    10    1
    47     9     8    3
    48    12    10    1
    49    10    11    1
