@<TRIPOS>MOLECULE
mol_data/opt/cam/geoms/mol2/13dh13dh13dh.out
 35 37 0 0 0
SMALL
GASTEIGER

@<TRIPOS>ATOM
      1 C           1.0920   -0.2336   -1.0072 C.ar    1  LIG1        0.0215
      2 C           0.8962    0.8939   -0.2370 C.ar    1  LIG1        0.0903
      3 C          -0.4801    0.9252    0.1662 C.ar    1  LIG1        0.0693
      4 C          -1.0730   -0.2039   -0.3776 C.ar    1  LIG1        0.0864
      5 N          -0.0811   -0.8983   -1.0741 N.ar    1  LIG1       -0.3568
      6 H          -0.2754   -1.6295   -1.7394 H       1  LIG1        0.1655
      7 H           1.9797   -0.5758   -1.5156 H       1  LIG1        0.0820
      8 N           2.6239    2.6845    0.4300 N.1     1  LIG1       -0.1908
      9 C           1.8673    1.8648    0.1182 C.1     1  LIG1        0.1025
     10 N          -1.0231    1.8608    1.0184 N.pl3   1  LIG1       -0.3553
     11 H          -0.4232    2.6549    1.1935 H       1  LIG1        0.1424
     12 H          -1.9785    2.1383    0.8367 H       1  LIG1        0.1424
     13 C          -2.3963   -0.7610   -0.2326 C.ar    1  LIG1        0.0846
     14 C          -3.6497   -0.1538   -0.1850 C.ar    1  LIG1        0.0997
     15 C          -4.6492   -1.1718   -0.0593 C.ar    1  LIG1        0.0699
     16 C          -3.9781   -2.3829   -0.0410 C.ar    1  LIG1        0.0869
     17 N          -2.6147   -2.0969   -0.1480 N.ar    1  LIG1       -0.3493
     18 H          -1.8885   -2.7941   -0.1537 H       1  LIG1        0.1661
     19 N          -4.0856    2.3771   -0.3382 N.1     1  LIG1       -0.1907
     20 C          -3.8964    1.2337   -0.2812 C.1     1  LIG1        0.1032
     21 N          -5.9971   -0.9311    0.0920 N.pl3   1  LIG1       -0.3553
     22 H          -6.2708    0.0240   -0.0903 H       1  LIG1        0.1424
     23 H          -6.6259   -1.5948   -0.3399 H       1  LIG1        0.1424
     24 C          -4.4329   -3.7382    0.1568 C.ar    1  LIG1        0.0842
     25 C          -5.5750   -4.3983   -0.2892 C.ar    1  LIG1        0.0990
     26 C          -5.5428   -5.7422    0.2124 C.ar    1  LIG1        0.0604
     27 C          -4.3823   -5.8646    0.9280 C.ar    1  LIG1        0.0243
     28 N          -3.7156   -4.6473    0.8722 N.ar    1  LIG1       -0.3568
     29 H          -2.9623   -4.3942    1.4909 H       1  LIG1        0.1655
     30 H          -3.9741   -6.7040    1.4671 H       1  LIG1        0.0826
     31 N          -7.3813   -3.3845   -1.8151 N.1     1  LIG1       -0.1907
     32 C          -6.5648   -3.8519   -1.1354 C.1     1  LIG1        0.1032
     33 N          -6.5453   -6.6821    0.0168 N.pl3   1  LIG1       -0.3558
     34 H          -7.1098   -6.5238   -0.8061 H       1  LIG1        0.1424
     35 H          -6.2452   -7.6433    0.0829 H       1  LIG1        0.1424
@<TRIPOS>BOND
     1    31    32    3
     2     6     5    1
     3     7     1    1
     4    32    25    1
     5     5     1   ar
     6     5     4   ar
     7     1     2   ar
     8    34    33    1
     9     4    13    1
    10     4     3   ar
    11    23    21    1
    12    19    20    3
    13    25    24   ar
    14    25    26   ar
    15    20    14    1
    16     2     9    1
    17     2     3   ar
    18    13    14   ar
    19    13    17   ar
    20    14    15   ar
    21    18    17    1
    22    17    16   ar
    23    22    21    1
    24    15    16   ar
    25    15    21    1
    26    16    24    1
    27    33    35    1
    28    33    26    1
    29     9     8    3
    30    24    28   ar
    31     3    10    1
    32    26    27   ar
    33    12    10    1
    34    28    27   ar
    35    28    29    1
    36    27    30    1
    37    10    11    1
