@<TRIPOS>MOLECULE
mol_data/opt/cam/geoms/mol2/13dh13dh-13dh-13dh-.out
 46 49 0 0 0
SMALL
GASTEIGER

@<TRIPOS>ATOM
      1 C           1.2536   -0.1899   -0.2361 C.ar    1  LIG1        0.0215
      2 C           0.7535    1.0074   -0.7081 C.ar    1  LIG1        0.0903
      3 C          -0.6713    0.9149   -0.6720 C.ar    1  LIG1        0.0693
      4 C          -0.9823   -0.3339   -0.1775 C.ar    1  LIG1        0.0864
      5 N           0.2027   -0.9857    0.0768 N.ar    1  LIG1       -0.3568
      6 H           0.2712   -1.9279    0.4380 H       1  LIG1        0.1655
      7 H           2.2741   -0.5143   -0.1080 H       1  LIG1        0.0820
      8 N           2.0530    3.0815   -1.5144 N.1     1  LIG1       -0.1908
      9 C           1.4934    2.1364   -1.1485 C.1     1  LIG1        0.1025
     10 N          -1.6419    1.8817   -1.0678 N.pl3   1  LIG1       -0.3553
     11 H          -1.4811    2.7658   -0.5918 H       1  LIG1        0.1424
     12 H          -1.5672    2.0750   -2.0639 H       1  LIG1        0.1424
     13 C          -2.2828   -0.9144    0.0542 C.ar    1  LIG1        0.0846
     14 C          -2.6662   -2.1884    0.4723 C.ar    1  LIG1        0.0997
     15 C          -4.0950   -2.2433    0.4777 C.ar    1  LIG1        0.0699
     16 C          -4.5360   -0.9922    0.0609 C.ar    1  LIG1        0.0869
     17 N          -3.4089   -0.2116   -0.1772 N.ar    1  LIG1       -0.3493
     18 H          -3.3520    0.7072   -0.6100 H       1  LIG1        0.1661
     19 N          -0.9804   -4.0255    1.1059 N.1     1  LIG1       -0.1907
     20 C          -1.7689   -3.2204    0.8278 C.1     1  LIG1        0.1032
     21 N          -4.8340   -3.3156    0.9244 N.pl3   1  LIG1       -0.3553
     22 H          -5.7164   -3.4863    0.4608 H       1  LIG1        0.1424
     23 H          -4.3025   -4.1648    1.0519 H       1  LIG1        0.1424
     24 C          -5.8555   -0.4174   -0.0308 C.ar    1  LIG1        0.0846
     25 C          -7.0813   -0.9666   -0.4073 C.ar    1  LIG1        0.0997
     26 C          -8.0792    0.0596   -0.3582 C.ar    1  LIG1        0.0699
     27 C          -7.4342    1.2179    0.0410 C.ar    1  LIG1        0.0869
     28 N          -6.0896    0.8919    0.2339 N.ar    1  LIG1       -0.3493
     29 H          -5.3795    1.5555    0.4971 H       1  LIG1        0.1661
     30 N          -7.4706   -3.4019   -1.1384 N.1     1  LIG1       -0.1907
     31 C          -7.2993   -2.2992   -0.8191 C.1     1  LIG1        0.1032
     32 N          -9.4216   -0.1430   -0.5923 N.pl3   1  LIG1       -0.3553
     33 H          -9.9203    0.6117   -1.0444 H       1  LIG1        0.1424
     34 H          -9.6402   -1.0401   -1.0021 H       1  LIG1        0.1424
     35 C          -7.9218    2.5393    0.3544 C.ar    1  LIG1        0.0842
     36 C          -8.9170    3.3157   -0.2341 C.ar    1  LIG1        0.0990
     37 C          -9.0060    4.5539    0.4855 C.ar    1  LIG1        0.0604
     38 C          -8.0581    4.5020    1.4716 C.ar    1  LIG1        0.0243
     39 N          -7.4013    3.2823    1.3690 N.ar    1  LIG1       -0.3568
     40 H          -6.8223    2.8957    2.0966 H       1  LIG1        0.1655
     41 H          -7.7935    5.2199    2.2308 H       1  LIG1        0.0826
     42 N         -10.2912    2.6551   -2.3063 N.1     1  LIG1       -0.1907
     43 C          -9.6679    2.9645   -1.3773 C.1     1  LIG1        0.1032
     44 N          -9.9266    5.5581    0.2184 N.pl3   1  LIG1       -0.3558
     45 H          -9.6476    6.4798    0.5204 H       1  LIG1        0.1424
     46 H         -10.2686    5.5664   -0.7324 H       1  LIG1        0.1424
@<TRIPOS>BOND
     1    42    43    3
     2    12    10    1
     3     8     9    3
     4    43    36    1
     5     9     2    1
     6    30    31    3
     7    10     3    1
     8    10    11    1
     9    33    32    1
    10    34    32    1
    11    31    25    1
    12    46    44    1
    13     2     3   ar
    14     2     1   ar
    15     3     4   ar
    16    18    17    1
    17    32    26    1
    18    25    26   ar
    19    25    24   ar
    20    26    27   ar
    21     1     7    1
    22     1     5   ar
    23    36    35   ar
    24    36    37   ar
    25     4    13    1
    26     4     5   ar
    27    17    13   ar
    28    17    16   ar
    29    24    16    1
    30    24    28   ar
    31    27    28   ar
    32    27    35    1
    33    13    14   ar
    34    16    15   ar
    35     5     6    1
    36    44    37    1
    37    44    45    1
    38    28    29    1
    39    35    39   ar
    40    22    21    1
    41    14    15   ar
    42    14    20    1
    43    15    21    1
    44    37    38   ar
    45    20    19    3
    46    21    23    1
    47    39    38   ar
    48    39    40    1
    49    38    41    1
