@<TRIPOS>MOLECULE
mol_data/opt/cam/geoms/mol2/13di13di13di-13di.out
 50 53 0 0 0
SMALL
GASTEIGER

@<TRIPOS>ATOM
      1 C           1.2469   -0.2621   -0.2669 C.ar    1  LIG1        0.0199
      2 C           0.9045    0.9469    0.3024 C.ar    1  LIG1        0.0725
      3 C          -0.5202    1.0102    0.4057 C.ar    1  LIG1       -0.0064
      4 C          -0.9913   -0.1756   -0.1181 C.ar    1  LIG1        0.0684
      5 N           0.0994   -0.9366   -0.5092 N.ar    1  LIG1       -0.3581
      6 H           0.0424   -1.8221   -0.9889 H       1  LIG1        0.1654
      7 H           2.2160   -0.6691   -0.5088 H       1  LIG1        0.0820
      8 N           2.5502    2.7633    1.1063 N.1     1  LIG1       -0.1908
      9 C           1.8184    1.9446    0.7401 C.1     1  LIG1        0.1009
     10 C          -1.3019    2.1315    1.0092 C.3     1  LIG1       -0.0364
     11 H          -2.2110    1.7651    1.4912 H       1  LIG1        0.0279
     12 H          -1.6086    2.8620    0.2558 H       1  LIG1        0.0279
     13 H          -0.7015    2.6532    1.7576 H       1  LIG1        0.0279
     14 C          -2.3317   -0.7096   -0.2480 C.ar    1  LIG1        0.0815
     15 C          -3.5470   -0.1268   -0.5948 C.ar    1  LIG1        0.0819
     16 C          -4.5515   -1.1400   -0.6067 C.ar    1  LIG1       -0.0057
     17 C          -3.9125   -2.3192   -0.2731 C.ar    1  LIG1        0.0688
     18 N          -2.5780   -2.0329   -0.0618 N.ar    1  LIG1       -0.3506
     19 H          -1.8968   -2.6971    0.2765 H       1  LIG1        0.1660
     20 N          -3.9335    2.3213   -1.3032 N.1     1  LIG1       -0.1908
     21 C          -3.7479    1.2255   -0.9778 C.1     1  LIG1        0.1016
     22 C          -5.9889   -0.9357   -0.9683 C.3     1  LIG1       -0.0364
     23 H          -6.6564   -1.0144   -0.1035 H       1  LIG1        0.0279
     24 H          -6.3238   -1.6647   -1.7124 H       1  LIG1        0.0279
     25 H          -6.1346    0.0586   -1.3942 H       1  LIG1        0.0279
     26 C          -4.3966   -3.6753   -0.1730 C.ar    1  LIG1        0.0815
     27 C          -3.6932   -4.8813   -0.1599 C.ar    1  LIG1        0.0819
     28 C          -4.6261   -5.9518   -0.0456 C.ar    1  LIG1       -0.0057
     29 C          -5.8774   -5.3682    0.0043 C.ar    1  LIG1        0.0688
     30 N          -5.7095   -3.9977   -0.0759 N.ar    1  LIG1       -0.3506
     31 H          -6.4613   -3.3250   -0.0081 H       1  LIG1        0.1660
     32 N          -1.1251   -4.9795   -0.3184 N.1     1  LIG1       -0.1908
     33 C          -2.2838   -4.9804   -0.2540 C.1     1  LIG1        0.1016
     34 C          -4.2683   -7.4039    0.0065 C.3     1  LIG1       -0.0364
     35 H          -3.1850   -7.5289    0.0562 H       1  LIG1        0.0279
     36 H          -4.6072   -7.9440   -0.8853 H       1  LIG1        0.0279
     37 H          -4.6885   -7.8955    0.8903 H       1  LIG1        0.0279
     38 C          -7.1951   -5.9531    0.1239 C.ar    1  LIG1        0.0810
     39 C          -8.4429   -5.3555    0.2969 C.ar    1  LIG1        0.0813
     40 C          -9.4379   -6.3828    0.3561 C.ar    1  LIG1       -0.0151
     41 C          -8.7645   -7.5631    0.2186 C.ar    1  LIG1        0.0064
     42 N          -7.4217   -7.2956    0.0812 N.ar    1  LIG1       -0.3582
     43 H          -6.7074   -7.9897   -0.0595 H       1  LIG1        0.1654
     44 H          -9.1337   -8.5770    0.2081 H       1  LIG1        0.0810
     45 N          -8.7568   -2.8059    0.4727 N.1     1  LIG1       -0.1908
     46 C          -8.6546   -3.9594    0.3999 C.1     1  LIG1        0.1016
     47 C         -10.9074   -6.1820    0.5361 C.3     1  LIG1       -0.0371
     48 H         -11.4326   -7.1390    0.5429 H       1  LIG1        0.0278
     49 H         -11.3277   -5.5729   -0.2694 H       1  LIG1        0.0278
     50 H         -11.1275   -5.6705    1.4776 H       1  LIG1        0.0278
@<TRIPOS>BOND
     1    24    22    1
     2    25    22    1
     3    20    21    3
     4     6     5    1
     5    21    15    1
     6    22    16    1
     7    22    23    1
     8    36    34    1
     9    16    15   ar
    10    16    17   ar
    11    15    14   ar
    12     5     1   ar
    13     5     4   ar
    14     7     1    1
    15    32    33    3
    16    17    26    1
    17    17    18   ar
    18    49    47    1
    19     1     2   ar
    20    33    27    1
    21    14     4    1
    22    14    18   ar
    23    26    27   ar
    24    26    30   ar
    25    27    28   ar
    26     4     3   ar
    27    30    31    1
    28    30    29   ar
    29    18    19    1
    30    43    42    1
    31    28    29   ar
    32    28    34    1
    33    29    38    1
    34    34    35    1
    35    34    37    1
    36    42    38   ar
    37    42    41   ar
    38    38    39   ar
    39    44    41    1
    40    41    40   ar
    41    12    10    1
    42    39    40   ar
    43    39    46    1
    44     2     3   ar
    45     2     9    1
    46    40    47    1
    47    46    45    3
    48     3    10    1
    49    47    48    1
    50    47    50    1
    51     9     8    3
    52    10    11    1
    53    10    13    1
