@<TRIPOS>MOLECULE
mol_data/opt/cam/geoms/mol2/13di13di-13di13di-.out
 50 53 0 0 0
SMALL
GASTEIGER

@<TRIPOS>ATOM
      1 C           1.3264   -0.3431   -0.0237 C.ar    1  LIG1        0.0199
      2 C           0.9307    0.9540   -0.2861 C.ar    1  LIG1        0.0725
      3 C          -0.4948    0.9935   -0.2861 C.ar    1  LIG1       -0.0064
      4 C          -0.9139   -0.2988   -0.0177 C.ar    1  LIG1        0.0684
      5 N           0.2117   -1.0861    0.1361 N.ar    1  LIG1       -0.3581
      6 H           0.1992   -2.0788    0.3260 H       1  LIG1        0.1654
      7 H           2.3148   -0.7674    0.0550 H       1  LIG1        0.0820
      8 N           2.4772    2.9714   -0.7222 N.1     1  LIG1       -0.1908
      9 C           1.7937    2.0583   -0.5237 C.1     1  LIG1        0.1009
     10 C          -1.3251    2.2102   -0.5496 C.3     1  LIG1       -0.0364
     11 H          -1.9184    2.5159    0.3187 H       1  LIG1        0.0279
     12 H          -2.0121    2.0596   -1.3891 H       1  LIG1        0.0279
     13 H          -0.6838    3.0548   -0.8075 H       1  LIG1        0.0279
     14 C          -2.2420   -0.8577    0.0998 C.ar    1  LIG1        0.0815
     15 C          -2.6628   -2.1807    0.2555 C.ar    1  LIG1        0.0819
     16 C          -4.0842   -2.2071    0.3257 C.ar    1  LIG1       -0.0057
     17 C          -4.4959   -0.8935    0.2075 C.ar    1  LIG1        0.0688
     18 N          -3.3680   -0.1026    0.0723 N.ar    1  LIG1       -0.3506
     19 H          -3.3789    0.9050    0.0093 H       1  LIG1        0.1660
     20 N          -1.0393   -4.1724    0.4277 N.1     1  LIG1       -0.1908
     21 C          -1.7972   -3.2979    0.3465 C.1     1  LIG1        0.1016
     22 C          -4.9183   -3.4344    0.5161 C.3     1  LIG1       -0.0364
     23 H          -4.2863   -4.2874    0.7699 H       1  LIG1        0.0279
     24 H          -5.4786   -3.7105   -0.3835 H       1  LIG1        0.0279
     25 H          -5.6387   -3.3092    1.3303 H       1  LIG1        0.0279
     26 C          -5.8187   -0.3144    0.2228 C.ar    1  LIG1        0.0815
     27 C          -6.2309    1.0115    0.3655 C.ar    1  LIG1        0.0819
     28 C          -7.6536    1.0567    0.3081 C.ar    1  LIG1       -0.0057
     29 C          -8.0739   -0.2473    0.1344 C.ar    1  LIG1        0.0688
     30 N          -6.9504   -1.0515    0.0884 N.ar    1  LIG1       -0.3506
     31 H          -6.9690   -2.0459   -0.0909 H       1  LIG1        0.1660
     32 N          -4.6176    2.9960    0.6658 N.1     1  LIG1       -0.1908
     33 C          -5.3640    2.1172    0.5389 C.1     1  LIG1        0.1016
     34 C          -8.4797    2.2995    0.4169 C.3     1  LIG1       -0.0364
     35 H          -9.0517    2.3338    1.3517 H       1  LIG1        0.0279
     36 H          -9.1781    2.3984   -0.4207 H       1  LIG1        0.0279
     37 H          -7.8409    3.1846    0.4082 H       1  LIG1        0.0279
     38 C          -9.4012   -0.8071    0.0019 C.ar    1  LIG1        0.0810
     39 C          -9.8171   -2.0957   -0.3303 C.ar    1  LIG1        0.0813
     40 C         -11.2483   -2.1306   -0.3233 C.ar    1  LIG1       -0.0151
     41 C         -11.6509   -0.8688    0.0100 C.ar    1  LIG1        0.0064
     42 N         -10.5375   -0.0830    0.2016 N.ar    1  LIG1       -0.3582
     43 H         -10.5547    0.8826    0.4832 H       1  LIG1        0.1654
     44 H         -12.6443   -0.4640    0.1262 H       1  LIG1        0.0810
     45 N          -8.1727   -4.0066   -0.8543 N.1     1  LIG1       -0.1908
     46 C          -8.9424   -3.1684   -0.6272 C.1     1  LIG1        0.1016
     47 C         -12.1058   -3.3160   -0.6261 C.3     1  LIG1       -0.0371
     48 H         -11.9028   -4.1407    0.0631 H       1  LIG1        0.0278
     49 H         -11.9273   -3.6888   -1.6389 H       1  LIG1        0.0278
     50 H         -13.1642   -3.0616   -0.5435 H       1  LIG1        0.0278
@<TRIPOS>BOND
     1    49    47    1
     2    12    10    1
     3    45    46    3
     4    13    10    1
     5     8     9    3
     6    46    39    1
     7    47    50    1
     8    47    40    1
     9    47    48    1
    10    10     3    1
    11    10    11    1
    12     9     2    1
    13    36    34    1
    14    24    22    1
    15    39    40   ar
    16    39    38   ar
    17    40    41   ar
    18     3     2   ar
    19     3     4   ar
    20     2     1   ar
    21    31    30    1
    22     1     7    1
    23     1     5   ar
    24     4    14    1
    25     4     5   ar
    26    38    29    1
    27    38    42   ar
    28    19    18    1
    29    41    44    1
    30    41    42   ar
    31    18    14   ar
    32    18    17   ar
    33    30    29   ar
    34    30    26   ar
    35    14    15   ar
    36    29    28   ar
    37     5     6    1
    38    42    43    1
    39    17    26    1
    40    17    16   ar
    41    26    27   ar
    42    15    16   ar
    43    15    21    1
    44    28    27   ar
    45    28    34    1
    46    16    22    1
    47    21    20    3
    48    27    33    1
    49    37    34    1
    50    34    35    1
    51    22    23    1
    52    22    25    1
    53    33    32    3
