@<TRIPOS>MOLECULE
mol_data/opt/cam/geoms/mol2/13di13di.out
 26 27 0 0 0
SMALL
GASTEIGER

@<TRIPOS>ATOM
      1 C           1.1603   -0.3222   -0.6081 C.ar    1  LIG1        0.0199
      2 C           0.8441    0.9413   -0.1568 C.ar    1  LIG1        0.0725
      3 C          -0.5499    0.9697    0.1659 C.ar    1  LIG1       -0.0064
      4 C          -1.0295   -0.2921   -0.1066 C.ar    1  LIG1        0.0684
      5 N           0.0270   -1.0642   -0.5629 N.ar    1  LIG1       -0.3581
      6 H          -0.0721   -1.9889   -0.9498 H       1  LIG1        0.1654
      7 H           2.1007   -0.7248   -0.9500 H       1  LIG1        0.0820
      8 N           2.4948    2.9036    0.1257 N.1     1  LIG1       -0.1908
      9 C           1.7593    2.0197   -0.0078 C.1     1  LIG1        0.1009
     10 C          -1.3022    2.1401    0.7102 C.3     1  LIG1       -0.0364
     11 H          -2.1362    1.8144    1.3357 H       1  LIG1        0.0279
     12 H          -1.7208    2.7532   -0.0930 H       1  LIG1        0.0279
     13 H          -0.6459    2.7745    1.3098 H       1  LIG1        0.0279
     14 C          -2.3564   -0.8624    0.0458 C.ar    1  LIG1        0.0810
     15 C          -3.6055   -0.3858   -0.3219 C.ar    1  LIG1        0.0813
     16 C          -4.5911   -1.3532    0.0607 C.ar    1  LIG1       -0.0151
     17 C          -3.9047   -2.3842    0.6388 C.ar    1  LIG1        0.0064
     18 N          -2.5614   -2.0873    0.6168 N.ar    1  LIG1       -0.3582
     19 H          -1.8453   -2.6116    1.0932 H       1  LIG1        0.1654
     20 H          -4.2664   -3.3086    1.0624 H       1  LIG1        0.0810
     21 N          -4.0712    1.8181   -1.5764 N.1     1  LIG1       -0.1908
     22 C          -3.8548    0.8290   -1.0141 C.1     1  LIG1        0.1016
     23 C          -6.0654   -1.2441   -0.1563 C.3     1  LIG1       -0.0371
     24 H          -6.5835   -2.1225    0.2337 H       1  LIG1        0.0278
     25 H          -6.3059   -1.1544   -1.2197 H       1  LIG1        0.0278
     26 H          -6.4754   -0.3608    0.3416 H       1  LIG1        0.0278
@<TRIPOS>BOND
     1    21    22    3
     2    25    23    1
     3    22    15    1
     4     7     1    1
     5     6     5    1
     6     1     5   ar
     7     1     2   ar
     8     5     4   ar
     9    15    14   ar
    10    15    16   ar
    11     2     9    1
    12     2     3   ar
    13    23    16    1
    14    23    24    1
    15    23    26    1
    16     4    14    1
    17     4     3   ar
    18    12    10    1
    19     9     8    3
    20    14    18   ar
    21    16    17   ar
    22     3    10    1
    23    18    17   ar
    24    18    19    1
    25    17    20    1
    26    10    13    1
    27    10    11    1
