@<TRIPOS>MOLECULE
mol_data/opt/cam/geoms/mol2/13di13di13di13di-.out
 50 53 0 0 0
SMALL
GASTEIGER

@<TRIPOS>ATOM
      1 C           1.1035   -0.9199    0.0088 C.ar    1  LIG1        0.0199
      2 C           0.9228    0.4042    0.3534 C.ar    1  LIG1        0.0725
      3 C          -0.4785    0.6844    0.3470 C.ar    1  LIG1       -0.0064
      4 C          -1.0993   -0.4938   -0.0154 C.ar    1  LIG1        0.0684
      5 N          -0.1180   -1.4573   -0.2057 N.ar    1  LIG1       -0.3581
      6 H          -0.2774   -2.4077   -0.5133 H       1  LIG1        0.1654
      7 H           2.0101   -1.4949   -0.0958 H       1  LIG1        0.0820
      8 N           2.7877    2.0772    0.9675 N.1     1  LIG1       -0.1908
      9 C           1.9567    1.3215    0.6875 C.1     1  LIG1        0.1009
     10 C          -1.1067    1.9893    0.7155 C.3     1  LIG1       -0.0364
     11 H          -2.0573    1.8393    1.2321 H       1  LIG1        0.0279
     12 H          -1.3134    2.6039   -0.1646 H       1  LIG1        0.0279
     13 H          -0.4436    2.5558    1.3727 H       1  LIG1        0.0279
     14 C          -2.4941   -0.8586   -0.1480 C.ar    1  LIG1        0.0815
     15 C          -3.6333   -0.1829   -0.5737 C.ar    1  LIG1        0.0819
     16 C          -4.7485   -1.0826   -0.5273 C.ar    1  LIG1       -0.0057
     17 C          -4.2512   -2.2842   -0.0812 C.ar    1  LIG1        0.0688
     18 N          -2.8884   -2.1308    0.1339 N.ar    1  LIG1       -0.3506
     19 H          -2.3237   -2.7837    0.6581 H       1  LIG1        0.1660
     20 N          -3.7442    2.2016   -1.5468 N.1     1  LIG1       -0.1908
     21 C          -3.6819    1.1352   -1.0996 C.1     1  LIG1        0.1016
     22 C          -6.1465   -0.7707   -0.9512 C.3     1  LIG1       -0.0364
     23 H          -6.7611   -0.4580   -0.1022 H       1  LIG1        0.0279
     24 H          -6.6292   -1.6451   -1.3931 H       1  LIG1        0.0279
     25 H          -6.1553    0.0376   -1.6853 H       1  LIG1        0.0279
     26 C          -4.7802   -3.6249    0.0442 C.ar    1  LIG1        0.0815
     27 C          -5.9721   -4.2062    0.4666 C.ar    1  LIG1        0.0819
     28 C          -5.8050   -5.6279    0.4643 C.ar    1  LIG1       -0.0057
     29 C          -4.5109   -5.8675    0.0411 C.ar    1  LIG1        0.0688
     30 N          -3.9292   -4.6486   -0.2154 N.ar    1  LIG1       -0.3506
     31 H          -3.0202   -4.5227   -0.6334 H       1  LIG1        0.1660
     32 N          -8.0848   -2.9740    1.2800 N.1     1  LIG1       -0.1908
     33 C          -7.1304   -3.5161    0.9105 C.1     1  LIG1        0.1016
     34 C          -6.8354   -6.6257    0.8889 C.3     1  LIG1       -0.0364
     35 H          -6.4185   -7.3663    1.5790 H       1  LIG1        0.0279
     36 H          -7.2677   -7.1578    0.0335 H       1  LIG1        0.0279
     37 H          -7.6605   -6.1293    1.4029 H       1  LIG1        0.0279
     38 C          -3.7034   -7.0591   -0.0847 C.ar    1  LIG1        0.0810
     39 C          -2.3149   -7.1756   -0.2122 C.ar    1  LIG1        0.0813
     40 C          -1.9834   -8.5674   -0.2925 C.ar    1  LIG1       -0.0151
     41 C          -3.1692   -9.2394   -0.2090 C.ar    1  LIG1        0.0064
     42 N          -4.1932   -8.3251   -0.0841 N.ar    1  LIG1       -0.3582
     43 H          -5.1728   -8.5536   -0.0361 H       1  LIG1        0.1654
     44 H          -3.3692  -10.2994   -0.2280 H       1  LIG1        0.0810
     45 N          -0.8006   -5.0930   -0.2774 N.1     1  LIG1       -0.1908
     46 C          -1.4309   -6.0687   -0.2430 C.1     1  LIG1        0.1016
     47 C          -0.6132   -9.1466   -0.4327 C.3     1  LIG1       -0.0371
     48 H           0.0269   -8.8660    0.4088 H       1  LIG1        0.0278
     49 H          -0.1235   -8.7952   -1.3456 H       1  LIG1        0.0278
     50 H          -0.6546  -10.2365   -0.4730 H       1  LIG1        0.0278
@<TRIPOS>BOND
     1    25    22    1
     2    20    21    3
     3    24    22    1
     4    49    47    1
     5    21    15    1
     6    22    16    1
     7    22    23    1
     8    31    30    1
     9    15    16   ar
    10    15    14   ar
    11    16    17   ar
    12     6     5    1
    13    50    47    1
    14    47    40    1
    15    47    48    1
    16    40    39   ar
    17    40    41   ar
    18    45    46    3
    19    46    39    1
    20    44    41    1
    21    30    29   ar
    22    30    26   ar
    23    39    38   ar
    24    41    42   ar
    25     5     4   ar
    26     5     1   ar
    27    12    10    1
    28    14     4    1
    29    14    18   ar
    30     7     1    1
    31    38    42   ar
    32    38    29    1
    33    42    43    1
    34    17    26    1
    35    17    18   ar
    36     4     3   ar
    37     1     2   ar
    38    36    34    1
    39    29    28   ar
    40    26    27   ar
    41    18    19    1
    42     3     2   ar
    43     3    10    1
    44     2     9    1
    45    28    27   ar
    46    28    34    1
    47    27    33    1
    48     9     8    3
    49    10    11    1
    50    10    13    1
    51    34    37    1
    52    34    35    1
    53    33    32    3
