@<TRIPOS>MOLECULE
mol_data/opt/cam/geoms/mol2/13di13ae12il6hi-.out
 52 55 0 0 0
SMALL
GASTEIGER

@<TRIPOS>ATOM
      1 C           1.2385   -0.1196   -0.2156 C.ar    1  LIG1        0.0199
      2 C           0.8698    1.0703    0.3736 C.ar    1  LIG1        0.0725
      3 C          -0.5577    1.0969    0.4773 C.ar    1  LIG1       -0.0064
      4 C          -1.0050   -0.0885   -0.0616 C.ar    1  LIG1        0.0671
      5 N           0.1014   -0.8151   -0.4672 N.ar    1  LIG1       -0.3581
      6 H           0.0582   -1.6785   -0.9842 H       1  LIG1        0.1654
      7 H           2.2159   -0.5022   -0.4635 H       1  LIG1        0.0820
      8 N           2.4675    2.9215    1.1947 N.1     1  LIG1       -0.1908
      9 C           1.7589    2.0853    0.8219 C.1     1  LIG1        0.1009
     10 C          -1.3759    2.1930    1.0780 C.3     1  LIG1       -0.0364
     11 H          -2.3537    1.8215    1.3917 H       1  LIG1        0.0279
     12 H          -1.5420    3.0085    0.3665 H       1  LIG1        0.0279
     13 H          -0.8724    2.6227    1.9474 H       1  LIG1        0.0279
     14 C          -2.3484   -0.6173   -0.2113 C.ar    1  LIG1        0.0649
     15 C          -3.5342   -0.0024   -0.5338 C.ar    1  LIG1       -0.0188
     16 C          -4.5552   -0.9971   -0.5560 C.ar    1  LIG1        0.0536
     17 C          -3.9524   -2.2073   -0.2321 C.ar    1  LIG1        0.0985
     18 N          -2.6177   -1.9575   -0.0435 N.ar    1  LIG1       -0.3496
     19 H          -1.9786   -2.6458    0.3236 H       1  LIG1        0.1661
     20 H          -3.6633    1.0397   -0.7815 H       1  LIG1        0.0652
     21 C          -5.9075   -0.7851   -0.9376 C.1     1  LIG1       -0.0674
     22 C          -7.0429   -0.5739   -1.2806 C.1     1  LIG1       -0.1138
     23 H          -8.0450   -0.3853   -1.5894 H       1  LIG1        0.1232
     24 C          -4.4479   -3.5540   -0.0831 C.ar    1  LIG1        0.1595
     25 C          -5.6152   -4.1253    0.3294 C.ar    1  LIG1        0.0391
     26 C          -5.3662   -5.5354    0.3051 C.ar    1  LIG1        0.1693
     27 C          -4.0741   -5.7480   -0.0913 C.ar    1  LIG1        0.1807
     28 O          -3.5104   -4.5252   -0.3322 O.2     1  LIG1       -0.4491
     29 C          -6.8739   -3.4810    0.8067 C.3     1  LIG1       -0.0325
     30 H          -7.3716   -4.1399    1.5223 H       1  LIG1        0.0280
     31 H          -7.5679   -3.2786   -0.0138 H       1  LIG1        0.0280
     32 H          -6.6688   -2.5250    1.2908 H       1  LIG1        0.0280
     33 O          -6.2610   -6.4922    0.6861 O.3     1  LIG1       -0.4910
     34 C          -7.2384   -6.7978   -0.3032 C.3     1  LIG1        0.0790
     35 H          -7.8979   -7.5499    0.1308 H       1  LIG1        0.0660
     36 H          -7.8256   -5.9124   -0.5689 H       1  LIG1        0.0660
     37 H          -6.7680   -7.1994   -1.2070 H       1  LIG1        0.0660
     38 C          -2.0437   -6.9740   -0.9907 C.ar    1  LIG1        0.1270
     39 C          -3.2617   -6.9455   -0.2611 C.ar    1  LIG1        0.0606
     40 C          -3.6921   -8.1475    0.2976 C.ar    1  LIG1       -0.0433
     41 C          -2.9636   -9.3227    0.1418 C.ar    1  LIG1       -0.0315
     42 C          -1.7943   -9.2229   -0.6010 C.ar    1  LIG1        0.0326
     43 N          -1.3464   -8.0979   -1.1512 N.ar    1  LIG1       -0.2397
     44 H          -4.6170   -8.1499    0.8647 H       1  LIG1        0.0629
     45 H          -1.1798  -10.1064   -0.7672 H       1  LIG1        0.0833
     46 N          -1.4778   -5.8511   -1.5563 N.pl3   1  LIG1       -0.3426
     47 H          -0.7791   -6.0778   -2.2482 H       1  LIG1        0.1437
     48 H          -2.0863   -5.0764   -1.7648 H       1  LIG1        0.1437
     49 C          -3.4137  -10.6250    0.7445 C.3     1  LIG1       -0.0383
     50 H          -2.7133  -11.4290    0.5065 H       1  LIG1        0.0278
     51 H          -4.3988  -10.9226    0.3723 H       1  LIG1        0.0278
     52 H          -3.4850  -10.5599    1.8346 H       1  LIG1        0.0278
@<TRIPOS>BOND
     1    47    46    1
     2    48    46    1
     3    23    22    1
     4    46    38    1
     5    22    21    3
     6    37    34    1
     7    43    38   ar
     8    43    42   ar
     9    38    39   ar
    10     6     5    1
    11    21    16    1
    12    20    15    1
    13    45    42    1
    14    42    41   ar
    15    36    34    1
    16    16    15   ar
    17    16    17   ar
    18    15    14   ar
    19     5     1   ar
    20     5     4   ar
    21     7     1    1
    22    28    27   ar
    23    28    24   ar
    24    34    35    1
    25    34    33    1
    26    39    27    1
    27    39    40   ar
    28    17    24    1
    29    17    18   ar
    30     1     2   ar
    31    14     4    1
    32    14    18   ar
    33    27    26   ar
    34    24    25   ar
    35     4     3   ar
    36    18    19    1
    37    31    29    1
    38    41    40   ar
    39    41    49    1
    40    40    44    1
    41    26    25   ar
    42    26    33    1
    43    25    29    1
    44    12    10    1
    45    51    49    1
    46     2     3   ar
    47     2     9    1
    48     3    10    1
    49    50    49    1
    50    49    52    1
    51    29    32    1
    52    29    30    1
    53     9     8    3
    54    10    11    1
    55    10    13    1
