@<TRIPOS>MOLECULE
mol_data/opt/cam/geoms/mol2/13di13di-13di-13di-.out
 50 53 0 0 0
SMALL
GASTEIGER

@<TRIPOS>ATOM
      1 C           1.3137   -0.3664   -0.4695 C.ar    1  LIG1        0.0199
      2 C           0.8860    0.8928   -0.8410 C.ar    1  LIG1        0.0725
      3 C          -0.5345    0.9310   -0.7216 C.ar    1  LIG1       -0.0064
      4 C          -0.9187   -0.3221   -0.2767 C.ar    1  LIG1        0.0684
      5 N           0.2223   -1.0864   -0.1341 N.ar    1  LIG1       -0.3581
      6 H           0.2359   -2.0449    0.1886 H       1  LIG1        0.1654
      7 H           2.3091   -0.7794   -0.4253 H       1  LIG1        0.0820
      8 N           2.3532    2.8710   -1.6051 N.1     1  LIG1       -0.1908
      9 C           1.7102    1.9715   -1.2620 C.1     1  LIG1        0.1009
     10 C          -1.3917    2.1186   -1.0287 C.3     1  LIG1       -0.0364
     11 H          -2.0177    2.4037   -0.1760 H       1  LIG1        0.0279
     12 H          -2.0422    1.9460   -1.8947 H       1  LIG1        0.0279
     13 H          -0.7690    2.9811   -1.2724 H       1  LIG1        0.0279
     14 C          -2.2280   -0.8577    0.0241 C.ar    1  LIG1        0.0815
     15 C          -2.6129   -2.0965    0.5333 C.ar    1  LIG1        0.0819
     16 C          -4.0372   -2.1372    0.6308 C.ar    1  LIG1       -0.0057
     17 C          -4.4827   -0.9183    0.1762 C.ar    1  LIG1        0.0688
     18 N          -3.3771   -0.1543   -0.1702 N.ar    1  LIG1       -0.3506
     19 H          -3.4267    0.7138   -0.6786 H       1  LIG1        0.1660
     20 N          -0.9175   -3.9191    1.1939 N.1     1  LIG1       -0.1908
     21 C          -1.7107   -3.1223    0.9089 C.1     1  LIG1        0.1016
     22 C          -4.8466   -3.2782    1.1543 C.3     1  LIG1       -0.0364
     23 H          -4.2900   -3.8310    1.9145 H       1  LIG1        0.0279
     24 H          -5.1132   -3.9763    0.3559 H       1  LIG1        0.0279
     25 H          -5.7799   -2.9258    1.5982 H       1  LIG1        0.0279
     26 C          -5.8227   -0.3739    0.0654 C.ar    1  LIG1        0.0815
     27 C          -6.9906   -0.9150   -0.4545 C.ar    1  LIG1        0.0819
     28 C          -8.0361    0.0519   -0.3419 C.ar    1  LIG1       -0.0057
     29 C          -7.4692    1.1644    0.2395 C.ar    1  LIG1        0.0688
     30 N          -6.1342    0.8883    0.4795 N.ar    1  LIG1       -0.3506
     31 H          -5.4824    1.5282    0.9050 H       1  LIG1        0.1660
     32 N          -7.2124   -3.2646   -1.4931 N.1     1  LIG1       -0.1908
     33 C          -7.1097   -2.2080   -1.0307 C.1     1  LIG1        0.1016
     34 C          -9.4532   -0.1329   -0.7767 C.3     1  LIG1       -0.0364
     35 H          -9.7510   -1.1796   -0.6846 H       1  LIG1        0.0279
     36 H          -9.5915    0.1657   -1.8197 H       1  LIG1        0.0279
     37 H         -10.1307    0.4752   -0.1737 H       1  LIG1        0.0279
     38 C          -8.0480    2.4437    0.6112 C.ar    1  LIG1        0.0810
     39 C          -8.8514    3.3205   -0.1016 C.ar    1  LIG1        0.0813
     40 C          -9.1395    4.4508    0.7297 C.ar    1  LIG1       -0.0151
     41 C          -8.4956    4.2224    1.9140 C.ar    1  LIG1        0.0064
     42 N          -7.8321    3.0203    1.8323 N.ar    1  LIG1       -0.3582
     43 H          -7.3938    2.5508    2.6084 H       1  LIG1        0.1654
     44 H          -8.4559    4.8228    2.8099 H       1  LIG1        0.0810
     45 N          -9.6040    3.0110   -2.5483 N.1     1  LIG1       -0.1908
     46 C          -9.2633    3.1465   -1.4499 C.1     1  LIG1        0.1016
     47 C          -9.9651    5.6376    0.3518 C.3     1  LIG1       -0.0371
     48 H         -10.9856    5.3437    0.0908 H       1  LIG1        0.0278
     49 H          -9.5463    6.1534   -0.5170 H       1  LIG1        0.0278
     50 H         -10.0198    6.3529    1.1748 H       1  LIG1        0.0278
@<TRIPOS>BOND
     1    45    46    3
     2    12    10    1
     3    36    34    1
     4     8     9    3
     5    32    33    3
     6    46    39    1
     7    13    10    1
     8     9     2    1
     9    33    27    1
    10    10     3    1
    11    10    11    1
    12     2     3   ar
    13     2     1   ar
    14    34    35    1
    15    34    28    1
    16    34    37    1
    17     3     4   ar
    18    19    18    1
    19    49    47    1
    20     1     7    1
    21     1     5   ar
    22    27    28   ar
    23    27    26   ar
    24    28    29   ar
    25     4     5   ar
    26     4    14    1
    27    18    14   ar
    28    18    17   ar
    29     5     6    1
    30    39    38   ar
    31    39    40   ar
    32    14    15   ar
    33    26    17    1
    34    26    30   ar
    35    48    47    1
    36    17    16   ar
    37    29    30   ar
    38    29    38    1
    39    47    40    1
    40    47    50    1
    41    24    22    1
    42    30    31    1
    43    15    16   ar
    44    15    21    1
    45    38    42   ar
    46    16    22    1
    47    40    41   ar
    48    21    20    3
    49    22    25    1
    50    22    23    1
    51    42    41   ar
    52    42    43    1
    53    41    44    1
