@<TRIPOS>MOLECULE
mol_data/opt/cam/geoms/mol2/13di13di-4di13di.out
 52 55 0 0 0
SMALL
GASTEIGER

@<TRIPOS>ATOM
      1 C           1.4054   -0.4912   -0.0745 C.ar    1  LIG1        0.0199
      2 C           1.0507    0.7615   -0.5356 C.ar    1  LIG1        0.0725
      3 C          -0.3724    0.8518   -0.5285 C.ar    1  LIG1       -0.0064
      4 C          -0.8319   -0.3666   -0.0577 C.ar    1  LIG1        0.0684
      5 N           0.2681   -1.1597    0.2085 N.ar    1  LIG1       -0.3581
      6 H           0.2249   -2.1044    0.5658 H       1  LIG1        0.1654
      7 H           2.3798   -0.9321    0.0645 H       1  LIG1        0.0820
      8 N           2.6570    2.6281   -1.3016 N.1     1  LIG1       -0.1908
      9 C           1.9469    1.7828   -0.9529 C.1     1  LIG1        0.1009
     10 C          -1.1634    2.0466   -0.9600 C.3     1  LIG1       -0.0364
     11 H          -1.7642    2.4675   -0.1461 H       1  LIG1        0.0279
     12 H          -1.8337    1.8102   -1.7942 H       1  LIG1        0.0279
     13 H          -0.4937    2.8367   -1.3040 H       1  LIG1        0.0279
     14 C          -2.1767   -0.8520    0.1576 C.ar    1  LIG1        0.0814
     15 C          -2.6382   -2.0954    0.5926 C.ar    1  LIG1        0.0819
     16 C          -4.0612   -2.0640    0.6437 C.ar    1  LIG1       -0.0071
     17 C          -4.4374   -0.7984    0.2342 C.ar    1  LIG1        0.0524
     18 N          -3.2796   -0.0929   -0.0513 N.ar    1  LIG1       -0.3517
     19 H          -3.2496    0.8802   -0.3124 H       1  LIG1        0.1660
     20 N          -1.0839   -4.0536    1.2100 N.1     1  LIG1       -0.1908
     21 C          -1.8103   -3.1910    0.9377 C.1     1  LIG1        0.1016
     22 C          -4.9113   -3.2029    1.1111 C.3     1  LIG1       -0.0365
     23 H          -4.3540   -3.8257    1.8143 H       1  LIG1        0.0279
     24 H          -5.2189   -3.8521    0.2842 H       1  LIG1        0.0279
     25 H          -5.8137   -2.8509    1.6147 H       1  LIG1        0.0279
     26 C          -6.0643    1.1465    0.3110 C.ar    1  LIG1        0.0615
     27 C          -7.3637    1.6277    0.1681 C.ar    1  LIG1       -0.0343
     28 C          -5.7732   -0.2167    0.0928 C.ar    1  LIG1        0.0162
     29 C          -8.4200    0.7902   -0.1826 C.ar    1  LIG1        0.0037
     30 H          -7.5504    2.6811    0.3394 H       1  LIG1        0.0637
     31 C          -6.8468   -1.0345   -0.2697 C.ar    1  LIG1       -0.0478
     32 C          -8.1531   -0.5759   -0.4000 C.ar    1  LIG1       -0.0406
     33 H          -6.6513   -2.0800   -0.4726 H       1  LIG1        0.0627
     34 N          -4.1966    2.8377    0.9144 N.1     1  LIG1       -0.1908
     35 C          -5.0410    2.0852    0.6674 C.1     1  LIG1        0.0998
     36 C          -9.2328   -1.5639   -0.7605 C.3     1  LIG1       -0.0391
     37 H          -8.9258   -2.5775   -0.4977 H       1  LIG1        0.0278
     38 H          -9.4403   -1.5676   -1.8368 H       1  LIG1        0.0278
     39 H         -10.1687   -1.3446   -0.2435 H       1  LIG1        0.0278
     40 C          -9.7645    1.3741   -0.2904 C.ar    1  LIG1        0.0646
     41 C         -10.4154    2.2775    0.5403 C.ar    1  LIG1        0.0798
     42 C         -11.7010    2.5670   -0.0175 C.ar    1  LIG1       -0.0152
     43 C         -11.7848    1.8336   -1.1688 C.ar    1  LIG1        0.0063
     44 N         -10.6234    1.1157   -1.3182 N.ar    1  LIG1       -0.3594
     45 H         -10.3978    0.5458   -2.1164 H       1  LIG1        0.1654
     46 H         -12.5817    1.7646   -1.8933 H       1  LIG1        0.0810
     47 N          -9.5045    3.2472    2.7495 N.1     1  LIG1       -0.1908
     48 C          -9.9068    2.8033    1.7584 C.1     1  LIG1        0.1015
     49 C         -12.7317    3.4796    0.5635 C.3     1  LIG1       -0.0371
     50 H         -13.6155    3.5271   -0.0758 H       1  LIG1        0.0278
     51 H         -12.3427    4.4952    0.6791 H       1  LIG1        0.0278
     52 H         -13.0492    3.1420    1.5542 H       1  LIG1        0.0278
@<TRIPOS>BOND
     1    45    44    1
     2    46    43    1
     3    38    36    1
     4    12    10    1
     5    44    43   ar
     6    44    40   ar
     7    13    10    1
     8     8     9    3
     9    43    42   ar
    10    10     3    1
    11    10    11    1
    12     9     2    1
    13    36    37    1
    14    36    32    1
    15    36    39    1
    16     2     3   ar
    17     2     1   ar
    18     3     4   ar
    19    33    31    1
    20    32    31   ar
    21    32    29   ar
    22    19    18    1
    23    40    29    1
    24    40    41   ar
    25    31    28   ar
    26    29    27   ar
    27    50    49    1
    28     1     7    1
    29     1     5   ar
    30     4    14    1
    31     4     5   ar
    32    18    14   ar
    33    18    17   ar
    34    42    41   ar
    35    42    49    1
    36    28    17    1
    37    28    26   ar
    38    14    15   ar
    39    27    26   ar
    40    27    30    1
    41     5     6    1
    42    17    16   ar
    43    24    22    1
    44    26    35    1
    45    41    48    1
    46    49    51    1
    47    49    52    1
    48    15    16   ar
    49    15    21    1
    50    16    22    1
    51    35    34    3
    52    21    20    3
    53    22    25    1
    54    22    23    1
    55    48    47    3
