@<TRIPOS>MOLECULE
mol_data/opt/cam/geoms/mol2/13di13di13di.out
 38 40 0 0 0
SMALL
GASTEIGER

@<TRIPOS>ATOM
      1 C           0.9887   -0.0877   -1.3410 C.ar    1  LIG1        0.0199
      2 C           0.8648    0.9498   -0.4419 C.ar    1  LIG1        0.0725
      3 C          -0.4480    0.9007    0.1252 C.ar    1  LIG1       -0.0064
      4 C          -1.0745   -0.1778   -0.4583 C.ar    1  LIG1        0.0684
      5 N          -0.1803   -0.7730   -1.3348 N.ar    1  LIG1       -0.3581
      6 H          -0.4255   -1.4949   -1.9936 H       1  LIG1        0.1654
      7 H           1.8189   -0.3691   -1.9695 H       1  LIG1        0.0820
      8 N           2.7055    2.6493    0.1728 N.1     1  LIG1       -0.1908
      9 C           1.8833    1.8860   -0.1121 C.1     1  LIG1        0.1009
     10 C          -0.9950    1.8318    1.1576 C.3     1  LIG1       -0.0364
     11 H          -1.7452    1.3359    1.7774 H       1  LIG1        0.0279
     12 H          -1.4784    2.6972    0.6955 H       1  LIG1        0.0279
     13 H          -0.1971    2.1998    1.8064 H       1  LIG1        0.0279
     14 C          -2.4022   -0.7309   -0.2566 C.ar    1  LIG1        0.0815
     15 C          -3.6521   -0.1283   -0.2409 C.ar    1  LIG1        0.0819
     16 C          -4.6446   -1.1319   -0.0201 C.ar    1  LIG1       -0.0057
     17 C          -3.9662   -2.3258    0.0863 C.ar    1  LIG1        0.0688
     18 N          -2.6146   -2.0633   -0.0566 N.ar    1  LIG1       -0.3506
     19 H          -1.8856   -2.7578   -0.0166 H       1  LIG1        0.1660
     20 N          -4.1037    2.3869   -0.5853 N.1     1  LIG1       -0.1908
     21 C          -3.8972    1.2575   -0.4360 C.1     1  LIG1        0.1016
     22 C          -6.1181   -0.9043    0.0740 C.3     1  LIG1       -0.0364
     23 H          -6.5905   -1.6533    0.7131 H       1  LIG1        0.0279
     24 H          -6.5944   -0.9699   -0.9084 H       1  LIG1        0.0279
     25 H          -6.3293    0.0856    0.4841 H       1  LIG1        0.0279
     26 C          -4.4453   -3.6747    0.3327 C.ar    1  LIG1        0.0810
     27 C          -5.4678   -4.4008   -0.2588 C.ar    1  LIG1        0.0813
     28 C          -5.5202   -5.6942    0.3547 C.ar    1  LIG1       -0.0151
     29 C          -4.5238   -5.7089    1.2907 C.ar    1  LIG1        0.0064
     30 N          -3.8744   -4.4966    1.2645 N.ar    1  LIG1       -0.3582
     31 H          -3.1928   -4.1931    1.9414 H       1  LIG1        0.1654
     32 H          -4.2242   -6.4888    1.9741 H       1  LIG1        0.0810
     33 N          -6.9488   -3.5928   -2.2086 N.1     1  LIG1       -0.1908
     34 C          -6.2811   -3.9513   -1.3330 C.1     1  LIG1        0.1016
     35 C          -6.4701   -6.7959    0.0130 C.3     1  LIG1       -0.0371
     36 H          -6.2859   -7.6761    0.6322 H       1  LIG1        0.0278
     37 H          -6.3741   -7.0938   -1.0351 H       1  LIG1        0.0278
     38 H          -7.5078   -6.4862    0.1659 H       1  LIG1        0.0278
@<TRIPOS>BOND
     1    33    34    3
     2     6     5    1
     3     7     1    1
     4     1     5   ar
     5     1     2   ar
     6     5     4   ar
     7    34    27    1
     8    37    35    1
     9    24    22    1
    10    20    21    3
    11     4    14    1
    12     4     3   ar
    13     2     9    1
    14     2     3   ar
    15    21    15    1
    16    27    26   ar
    17    27    28   ar
    18    14    15   ar
    19    14    18   ar
    20    15    16   ar
    21     9     8    3
    22    18    19    1
    23    18    17   ar
    24    16    22    1
    25    16    17   ar
    26    35    38    1
    27    35    28    1
    28    35    36    1
    29    22    25    1
    30    22    23    1
    31    17    26    1
    32     3    10    1
    33    26    30   ar
    34    28    29   ar
    35    12    10    1
    36    10    11    1
    37    10    13    1
    38    30    29   ar
    39    30    31    1
    40    29    32    1
