@<TRIPOS>MOLECULE
mol_data/opt/cam/geoms/mol2/13di4ed4ii-12dh12hf-12if12af-4ie-.out
 97 104 0 0 0
SMALL
GASTEIGER

@<TRIPOS>ATOM
      1 C           0.2512    3.0235    3.0173 C.ar    1  LIG1        0.0199
      2 C          -0.3666    4.2297    2.7645 C.ar    1  LIG1        0.0725
      3 C          -1.6771    3.9645    2.2535 C.ar    1  LIG1       -0.0078
      4 C          -1.8032    2.5939    2.2114 C.ar    1  LIG1        0.0519
      5 N          -0.6282    2.0461    2.6941 N.ar    1  LIG1       -0.3592
      6 H          -0.4315    1.0583    2.7152 H       1  LIG1        0.1654
      7 H           1.2388    2.8108    3.3951 H       1  LIG1        0.0820
      8 N           0.6351    6.5714    3.1720 N.1     1  LIG1       -0.1908
      9 C           0.1950    5.5158    2.9922 C.1     1  LIG1        0.1009
     10 C          -2.6944    5.0003    1.9022 C.3     1  LIG1       -0.0365
     11 H          -3.7010    4.5789    1.8869 H       1  LIG1        0.0279
     12 H          -2.5039    5.4272    0.9136 H       1  LIG1        0.0279
     13 H          -2.6752    5.8183    2.6266 H       1  LIG1        0.0279
     14 C          -3.5863    1.8128    0.6001 C.ar    1  LIG1        0.0344
     15 C          -4.6552    0.9566    0.3182 C.ar    1  LIG1       -0.0367
     16 C          -2.9260    1.7204    1.8431 C.ar    1  LIG1        0.0152
     17 C          -5.0858   -0.0179    1.2113 C.ar    1  LIG1        0.0009
     18 H          -5.1400    1.0378   -0.6476 H       1  LIG1        0.0636
     19 C          -3.3511    0.7427    2.7389 C.ar    1  LIG1       -0.0335
     20 C          -4.4045   -0.1207    2.4366 C.ar    1  LIG1        0.0602
     21 H          -2.8722    0.6648    3.7088 H       1  LIG1        0.0637
     22 C          -3.1614    2.7274   -0.4149 C.1     1  LIG1       -0.0690
     23 C          -2.8301    3.4664   -1.3052 C.1     1  LIG1       -0.1139
     24 H          -2.5255    4.1229   -2.0883 H       1  LIG1        0.1232
     25 N          -5.0568   -1.8597    4.2454 N.1     1  LIG1       -0.1908
     26 C          -4.7867   -1.0917    3.4239 C.1     1  LIG1        0.0998
     27 C          -7.4973   -0.4512    0.6044 C.ar    1  LIG1       -0.0420
     28 C          -8.4734   -1.3755    0.2559 C.ar    1  LIG1       -0.0473
     29 C          -6.2030   -0.9324    0.8502 C.ar    1  LIG1       -0.0134
     30 C          -8.2118   -2.7436    0.1285 C.ar    1  LIG1        0.0218
     31 H          -9.4835   -1.0163    0.0937 H       1  LIG1        0.0627
     32 C          -5.9461   -2.2984    0.7415 C.ar    1  LIG1       -0.0501
     33 C          -6.9146   -3.2294    0.3821 C.ar    1  LIG1       -0.0392
     34 H          -4.9382   -2.6545    0.9313 H       1  LIG1        0.0627
     35 C          -7.8628    1.0053    0.7370 C.3     1  LIG1       -0.0391
     36 H          -8.9459    1.1229    0.8013 H       1  LIG1        0.0278
     37 H          -7.5234    1.5911   -0.1227 H       1  LIG1        0.0278
     38 H          -7.4190    1.4541    1.6288 H       1  LIG1        0.0278
     39 C          -6.5261   -4.6802    0.2651 C.3     1  LIG1       -0.0390
     40 H          -5.4423   -4.7850    0.3393 H       1  LIG1        0.0278
     41 H          -6.8471   -5.1119   -0.6858 H       1  LIG1        0.0278
     42 H          -6.9827   -5.2851    1.0512 H       1  LIG1        0.0278
     43 C          -9.3148   -3.6128   -0.2716 C.ar    1  LIG1        0.1553
     44 C         -10.4468   -3.3958   -1.0253 C.ar    1  LIG1        0.1187
     45 C         -11.1614   -4.6396   -1.0803 C.ar    1  LIG1        0.0924
     46 C         -10.4314   -5.5240   -0.3400 C.ar    1  LIG1        0.1943
     47 O          -9.3099   -4.8985    0.1331 O.2     1  LIG1       -0.4484
     48 N         -11.2402   -1.2916   -2.2797 N.1     1  LIG1       -0.1907
     49 C         -10.8509   -2.2181   -1.7032 C.1     1  LIG1        0.1048
     50 N         -12.3581   -4.9080   -1.7704 N.pl3   1  LIG1       -0.3539
     51 H         -12.7792   -4.0604   -2.1345 H       1  LIG1        0.1425
     52 H         -12.2165   -5.5587   -2.5367 H       1  LIG1        0.1425
     53 C         -10.6626   -6.8908    0.0223 C.ar    1  LIG1        0.1968
     54 C         -11.8340   -7.5892    0.1803 C.ar    1  LIG1        0.1170
     55 C         -11.4289   -8.9188    0.5025 C.ar    1  LIG1        0.1877
     56 C         -10.0651   -8.9369    0.5547 C.ar    1  LIG1        0.2141
     57 O          -9.5804   -7.7009    0.2478 O.2     1  LIG1       -0.4428
     58 N         -13.1374   -7.1458    0.1219 N.pl3   1  LIG1       -0.3521
     59 H         -13.2834   -6.3299   -0.4674 H       1  LIG1        0.1425
     60 H         -13.8115   -7.8855   -0.0132 H       1  LIG1        0.1425
     61 O         -12.3290   -9.9180    0.6916 O.3     1  LIG1       -0.5019
     62 H         -11.8676  -10.7662    0.6757 H       1  LIG1        0.2924
     63 C          -9.1415  -10.0042    0.8458 C.ar    1  LIG1        0.1810
     64 C          -9.1964  -11.0332    1.7491 C.ar    1  LIG1        0.0407
     65 C          -8.0136  -11.7920    1.5094 C.ar    1  LIG1        0.1694
     66 C          -7.3152  -11.1701    0.5141 C.ar    1  LIG1        0.2122
     67 O          -8.0127  -10.0761    0.0903 O.2     1  LIG1       -0.4444
     68 C         -10.2089  -11.3115    2.8126 C.3     1  LIG1       -0.0325
     69 H          -9.7207  -11.4084    3.7859 H       1  LIG1        0.0280
     70 H         -10.7356  -12.2545    2.6322 H       1  LIG1        0.0280
     71 H         -10.9468  -10.5107    2.8816 H       1  LIG1        0.0280
     72 O          -7.7006  -12.9175    2.1925 O.3     1  LIG1       -0.5029
     73 H          -6.9666  -13.3608    1.7452 H       1  LIG1        0.2923
     74 C          -6.0493  -11.4984   -0.0804 C.ar    1  LIG1        0.1779
     75 C          -4.9702  -12.1677    0.4254 C.ar    1  LIG1        0.0296
     76 C          -4.0461  -12.2711   -0.6521 C.ar    1  LIG1        0.1633
     77 C          -4.6139  -11.6786   -1.7440 C.ar    1  LIG1        0.1773
     78 O          -5.8472  -11.1910   -1.3831 O.2     1  LIG1       -0.4478
     79 H          -4.8015  -12.4662    1.4494 H       1  LIG1        0.0693
     80 O          -2.8117  -12.8228   -0.5276 O.3     1  LIG1       -0.5032
     81 H          -2.2467  -12.4821   -1.2324 H       1  LIG1        0.2923
     82 C          -3.5485  -12.3736   -3.9063 C.ar    1  LIG1       -0.0396
     83 C          -3.0682  -11.9967   -5.1616 C.ar    1  LIG1       -0.0570
     84 C          -4.1260  -11.3798   -3.0916 C.ar    1  LIG1        0.0250
     85 C          -3.1766  -10.6976   -5.6277 C.ar    1  LIG1       -0.0460
     86 H          -2.6190  -12.7529   -5.7981 H       1  LIG1        0.0621
     87 C          -4.2530  -10.0740   -3.5708 C.ar    1  LIG1       -0.0353
     88 C          -3.7884   -9.7194   -4.8364 C.ar    1  LIG1        0.0254
     89 H          -4.7192   -9.3235   -2.9429 H       1  LIG1        0.0637
     90 H          -2.8028  -10.4328   -6.6102 H       1  LIG1        0.0630
     91 C          -3.5079  -13.8220   -3.4927 C.3     1  LIG1       -0.0390
     92 H          -3.1631  -14.4469   -4.3184 H       1  LIG1        0.0278
     93 H          -4.5039  -14.1642   -3.1974 H       1  LIG1        0.0278
     94 H          -2.8555  -14.0091   -2.6360 H       1  LIG1        0.0278
     95 C          -3.9241   -8.3748   -5.3113 C.1     1  LIG1       -0.0696
     96 C          -4.0359   -7.2459   -5.7138 C.1     1  LIG1       -0.1139
     97 H          -4.1374   -6.2464   -6.0689 H       1  LIG1        0.1232
@<TRIPOS>BOND
     1    90    85    1
     2    97    96    1
     3    86    83    1
     4    96    95    3
     5    85    83   ar
     6    85    88   ar
     7    95    88    1
     8    83    82   ar
     9    88    87   ar
    10    92    91    1
    11    82    91    1
    12    82    84   ar
    13    87    84   ar
    14    87    89    1
    15    91    93    1
    16    91    94    1
    17    84    77    1
    18    52    50    1
    19    48    49    3
    20    51    50    1
    21    24    23    1
    22    50    45    1
    23    77    78   ar
    24    77    76   ar
    25    49    44    1
    26    78    74   ar
    27    23    22    3
    28    81    80    1
    29    45    44   ar
    30    45    46   ar
    31    44    43   ar
    32    41    39    1
    33    76    80    1
    34    76    75   ar
    35    18    15    1
    36    59    58    1
    37    22    14    1
    38    46    53    1
    39    46    47   ar
    40    43    30    1
    41    43    47   ar
    42    37    35    1
    43    74    75   ar
    44    74    66    1
    45    60    58    1
    46    53    54   ar
    47    53    57   ar
    48    67    66   ar
    49    67    63   ar
    50    31    28    1
    51    58    54    1
    52    30    28   ar
    53    30    33   ar
    54    54    55   ar
    55    57    56   ar
    56    28    27   ar
    57    39    40    1
    58    39    33    1
    59    39    42    1
    60    15    14   ar
    61    15    17   ar
    62    33    32   ar
    63    75    79    1
    64    55    56   ar
    65    55    61    1
    66    66    65   ar
    67    56    63    1
    68    14    16   ar
    69    27    35    1
    70    27    29   ar
    71    62    61    1
    72    35    36    1
    73    35    38    1
    74    32    29   ar
    75    32    34    1
    76    63    64   ar
    77    29    17    1
    78    12    10    1
    79    17    20   ar
    80    65    64   ar
    81    65    72    1
    82    73    72    1
    83    64    68    1
    84    16     4    1
    85    16    19   ar
    86    11    10    1
    87    10     3    1
    88    10    13    1
    89     4     3   ar
    90     4     5   ar
    91     3     2   ar
    92    20    19   ar
    93    20    26    1
    94    70    68    1
    95     5     6    1
    96     5     1   ar
    97    19    21    1
    98     2     9    1
    99     2     1   ar
   100    68    71    1
   101    68    69    1
   102     9     8    3
   103     1     7    1
   104    26    25    3
