@<TRIPOS>MOLECULE
mol_data/opt/cam/geoms/mol2/13di13di-13di-13di.out
 50 53 0 0 0
SMALL
GASTEIGER

@<TRIPOS>ATOM
      1 C           1.2505   -0.2494   -0.0294 C.ar    1  LIG1        0.0199
      2 C           0.8141    0.9947   -0.4411 C.ar    1  LIG1        0.0725
      3 C          -0.6118    0.9817   -0.4623 C.ar    1  LIG1       -0.0064
      4 C          -0.9893   -0.2878   -0.0575 C.ar    1  LIG1        0.0684
      5 N           0.1599   -1.0110    0.1971 N.ar    1  LIG1       -0.3581
      6 H           0.1776   -1.9710    0.5140 H       1  LIG1        0.1654
      7 H           2.2517   -0.6249    0.1116 H       1  LIG1        0.0820
      8 N           2.2926    3.0107   -1.0744 N.1     1  LIG1       -0.1908
      9 C           1.6408    2.0982   -0.7867 C.1     1  LIG1        0.1009
     10 C          -1.4782    2.1360   -0.8605 C.3     1  LIG1       -0.0364
     11 H          -2.1610    2.4520   -0.0645 H       1  LIG1        0.0279
     12 H          -2.0723    1.9103   -1.7543 H       1  LIG1        0.0279
     13 H          -0.8611    3.0017   -1.1072 H       1  LIG1        0.0279
     14 C          -2.3000   -0.8737    0.1100 C.ar    1  LIG1        0.0815
     15 C          -2.6891   -2.1491    0.5214 C.ar    1  LIG1        0.0819
     16 C          -4.1143   -2.2255    0.5156 C.ar    1  LIG1       -0.0057
     17 C          -4.5567   -0.9924    0.0917 C.ar    1  LIG1        0.0688
     18 N          -3.4477   -0.1906   -0.1366 N.ar    1  LIG1       -0.3506
     19 H          -3.4798    0.7363   -0.5321 H       1  LIG1        0.1660
     20 N          -1.0033   -3.9706    1.2089 N.1     1  LIG1       -0.1908
     21 C          -1.7915   -3.1753    0.9058 C.1     1  LIG1        0.1016
     22 C          -4.9253   -3.4064    0.9392 C.3     1  LIG1       -0.0364
     23 H          -4.3729   -4.0106    1.6622 H       1  LIG1        0.0279
     24 H          -5.1816   -4.0466    0.0908 H       1  LIG1        0.0279
     25 H          -5.8643   -3.0936    1.4008 H       1  LIG1        0.0279
     26 C          -5.8834   -0.4359   -0.0636 C.ar    1  LIG1        0.0815
     27 C          -7.0844   -0.9626   -0.5285 C.ar    1  LIG1        0.0819
     28 C          -8.0696    0.0705   -0.5076 C.ar    1  LIG1       -0.0057
     29 C          -7.4355    1.2037   -0.0367 C.ar    1  LIG1        0.0688
     30 N          -6.1228    0.8710    0.2252 N.ar    1  LIG1       -0.3506
     31 H          -5.4524    1.4929    0.6548 H       1  LIG1        0.1660
     32 N          -7.4812   -3.3309   -1.4646 N.1     1  LIG1       -0.1908
     33 C          -7.2885   -2.2717   -1.0373 C.1     1  LIG1        0.1016
     34 C          -9.4887   -0.0781   -0.9578 C.3     1  LIG1       -0.0364
     35 H          -9.6244   -1.0245   -1.4844 H       1  LIG1        0.0279
     36 H          -9.7811    0.7224   -1.6447 H       1  LIG1        0.0279
     37 H         -10.1897   -0.0830   -0.1145 H       1  LIG1        0.0279
     38 C          -7.9009    2.5584    0.1609 C.ar    1  LIG1        0.0810
     39 C          -7.1799    3.7319    0.3825 C.ar    1  LIG1        0.0813
     40 C          -8.1042    4.8180    0.5085 C.ar    1  LIG1       -0.0151
     41 C          -9.3464    4.2696    0.3584 C.ar    1  LIG1        0.0064
     42 N          -9.2135    2.9150    0.1495 N.ar    1  LIG1       -0.3582
     43 H          -9.9769    2.2680    0.0413 H       1  LIG1        0.1654
     44 H         -10.3190    4.7360    0.3828 H       1  LIG1        0.0810
     45 N          -4.6092    3.7241    0.5149 N.1     1  LIG1       -0.1908
     46 C          -5.7668    3.7838    0.4550 C.1     1  LIG1        0.1016
     47 C          -7.7600    6.2519    0.7490 C.3     1  LIG1       -0.0371
     48 H          -8.6621    6.8635    0.8086 H       1  LIG1        0.0278
     49 H          -7.1349    6.6523   -0.0545 H       1  LIG1        0.0278
     50 H          -7.2061    6.3769    1.6840 H       1  LIG1        0.0278
@<TRIPOS>BOND
     1    12    10    1
     2    36    34    1
     3    35    34    1
     4    32    33    3
     5    13    10    1
     6     8     9    3
     7    33    27    1
     8    34    28    1
     9    34    37    1
    10    10     3    1
    11    10    11    1
    12     9     2    1
    13    19    18    1
    14    27    28   ar
    15    27    26   ar
    16    28    29   ar
    17     3     2   ar
    18     3     4   ar
    19     2     1   ar
    20    18    17   ar
    21    18    14   ar
    22    26    17    1
    23    26    30   ar
    24     4    14    1
    25     4     5   ar
    26    49    47    1
    27    29    38    1
    28    29    30   ar
    29     1     7    1
    30     1     5   ar
    31    43    42    1
    32    24    22    1
    33    17    16   ar
    34    14    15   ar
    35    42    38   ar
    36    42    41   ar
    37    38    39   ar
    38     5     6    1
    39    30    31    1
    40    41    44    1
    41    41    40   ar
    42    39    46    1
    43    39    40   ar
    44    46    45    3
    45    40    47    1
    46    16    15   ar
    47    16    22    1
    48    15    21    1
    49    47    48    1
    50    47    50    1
    51    21    20    3
    52    22    25    1
    53    22    23    1
