@<TRIPOS>MOLECULE
mol_data/opt/cam/geoms/mol2/13di13di13di-13di-.out
 50 53 0 0 0
SMALL
GASTEIGER

@<TRIPOS>ATOM
      1 C           1.2487   -0.2522   -0.3803 C.ar    1  LIG1        0.0199
      2 C           0.9096    0.9896    0.1158 C.ar    1  LIG1        0.0725
      3 C          -0.5133    1.0546    0.2355 C.ar    1  LIG1       -0.0064
      4 C          -0.9872   -0.1636   -0.2052 C.ar    1  LIG1        0.0684
      5 N           0.1010   -0.9442   -0.5630 N.ar    1  LIG1       -0.3581
      6 H           0.0429   -1.8608   -0.9802 H       1  LIG1        0.1654
      7 H           2.2159   -0.6710   -0.6093 H       1  LIG1        0.0820
      8 N           2.5545    2.8622    0.7801 N.1     1  LIG1       -0.1908
      9 C           1.8241    2.0173    0.4762 C.1     1  LIG1        0.1009
     10 C          -1.2890    2.2102    0.7793 C.3     1  LIG1       -0.0364
     11 H          -2.1864    1.8732    1.3030 H       1  LIG1        0.0279
     12 H          -1.6139    2.8890   -0.0137 H       1  LIG1        0.0279
     13 H          -0.6764    2.7821    1.4795 H       1  LIG1        0.0279
     14 C          -2.3275   -0.7084   -0.2788 C.ar    1  LIG1        0.0815
     15 C          -3.5525   -0.1485   -0.6285 C.ar    1  LIG1        0.0819
     16 C          -4.5510   -1.1653   -0.5605 C.ar    1  LIG1       -0.0057
     17 C          -3.9017   -2.3235   -0.1787 C.ar    1  LIG1        0.0688
     18 N          -2.5653   -2.0203   -0.0144 N.ar    1  LIG1       -0.3506
     19 H          -1.8726   -2.6676    0.3356 H       1  LIG1        0.1660
     20 N          -3.9978    2.2526   -1.4523 N.1     1  LIG1       -0.1908
     21 C          -3.7785    1.1794   -1.0761 C.1     1  LIG1        0.1016
     22 C          -5.9985   -0.9780   -0.8904 C.3     1  LIG1       -0.0364
     23 H          -6.6333   -1.0169    0.0030 H       1  LIG1        0.0279
     24 H          -6.3540   -1.7313   -1.6013 H       1  LIG1        0.0279
     25 H          -6.1608   -0.0006   -1.3481 H       1  LIG1        0.0279
     26 C          -4.3824   -3.6721    0.0156 C.ar    1  LIG1        0.0815
     27 C          -3.6794   -4.8708    0.1341 C.ar    1  LIG1        0.0819
     28 C          -4.6108   -5.9407    0.2957 C.ar    1  LIG1       -0.0057
     29 C          -5.8594   -5.3633    0.2668 C.ar    1  LIG1        0.0688
     30 N          -5.6996   -3.9945    0.1090 N.ar    1  LIG1       -0.3506
     31 H          -6.4561   -3.3450   -0.0335 H       1  LIG1        0.1660
     32 N          -1.1058   -4.9238    0.0826 N.1     1  LIG1       -0.1908
     33 C          -2.2655   -4.9566    0.1044 C.1     1  LIG1        0.1016
     34 C          -4.2682   -7.3832    0.4770 C.3     1  LIG1       -0.0364
     35 H          -3.3158   -7.4919    1.0010 H       1  LIG1        0.0279
     36 H          -4.1863   -7.8977   -0.4845 H       1  LIG1        0.0279
     37 H          -5.0394   -7.8983    1.0533 H       1  LIG1        0.0279
     38 C          -7.1822   -5.9459    0.3964 C.ar    1  LIG1        0.0810
     39 C          -7.7494   -7.0623   -0.1999 C.ar    1  LIG1        0.0813
     40 C          -9.0969   -7.1915    0.2682 C.ar    1  LIG1       -0.0151
     41 C          -9.3012   -6.1458    1.1249 C.ar    1  LIG1        0.0064
     42 N          -8.1506   -5.3948    1.1889 N.ar    1  LIG1       -0.3582
     43 H          -7.9861   -4.6471    1.8437 H       1  LIG1        0.1654
     44 H         -10.1775   -5.8750    1.6937 H       1  LIG1        0.0810
     45 N          -6.6006   -8.5768   -1.9419 N.1     1  LIG1       -0.1908
     46 C          -7.1144   -7.8938   -1.1604 C.1     1  LIG1        0.1016
     47 C         -10.0715   -8.2525   -0.1282 C.3     1  LIG1       -0.0371
     48 H          -9.7002   -9.2484    0.1296 H       1  LIG1        0.0278
     49 H         -10.2511   -8.2449   -1.2071 H       1  LIG1        0.0278
     50 H         -11.0301   -8.1092    0.3743 H       1  LIG1        0.0278
@<TRIPOS>BOND
     1    45    46    3
     2    24    22    1
     3    20    21    3
     4    25    22    1
     5    49    47    1
     6    46    39    1
     7    21    15    1
     8     6     5    1
     9    22    16    1
    10    22    23    1
    11    15    16   ar
    12    15    14   ar
    13     7     1    1
    14     5     1   ar
    15     5     4   ar
    16    16    17   ar
    17    36    34    1
    18     1     2   ar
    19    14     4    1
    20    14    18   ar
    21     4     3   ar
    22    39    40   ar
    23    39    38   ar
    24    17    18   ar
    25    17    26    1
    26    47    48    1
    27    47    40    1
    28    47    50    1
    29    31    30    1
    30    18    19    1
    31    12    10    1
    32    26    30   ar
    33    26    27   ar
    34    32    33    3
    35    33    27    1
    36    30    29   ar
    37     2     3   ar
    38     2     9    1
    39    27    28   ar
    40     3    10    1
    41    29    28   ar
    42    29    38    1
    43    40    41   ar
    44    28    34    1
    45    38    42   ar
    46     9     8    3
    47    34    35    1
    48    34    37    1
    49    10    11    1
    50    10    13    1
    51    41    42   ar
    52    41    44    1
    53    42    43    1
