@<TRIPOS>MOLECULE
mol_data/opt/cam/geoms/mol2/13di13di-.out
 26 27 0 0 0
SMALL
GASTEIGER

@<TRIPOS>ATOM
      1 C           1.2000   -0.3609   -0.0222 C.ar    1  LIG1        0.0199
      2 C           0.8231    0.9669    0.0037 C.ar    1  LIG1        0.0725
      3 C          -0.6027    1.0226    0.0167 C.ar    1  LIG1       -0.0064
      4 C          -1.0413   -0.2894   -0.0021 C.ar    1  LIG1        0.0684
      5 N           0.0727   -1.1046   -0.0255 N.ar    1  LIG1       -0.3581
      6 H           0.0438   -2.1154   -0.0425 H       1  LIG1        0.1654
      7 H           2.1818   -0.8069   -0.0381 H       1  LIG1        0.0820
      8 N           2.3803    3.0222    0.0258 N.1     1  LIG1       -0.1908
      9 C           1.6960    2.0883    0.0156 C.1     1  LIG1        0.1009
     10 C          -1.4138    2.2802    0.0452 C.3     1  LIG1       -0.0364
     11 H          -2.0421    2.3448    0.9410 H       1  LIG1        0.0279
     12 H          -2.0567    2.3756   -0.8375 H       1  LIG1        0.0279
     13 H          -0.7579    3.1527    0.0549 H       1  LIG1        0.0279
     14 C          -2.3794   -0.8430   -0.0004 C.ar    1  LIG1        0.0810
     15 C          -2.8195   -2.1654   -0.0192 C.ar    1  LIG1        0.0813
     16 C          -4.2513   -2.1712   -0.0074 C.ar    1  LIG1       -0.0151
     17 C          -4.6301   -0.8595    0.0180 C.ar    1  LIG1        0.0064
     18 N          -3.5014   -0.0718    0.0220 N.ar    1  LIG1       -0.3582
     19 H          -3.4988    0.9340    0.0390 H       1  LIG1        0.1654
     20 H          -5.6154   -0.4200    0.0336 H       1  LIG1        0.0810
     21 N          -1.2126   -4.1770   -0.0667 N.1     1  LIG1       -0.1908
     22 C          -1.9663   -3.2949   -0.0454 C.1     1  LIG1        0.1016
     23 C          -5.1308   -3.3789   -0.0205 C.3     1  LIG1       -0.0371
     24 H          -4.9442   -4.0174    0.8480 H       1  LIG1        0.0278
     25 H          -4.9583   -3.9880   -0.9127 H       1  LIG1        0.0278
     26 H          -6.1843   -3.0930   -0.0073 H       1  LIG1        0.0278
@<TRIPOS>BOND
     1    25    23    1
     2    12    10    1
     3    21    22    3
     4    22    15    1
     5     6     5    1
     6     7     1    1
     7     5     1   ar
     8     5     4   ar
     9     1     2   ar
    10    23    16    1
    11    23    26    1
    12    23    24    1
    13    15    16   ar
    14    15    14   ar
    15    16    17   ar
    16     4    14    1
    17     4     3   ar
    18    14    18   ar
    19     2     9    1
    20     2     3   ar
    21     9     8    3
    22     3    10    1
    23    17    18   ar
    24    17    20    1
    25    18    19    1
    26    10    13    1
    27    10    11    1
