@<TRIPOS>MOLECULE
mol_data/opt/cam/geoms/mol2/13di13di-13di.out
 38 40 0 0 0
SMALL
GASTEIGER

@<TRIPOS>ATOM
      1 C           1.2583   -0.3470    0.2041 C.ar    1  LIG1        0.0199
      2 C           0.8738    0.9645    0.0052 C.ar    1  LIG1        0.0725
      3 C          -0.5483    1.0016   -0.0975 C.ar    1  LIG1       -0.0064
      4 C          -0.9768   -0.3069    0.0481 C.ar    1  LIG1        0.0684
      5 N           0.1398   -1.1015    0.2289 N.ar    1  LIG1       -0.3581
      6 H           0.1212   -2.1053    0.3441 H       1  LIG1        0.1654
      7 H           2.2413   -0.7740    0.3251 H       1  LIG1        0.0820
      8 N           2.4369    3.0080   -0.1749 N.1     1  LIG1       -0.1908
      9 C           1.7451    2.0836   -0.0909 C.1     1  LIG1        0.1009
     10 C          -1.3655    2.2319   -0.3375 C.3     1  LIG1       -0.0364
     11 H          -2.0101    2.4865    0.5102 H       1  LIG1        0.0279
     12 H          -2.0029    2.1305   -1.2220 H       1  LIG1        0.0279
     13 H          -0.7127    3.0898   -0.5076 H       1  LIG1        0.0279
     14 C          -2.3056   -0.8764    0.0254 C.ar    1  LIG1        0.0815
     15 C          -2.7242   -2.2079    0.0262 C.ar    1  LIG1        0.0819
     16 C          -4.1482   -2.2403    0.0015 C.ar    1  LIG1       -0.0057
     17 C          -4.5631   -0.9238   -0.0159 C.ar    1  LIG1        0.0688
     18 N          -3.4349   -0.1242   -0.0026 N.ar    1  LIG1       -0.3506
     19 H          -3.4522    0.8853    0.0357 H       1  LIG1        0.1660
     20 N          -1.1173   -4.2189    0.1039 N.1     1  LIG1       -0.1908
     21 C          -1.8627   -3.3309    0.0612 C.1     1  LIG1        0.1016
     22 C          -4.9802   -3.4839    0.0046 C.3     1  LIG1       -0.0364
     23 H          -4.3578   -4.3590    0.2010 H       1  LIG1        0.0279
     24 H          -5.4681   -3.6568   -0.9622 H       1  LIG1        0.0279
     25 H          -5.7514   -3.4549    0.7811 H       1  LIG1        0.0279
     26 C          -5.8908   -0.3499   -0.0365 C.ar    1  LIG1        0.0810
     27 C          -6.3198    0.9638    0.1449 C.ar    1  LIG1        0.0813
     28 C          -7.7461    0.9999    0.0245 C.ar    1  LIG1       -0.0151
     29 C          -8.1330   -0.2862   -0.2229 C.ar    1  LIG1        0.0064
     30 N          -7.0147   -1.0877   -0.2560 N.ar    1  LIG1       -0.3582
     31 H          -7.0173   -2.0734   -0.4570 H       1  LIG1        0.1654
     32 H          -9.1180   -0.6985   -0.3779 H       1  LIG1        0.0810
     33 N          -4.7159    2.9216    0.6195 N.1     1  LIG1       -0.1908
     34 C          -5.4641    2.0597    0.4113 C.1     1  LIG1        0.1016
     35 C          -8.6139    2.2093    0.1528 C.3     1  LIG1       -0.0371
     36 H          -9.6652    1.9504    0.0127 H       1  LIG1        0.0278
     37 H          -8.3518    2.9680   -0.5902 H       1  LIG1        0.0278
     38 H          -8.5096    2.6721    1.1385 H       1  LIG1        0.0278
@<TRIPOS>BOND
     1    12    10    1
     2    24    22    1
     3    37    35    1
     4    13    10    1
     5    31    30    1
     6    32    29    1
     7    10     3    1
     8    10    11    1
     9    30    29   ar
    10    30    26   ar
    11    29    28   ar
    12     8     9    3
    13     3     2   ar
    14     3     4   ar
    15     9     2    1
    16    26    17    1
    17    26    27   ar
    18    17    18   ar
    19    17    16   ar
    20    18    14   ar
    21    18    19    1
    22    16    22    1
    23    16    15   ar
    24    22    23    1
    25    22    25    1
    26     2     1   ar
    27    36    35    1
    28    28    27   ar
    29    28    35    1
    30    14    15   ar
    31    14     4    1
    32    15    21    1
    33     4     5   ar
    34    21    20    3
    35    27    34    1
    36    35    38    1
    37     1     5   ar
    38     1     7    1
    39     5     6    1
    40    34    33    3
