@<TRIPOS>MOLECULE
mol_data/opt/cam/geoms/mol2/13di13di13di13di.out
 50 53 0 0 0
SMALL
GASTEIGER

@<TRIPOS>ATOM
      1 C           0.5260    0.3069   -2.1939 C.ar    1  LIG1        0.0199
      2 C           0.7449    1.0294   -1.0406 C.ar    1  LIG1        0.0725
      3 C          -0.3538    0.8043   -0.1522 C.ar    1  LIG1       -0.0064
      4 C          -1.2039   -0.0571   -0.8091 C.ar    1  LIG1        0.0684
      5 N          -0.6447   -0.3584   -2.0414 N.ar    1  LIG1       -0.3581
      6 H          -1.1227   -0.8529   -2.7780 H       1  LIG1        0.1654
      7 H           1.1191    0.2317   -3.0918 H       1  LIG1        0.0820
      8 N           2.8140    2.4829   -0.5299 N.1     1  LIG1       -0.1908
      9 C           1.8869    1.8327   -0.7695 C.1     1  LIG1        0.1009
     10 C          -0.5092    1.3828    1.2165 C.3     1  LIG1       -0.0364
     11 H          -1.0935    0.7216    1.8601 H       1  LIG1        0.0279
     12 H          -1.0290    2.3445    1.1843 H       1  LIG1        0.0279
     13 H           0.4667    1.5443    1.6795 H       1  LIG1        0.0279
     14 C          -2.4594   -0.6562   -0.3920 C.ar    1  LIG1        0.0815
     15 C          -3.6003   -0.0966    0.1656 C.ar    1  LIG1        0.0819
     16 C          -4.5673   -1.1282    0.3692 C.ar    1  LIG1       -0.0057
     17 C          -3.9848   -2.2933   -0.0775 C.ar    1  LIG1        0.0688
     18 N          -2.7118   -1.9894   -0.5297 N.ar    1  LIG1       -0.3506
     19 H          -2.0641   -2.6541   -0.9225 H       1  LIG1        0.1660
     20 N          -3.9282    2.4012    0.7157 N.1     1  LIG1       -0.1908
     21 C          -3.7788    1.2816    0.4616 C.1     1  LIG1        0.1016
     22 C          -5.9316   -0.9510    0.9511 C.3     1  LIG1       -0.0364
     23 H          -6.2750   -1.8681    1.4343 H       1  LIG1        0.0279
     24 H          -6.6629   -0.6990    0.1779 H       1  LIG1        0.0279
     25 H          -5.9343   -0.1466    1.6899 H       1  LIG1        0.0279
     26 C          -4.4833   -3.6577   -0.1013 C.ar    1  LIG1        0.0815
     27 C          -5.6714   -4.1857   -0.5855 C.ar    1  LIG1        0.0819
     28 C          -5.6616   -5.6002   -0.3881 C.ar    1  LIG1       -0.0057
     29 C          -4.4562   -5.8955    0.2096 C.ar    1  LIG1        0.0688
     30 N          -3.7596   -4.7113    0.3758 N.ar    1  LIG1       -0.3506
     31 H          -2.8495   -4.6357    0.8019 H       1  LIG1        0.1660
     32 N          -7.5621   -2.8239   -1.6904 N.1     1  LIG1       -0.1908
     33 C          -6.7102   -3.4340   -1.1981 C.1     1  LIG1        0.1016
     34 C          -6.7532   -6.5482   -0.7644 C.3     1  LIG1       -0.0364
     35 H          -6.7612   -7.4183   -0.1045 H       1  LIG1        0.0279
     36 H          -6.6249   -6.9171   -1.7860 H       1  LIG1        0.0279
     37 H          -7.7272   -6.0578   -0.7040 H       1  LIG1        0.0279
     38 C          -3.9011   -7.1617    0.6562 C.ar    1  LIG1        0.0810
     39 C          -3.7841   -8.3814    0.0074 C.ar    1  LIG1        0.0813
     40 C          -3.1507   -9.3096    0.8955 C.ar    1  LIG1       -0.0151
     41 C          -2.9003   -8.6179    2.0481 C.ar    1  LIG1        0.0064
     42 N          -3.3433   -7.3250    1.8937 N.ar    1  LIG1       -0.3582
     43 H          -3.4027   -6.6443    2.6341 H       1  LIG1        0.1654
     44 H          -2.4398   -8.9447    2.9679 H       1  LIG1        0.0810
     45 N          -4.4917   -8.8521   -2.4271 N.1     1  LIG1       -0.1908
     46 C          -4.1751   -8.6377   -1.3340 C.1     1  LIG1        0.1016
     47 C          -2.8238  -10.7367    0.5966 C.3     1  LIG1       -0.0371
     48 H          -2.3390  -11.2129    1.4510 H       1  LIG1        0.0278
     49 H          -2.1521  -10.8200   -0.2627 H       1  LIG1        0.0278
     50 H          -3.7251  -11.3081    0.3575 H       1  LIG1        0.0278
@<TRIPOS>BOND
     1     7     1    1
     2     6     5    1
     3    45    46    3
     4     1     5   ar
     5     1     2   ar
     6     5     4   ar
     7    36    34    1
     8    32    33    3
     9    46    39    1
    10    33    27    1
    11     2     9    1
    12     2     3   ar
    13    19    18    1
    14     4    14    1
    15     4     3   ar
    16     9     8    3
    17    34    37    1
    18    34    28    1
    19    34    35    1
    20    27    28   ar
    21    27    26   ar
    22    18    14   ar
    23    18    17   ar
    24    14    15   ar
    25    28    29   ar
    26    49    47    1
    27     3    10    1
    28    26    17    1
    29    26    30   ar
    30    17    16   ar
    31    39    38   ar
    32    39    40   ar
    33    15    16   ar
    34    15    21    1
    35    24    22    1
    36    29    30   ar
    37    29    38    1
    38    50    47    1
    39    16    22    1
    40    30    31    1
    41    21    20    3
    42    47    40    1
    43    47    48    1
    44    38    42   ar
    45    40    41   ar
    46    22    23    1
    47    22    25    1
    48    12    10    1
    49    10    13    1
    50    10    11    1
    51    42    41   ar
    52    42    43    1
    53    41    44    1
