@<TRIPOS>MOLECULE
mol_data/opt/cam/geoms/mol2/13dl4ae6id-13il.out
 55 58 0 0 0
SMALL
GASTEIGER

@<TRIPOS>ATOM
      1 C           1.5425   -0.3101   -0.2531 C.ar    1  LIG1        0.0233
      2 C           1.1852    0.9611    0.1631 C.ar    1  LIG1        0.1112
      3 C          -0.2372    0.9513    0.3349 C.ar    1  LIG1        0.1625
      4 C          -0.6941   -0.3137    0.0119 C.ar    1  LIG1        0.0901
      5 N           0.4215   -1.0521   -0.3427 N.ar    1  LIG1       -0.3565
      6 H           0.4026   -2.0359   -0.5549 H       1  LIG1        0.1655
      7 H           2.5209   -0.7079   -0.4707 H       1  LIG1        0.0821
      8 N           2.8958    2.8493    0.5584 N.1     1  LIG1       -0.1907
      9 C           2.1185    2.0092    0.3817 C.1     1  LIG1        0.1044
     10 O          -1.0669    1.9357    0.7407 O.3     1  LIG1       -0.4917
     11 C          -0.6115    3.2798    0.6548 C.3     1  LIG1        0.0789
     12 H          -1.4813    3.9029    0.8606 H       1  LIG1        0.0660
     13 H           0.1673    3.4870    1.3925 H       1  LIG1        0.0660
     14 H          -0.2306    3.5042   -0.3460 H       1  LIG1        0.0660
     15 C          -3.0847   -0.2823    0.7103 C.ar    1  LIG1       -0.0519
     16 C          -4.3569   -0.8308    0.6823 C.ar    1  LIG1       -0.0522
     17 C          -2.0431   -0.8705   -0.0179 C.ar    1  LIG1        0.0031
     18 C          -4.6475   -1.9817   -0.0495 C.ar    1  LIG1       -0.0007
     19 H          -5.1504   -0.3641    1.2570 H       1  LIG1        0.0624
     20 C          -2.3324   -2.0079   -0.7742 C.ar    1  LIG1       -0.0365
     21 C          -3.6104   -2.5703   -0.7955 C.ar    1  LIG1        0.0330
     22 H          -1.5729   -2.4661   -1.3987 H       1  LIG1        0.0636
     23 H          -2.8872    0.6050    1.2973 H       1  LIG1        0.0624
     24 C          -3.8435   -3.7242   -1.6134 C.1     1  LIG1       -0.0690
     25 C          -4.0161   -4.6920   -2.3084 C.1     1  LIG1       -0.1139
     26 H          -4.1797   -5.5416   -2.9312 H       1  LIG1        0.1232
     27 C          -6.3866   -3.7189    0.6085 C.ar    1  LIG1        0.0468
     28 C          -6.0325   -2.5255   -0.0537 C.ar    1  LIG1        0.0056
     29 C          -7.0390   -1.8526   -0.7231 C.ar    1  LIG1       -0.0328
     30 C          -8.3507   -2.3346   -0.7148 C.ar    1  LIG1        0.0797
     31 C          -8.6354   -3.4857    0.0424 C.ar    1  LIG1        0.1051
     32 N          -7.6402   -4.1559    0.6493 N.ar    1  LIG1       -0.2485
     33 H          -6.8076   -0.9580   -1.2915 H       1  LIG1        0.0638
     34 C          -5.3661   -4.5566    1.3242 C.3     1  LIG1       -0.0217
     35 H          -4.7146   -3.9403    1.9485 H       1  LIG1        0.0293
     36 H          -4.7294   -5.0802    0.6054 H       1  LIG1        0.0293
     37 H          -5.8754   -5.2921    1.9458 H       1  LIG1        0.0293
     38 N         -10.0233   -1.1743   -2.3100 N.1     1  LIG1       -0.1908
     39 C          -9.3052   -1.6994   -1.5697 C.1     1  LIG1        0.1014
     40 C          -9.9574   -4.0738    0.2153 C.ar    1  LIG1        0.0727
     41 C         -11.2561   -3.5754    0.2726 C.ar    1  LIG1        0.0180
     42 C         -12.0825   -4.6926    0.5620 C.ar    1  LIG1        0.1408
     43 C         -11.2938   -5.8142    0.6879 C.ar    1  LIG1        0.0447
     44 N         -10.0113   -5.4224    0.4810 N.ar    1  LIG1       -0.3561
     45 H          -9.1717   -5.9658    0.6049 H       1  LIG1        0.1655
     46 H         -11.5622   -6.8335    0.9165 H       1  LIG1        0.0844
     47 C         -11.7679   -2.1712    0.2173 C.3     1  LIG1       -0.0342
     48 H         -12.6822   -2.1088    0.8127 H       1  LIG1        0.0279
     49 H         -11.9975   -1.8415   -0.7993 H       1  LIG1        0.0279
     50 H         -11.0472   -1.4593    0.6265 H       1  LIG1        0.0279
     51 O         -13.4346   -4.6501    0.7598 O.3     1  LIG1       -0.4933
     52 C         -14.1924   -4.5841   -0.4378 C.3     1  LIG1        0.0789
     53 H         -15.2432   -4.5511   -0.1456 H       1  LIG1        0.0660
     54 H         -13.9526   -3.6867   -1.0194 H       1  LIG1        0.0660
     55 H         -14.0170   -5.4662   -1.0651 H       1  LIG1        0.0660
@<TRIPOS>BOND
     1    26    25    1
     2    38    39    3
     3    25    24    3
     4    24    21    1
     5    39    30    1
     6    22    20    1
     7    33    29    1
     8    55    52    1
     9    54    52    1
    10    49    47    1
    11    21    20   ar
    12    21    18   ar
    13    20    17   ar
    14    29    30   ar
    15    29    28   ar
    16    30    31   ar
    17     6     5    1
    18     7     1    1
    19    52    53    1
    20    52    51    1
    21    14    11    1
    22     5     1   ar
    23     5     4   ar
    24     1     2   ar
    25    28    18    1
    26    28    27   ar
    27    18    16   ar
    28    17     4    1
    29    17    15   ar
    30     4     3   ar
    31    31    40    1
    32    31    32   ar
    33     2     3   ar
    34     2     9    1
    35    40    41   ar
    36    40    44   ar
    37    47    41    1
    38    47    50    1
    39    47    48    1
    40    41    42   ar
    41     3    10    1
    42     9     8    3
    43    44    45    1
    44    44    43   ar
    45    42    43   ar
    46    42    51    1
    47    36    34    1
    48    27    32   ar
    49    27    34    1
    50    11    10    1
    51    11    12    1
    52    11    13    1
    53    16    15   ar
    54    16    19    1
    55    43    46    1
    56    15    23    1
    57    34    37    1
    58    34    35    1
