@<TRIPOS>MOLECULE
mol_data/opt/cam/geoms/mol2/13dl12da13hh13di-.out
 47 50 0 0 0
SMALL
GASTEIGER

@<TRIPOS>ATOM
      1 C           1.3064   -0.1486   -0.7848 C.ar    1  LIG1        0.0234
      2 C           1.0093    1.0714   -0.2040 C.ar    1  LIG1        0.1113
      3 C          -0.3777    1.0403    0.1465 C.ar    1  LIG1        0.1656
      4 C          -0.8716   -0.1887   -0.2450 C.ar    1  LIG1        0.1269
      5 N           0.1824   -0.8962   -0.7939 N.ar    1  LIG1       -0.3541
      6 H           0.0944   -1.8208   -1.1822 H       1  LIG1        0.1656
      7 H           2.2429   -0.5106   -1.1788 H       1  LIG1        0.0821
      8 N           2.7074    2.9615    0.2297 N.1     1  LIG1       -0.1907
      9 C           1.9449    2.1126    0.0343 C.1     1  LIG1        0.1044
     10 O          -1.1036    1.9471    0.8223 O.3     1  LIG1       -0.4916
     11 C          -1.0796    3.2936    0.3418 C.3     1  LIG1        0.0789
     12 H          -1.7832    3.8425    0.9646 H       1  LIG1        0.0660
     13 H          -0.0817    3.7288    0.4334 H       1  LIG1        0.0660
     14 H          -1.4182    3.3342   -0.6970 H       1  LIG1        0.0660
     15 C          -2.1884   -0.7540   -0.1420 C.ar    1  LIG1        0.1727
     16 C          -3.4570   -0.2342   -0.0778 C.ar    1  LIG1        0.0996
     17 C          -4.3593   -1.3448   -0.0059 C.ar    1  LIG1        0.0038
     18 C          -3.5922   -2.4631   -0.0419 C.ar    1  LIG1        0.1550
     19 O          -2.2645   -2.1126   -0.1242 O.2     1  LIG1       -0.4504
     20 N          -4.1561    2.2420   -0.2340 N.1     1  LIG1       -0.1907
     21 C          -3.8233    1.1368   -0.1492 C.1     1  LIG1        0.1030
     22 H          -5.4351   -1.3228    0.0535 H       1  LIG1        0.0669
     23 C          -3.8837   -3.8712   -0.0075 C.ar    1  LIG1        0.1054
     24 C          -5.1000   -4.5251   -0.0628 C.ar    1  LIG1        0.0749
     25 C          -4.8395   -5.9272   -0.0478 C.ar    1  LIG1        0.0734
     26 C          -3.4622   -6.0872    0.0212 C.ar    1  LIG1        0.0874
     27 N          -2.9004   -4.8149    0.0735 N.ar    1  LIG1       -0.3476
     28 H          -1.9322   -4.6183   -0.1204 H       1  LIG1        0.1661
     29 N          -6.3609   -3.8778   -0.1028 N.pl3   1  LIG1       -0.3548
     30 H          -6.8743   -4.0750   -0.9558 H       1  LIG1        0.1424
     31 H          -6.9458   -4.1165    0.6913 H       1  LIG1        0.1424
     32 N          -5.8301   -6.8948    0.0097 N.pl3   1  LIG1       -0.3548
     33 H          -6.7420   -6.5264   -0.2226 H       1  LIG1        0.1424
     34 H          -5.6442   -7.7496   -0.4998 H       1  LIG1        0.1424
     35 C          -2.6271   -7.2544    0.1649 C.ar    1  LIG1        0.0826
     36 C          -2.7251   -8.5419   -0.3519 C.ar    1  LIG1        0.0813
     37 C          -1.6126   -9.3127    0.1257 C.ar    1  LIG1       -0.0151
     38 C          -0.8743   -8.4685    0.9023 C.ar    1  LIG1        0.0064
     39 N          -1.4825   -7.2296    0.9113 N.ar    1  LIG1       -0.3582
     40 H          -1.2433   -6.4737    1.5324 H       1  LIG1        0.1654
     41 H           0.0398   -8.6458    1.4477 H       1  LIG1        0.0810
     42 N          -4.6006   -9.3081   -1.9407 N.1     1  LIG1       -0.1908
     43 C          -3.7401   -8.9798   -1.2349 C.1     1  LIG1        0.1016
     44 C          -1.3296  -10.7446   -0.1936 C.3     1  LIG1       -0.0371
     45 H          -0.4173  -11.0817    0.3026 H       1  LIG1        0.0278
     46 H          -1.2041  -10.8973   -1.2696 H       1  LIG1        0.0278
     47 H          -2.1491  -11.3928    0.1304 H       1  LIG1        0.0278
@<TRIPOS>BOND
     1    42    43    3
     2    46    44    1
     3    43    36    1
     4     6     5    1
     5     7     1    1
     6    30    29    1
     7     5     1   ar
     8     5     4   ar
     9     1     2   ar
    10    14    11    1
    11    34    32    1
    12    36    37   ar
    13    36    35   ar
    14     4    15    1
    15     4     3   ar
    16    20    21    3
    17    33    32    1
    18     2     9    1
    19     2     3   ar
    20    44    37    1
    21    44    47    1
    22    44    45    1
    23    21    16    1
    24    15    19   ar
    25    15    16   ar
    26    19    18   ar
    27    28    27    1
    28    29    24    1
    29    29    31    1
    30    16    17   ar
    31    24    25   ar
    32    24    23   ar
    33    25    32    1
    34    25    26   ar
    35    18    23    1
    36    18    17   ar
    37    23    27   ar
    38    17    22    1
    39    26    27   ar
    40    26    35    1
    41     9     8    3
    42    37    38   ar
    43     3    10    1
    44    35    39   ar
    45    11    13    1
    46    11    10    1
    47    11    12    1
    48    38    39   ar
    49    38    41    1
    50    39    40    1
