@<TRIPOS>MOLECULE
mol_data/opt/cam/geoms/mol2/13dl13da-4df6eh13df12fl-13el-13de-.out
 96 103 0 0 0
SMALL
GASTEIGER

@<TRIPOS>ATOM
      1 C           0.8247   -0.3290   -2.4468 C.ar    1  LIG1        0.0233
      2 C           1.2680    0.3578   -1.3337 C.ar    1  LIG1        0.1112
      3 C           0.2838    0.1745   -0.3076 C.ar    1  LIG1        0.1640
      4 C          -0.7171   -0.6133   -0.8350 C.ar    1  LIG1        0.1077
      5 N          -0.3488   -0.9263   -2.1353 N.ar    1  LIG1       -0.3553
      6 H          -0.9602   -1.3662   -2.8037 H       1  LIG1        0.1655
      7 H           1.2753   -0.4183   -3.4227 H       1  LIG1        0.0821
      8 N           3.5111    1.6181   -1.1737 N.1     1  LIG1       -0.1907
      9 C           2.5030    1.0535   -1.2448 C.1     1  LIG1        0.1044
     10 O           0.3181    0.5688    0.9774 O.3     1  LIG1       -0.4916
     11 C           0.5822    1.9539    1.2236 C.3     1  LIG1        0.0789
     12 H           0.5472    2.0724    2.3052 H       1  LIG1        0.0660
     13 H           1.5701    2.2411    0.8562 H       1  LIG1        0.0660
     14 H          -0.1939    2.5748    0.7699 H       1  LIG1        0.0660
     15 C          -1.9293   -1.1151   -0.2268 C.ar    1  LIG1        0.0845
     16 C          -2.8472   -0.4978    0.6100 C.ar    1  LIG1        0.0791
     17 C          -3.8471   -1.4509    0.9425 C.ar    1  LIG1       -0.0183
     18 C          -3.5334   -2.6229    0.2978 C.ar    1  LIG1        0.0496
     19 N          -2.3743   -2.3926   -0.4261 N.ar    1  LIG1       -0.3519
     20 H          -1.7906   -3.1275   -0.7946 H       1  LIG1        0.1660
     21 N          -2.7869    1.9840    1.3064 N.1     1  LIG1       -0.1908
     22 C          -2.8099    0.8675    1.0023 C.1     1  LIG1        0.1014
     23 H          -4.7085   -1.2696    1.5649 H       1  LIG1        0.0652
     24 C          -4.9883   -4.4218    1.2922 C.ar    1  LIG1        0.0617
     25 C          -5.5976   -5.6748    1.1753 C.ar    1  LIG1       -0.0324
     26 C          -4.2080   -3.9178    0.2345 C.ar    1  LIG1        0.0192
     27 C          -5.4543   -6.4662    0.0468 C.ar    1  LIG1        0.0275
     28 H          -6.1819   -6.0484    2.0089 H       1  LIG1        0.0638
     29 C          -4.0839   -4.7071   -0.9116 C.ar    1  LIG1       -0.0092
     30 C          -4.6911   -5.9531   -1.0146 C.ar    1  LIG1        0.1253
     31 H          -3.5453   -4.3175   -1.7709 H       1  LIG1        0.0661
     32 N          -5.3548   -3.1465    3.5150 N.1     1  LIG1       -0.1908
     33 C          -5.1728   -3.7025    2.5166 C.1     1  LIG1        0.0998
     34 O          -4.6130   -6.6991   -2.1362 O.3     1  LIG1       -0.5061
     35 H          -4.0343   -6.2774   -2.7822 H       1  LIG1        0.2922
     36 C          -5.3990   -8.9886   -0.1992 C.ar    1  LIG1        0.1218
     37 C          -6.1188   -7.7887   -0.0419 C.ar    1  LIG1        0.0213
     38 C          -7.4925   -7.8899    0.0700 C.ar    1  LIG1       -0.0284
     39 C          -8.1647   -9.1220    0.0118 C.ar    1  LIG1        0.0530
     40 C          -7.3549  -10.2647   -0.2042 C.ar    1  LIG1        0.1104
     41 N          -6.0242  -10.1565   -0.2775 N.ar    1  LIG1       -0.2344
     42 H          -8.0795   -6.9862    0.2057 H       1  LIG1        0.0643
     43 C          -3.9638   -9.0321   -0.2569 C.1     1  LIG1       -0.0492
     44 C          -2.7624   -9.1039   -0.2960 C.1     1  LIG1       -0.1124
     45 H          -1.7002   -9.1726   -0.3614 H       1  LIG1        0.1232
     46 N          -9.5109   -9.1535    0.2228 N.pl3   1  LIG1       -0.3563
     47 H          -9.9934   -8.2694    0.2356 H       1  LIG1        0.1424
     48 H         -10.0785   -9.9310   -0.0773 H       1  LIG1        0.1424
     49 C          -7.7929  -11.6704   -0.3029 C.ar    1  LIG1        0.0885
     50 C          -8.9696  -12.3963   -0.5569 C.ar    1  LIG1        0.1206
     51 C          -8.6305  -13.7805   -0.5624 C.ar    1  LIG1        0.1633
     52 C          -7.2722  -13.8703   -0.3196 C.ar    1  LIG1        0.1297
     53 N          -6.8115  -12.5885   -0.1640 N.ar    1  LIG1       -0.3464
     54 H          -5.8524  -12.2919   -0.0513 H       1  LIG1        0.1662
     55 N         -11.3216  -11.4893   -1.0750 N.1     1  LIG1       -0.1907
     56 C         -10.2670  -11.9128   -0.8442 C.1     1  LIG1        0.1050
     57 O          -9.5301  -14.7548   -0.7781 O.3     1  LIG1       -0.5034
     58 H          -9.0944  -15.6234   -0.7854 H       1  LIG1        0.2923
     59 C          -6.3835  -14.9896   -0.2349 C.ar    1  LIG1        0.2005
     60 C          -6.5233  -16.3304   -0.4069 C.ar    1  LIG1        0.2077
     61 C          -5.2425  -16.9249   -0.2217 C.ar    1  LIG1        0.2099
     62 C          -4.3745  -15.9064    0.0784 C.ar    1  LIG1        0.1983
     63 O          -5.0745  -14.7244    0.0536 O.2     1  LIG1       -0.4441
     64 O          -7.6743  -16.9800   -0.7251 O.3     1  LIG1       -0.5008
     65 H          -7.5031  -17.9320   -0.6955 H       1  LIG1        0.2924
     66 O          -5.0715  -18.2630   -0.3524 O.3     1  LIG1       -0.4884
     67 C          -4.1860  -18.6635   -1.4017 C.3     1  LIG1        0.0791
     68 H          -4.2065  -19.7527   -1.4171 H       1  LIG1        0.0660
     69 H          -4.5290  -18.2710   -2.3645 H       1  LIG1        0.0660
     70 H          -3.1666  -18.3282   -1.2038 H       1  LIG1        0.0660
     71 C          -2.9791  -15.7497    0.3924 C.ar    1  LIG1        0.1056
     72 C          -1.9994  -16.6256    0.8568 C.ar    1  LIG1        0.0953
     73 C          -0.7980  -15.8565    0.9922 C.ar    1  LIG1        0.1627
     74 C          -1.0766  -14.5571    0.6247 C.ar    1  LIG1        0.1082
     75 N          -2.4146  -14.5118    0.2844 N.ar    1  LIG1       -0.3466
     76 H          -2.8722  -13.7369   -0.1684 H       1  LIG1        0.1662
     77 C          -2.1931  -17.9701    1.2654 C.1     1  LIG1       -0.0637
     78 C          -2.3570  -19.1096    1.6211 C.1     1  LIG1       -0.1137
     79 H          -2.5113  -20.1072    1.9622 H       1  LIG1        0.1232
     80 O           0.3831  -16.2503    1.5103 O.3     1  LIG1       -0.4917
     81 C           1.0206  -17.3555    0.8661 C.3     1  LIG1        0.0789
     82 H           1.9334  -17.5427    1.4302 H       1  LIG1        0.0660
     83 H           0.3855  -18.2439    0.8898 H       1  LIG1        0.0660
     84 H           1.2845  -17.0975   -0.1626 H       1  LIG1        0.0660
     85 C          -0.2610  -13.3632    0.6639 C.ar    1  LIG1        0.0853
     86 C           1.0583  -13.1403    0.3077 C.ar    1  LIG1        0.0938
     87 C           1.3557  -11.7579    0.5608 C.ar    1  LIG1        0.0600
     88 C           0.2037  -11.1943    1.0539 C.ar    1  LIG1        0.0190
     89 N          -0.7590  -12.1643    1.1029 N.ar    1  LIG1       -0.3573
     90 H          -1.6718  -12.0466    1.5139 H       1  LIG1        0.1655
     91 H           0.0139  -10.1875    1.3903 H       1  LIG1        0.0820
     92 N           2.6427  -14.8821   -0.7377 N.1     1  LIG1       -0.1908
     93 C           1.9352  -14.1009   -0.2587 C.1     1  LIG1        0.1026
     94 C           2.5941  -11.0996    0.3365 C.1     1  LIG1       -0.0669
     95 C           3.6460  -10.5486    0.1429 C.1     1  LIG1       -0.1138
     96 H           4.5836  -10.0710   -0.0260 H       1  LIG1        0.1232
@<TRIPOS>BOND
     1     7     1    1
     2     6     5    1
     3    35    34    1
     4     1     5   ar
     5     1     2   ar
     6    69    67    1
     7    34    30    1
     8     5     4   ar
     9    31    29    1
    10    68    67    1
    11    67    70    1
    12    67    66    1
    13     2     9    1
    14     2     3   ar
    15     9     8    3
    16    55    56    3
    17    30    29   ar
    18    30    27   ar
    19    29    26   ar
    20    56    50    1
    21     4     3   ar
    22     4    15    1
    23    20    19    1
    24    58    57    1
    25    57    51    1
    26    92    93    3
    27    64    65    1
    28    64    60    1
    29    51    50   ar
    30    51    52   ar
    31    50    49   ar
    32    19    15   ar
    33    19    18   ar
    34    60    59   ar
    35    60    61   ar
    36    45    44    1
    37    66    61    1
    38    52    59    1
    39    52    53   ar
    40     3    10    1
    41    49    40    1
    42    49    53   ar
    43    44    43    3
    44    41    40   ar
    45    41    36   ar
    46    93    86    1
    47    43    36    1
    48    59    63   ar
    49    15    16   ar
    50    61    62   ar
    51    40    39   ar
    52    36    37   ar
    53    76    75    1
    54    53    54    1
    55    84    81    1
    56    48    46    1
    57    37    27    1
    58    37    38   ar
    59    96    95    1
    60    39    38   ar
    61    39    46    1
    62    27    25   ar
    63    63    62   ar
    64    38    42    1
    65    62    71    1
    66    95    94    3
    67    46    47    1
    68    26    18    1
    69    26    24   ar
    70    75    71   ar
    71    75    74   ar
    72    18    17   ar
    73    86    87   ar
    74    86    85   ar
    75    94    87    1
    76    71    72   ar
    77    87    88   ar
    78    16    17   ar
    79    16    22    1
    80    74    85    1
    81    74    73   ar
    82    85    89   ar
    83    14    11    1
    84    13    11    1
    85    72    73   ar
    86    72    77    1
    87    81    83    1
    88    81    82    1
    89    81    80    1
    90    17    23    1
    91    10    11    1
    92    73    80    1
    93    22    21    3
    94    88    89   ar
    95    88    91    1
    96    89    90    1
    97    25    24   ar
    98    25    28    1
    99    11    12    1
   100    77    78    3
   101    24    33    1
   102    78    79    1
   103    33    32    3
