@<TRIPOS>MOLECULE
mol_data/opt/cam/geoms/mol2/13dl13dl-.out
 28 29 0 0 0
SMALL
GASTEIGER

@<TRIPOS>ATOM
      1 C           1.2542   -0.4125   -0.0006 C.ar    1  LIG1        0.0233
      2 C           0.9011    0.9303   -0.0001 C.ar    1  LIG1        0.1112
      3 C          -0.5273    0.9695    0.0004 C.ar    1  LIG1        0.1640
      4 C          -0.9829   -0.3346    0.0004 C.ar    1  LIG1        0.1078
      5 N           0.1301   -1.1515   -0.0000 N.ar    1  LIG1       -0.3553
      6 H           0.0900   -2.1627   -0.0001 H       1  LIG1        0.1655
      7 H           2.2366   -0.8571   -0.0011 H       1  LIG1        0.0821
      8 N           2.6167    2.8546   -0.0005 N.1     1  LIG1       -0.1907
      9 C           1.8398    1.9958   -0.0002 C.1     1  LIG1        0.1044
     10 O          -1.3951    2.0117    0.0008 O.3     1  LIG1       -0.4916
     11 C          -0.8643    3.3317    0.0006 C.3     1  LIG1        0.0789
     12 H          -1.7243    4.0003    0.0010 H       1  LIG1        0.0660
     13 H          -0.2587    3.5137    0.8922 H       1  LIG1        0.0660
     14 H          -0.2593    3.5138   -0.8913 H       1  LIG1        0.0660
     15 C          -2.3384   -0.8237    0.0009 C.ar    1  LIG1        0.0878
     16 C          -2.8371   -2.1263    0.0010 C.ar    1  LIG1        0.1200
     17 C          -4.2615   -2.0293    0.0013 C.ar    1  LIG1        0.1553
     18 C          -4.5883   -0.6973    0.0018 C.ar    1  LIG1        0.0457
     19 N          -3.4022    0.0136    0.0015 N.ar    1  LIG1       -0.3553
     20 H          -3.2973    1.0173    0.0016 H       1  LIG1        0.1655
     21 H          -5.5423   -0.1987    0.0023 H       1  LIG1        0.0845
     22 N          -1.2857   -4.1756   -0.0004 N.1     1  LIG1       -0.1907
     23 C          -2.0348   -3.2891    0.0005 C.1     1  LIG1        0.1050
     24 O          -5.0520   -3.1195    0.0013 O.3     1  LIG1       -0.4923
     25 C          -6.4411   -2.8600    0.0018 C.3     1  LIG1        0.0789
     26 H          -6.9397   -3.8284    0.0017 H       1  LIG1        0.0660
     27 H          -6.7361   -2.2971    0.8956 H       1  LIG1        0.0660
     28 H          -6.7366   -2.2967   -0.8916 H       1  LIG1        0.0660
@<TRIPOS>BOND
     1    28    25    1
     2    14    11    1
     3     7     1    1
     4     1     2   ar
     5     1     5   ar
     6     8     9    3
     7    22    23    3
     8     9     2    1
     9     6     5    1
    10     2     3   ar
    11     5     4   ar
    12     3     4   ar
    13     3    10    1
    14     4    15    1
    15    23    16    1
    16    11    10    1
    17    11    12    1
    18    11    13    1
    19    15    16   ar
    20    15    19   ar
    21    16    17   ar
    22    24    17    1
    23    24    25    1
    24    17    18   ar
    25    19    20    1
    26    19    18   ar
    27    26    25    1
    28    25    27    1
    29    18    21    1
