@<TRIPOS>MOLECULE
mol_data/opt/cam/geoms/mol2/13dl6ld13ah13ii.out
 53 56 0 0 0
SMALL
GASTEIGER

@<TRIPOS>ATOM
      1 C           1.3212   -0.4243    0.4658 C.ar    1  LIG1        0.0233
      2 C           1.0043    0.9203    0.3375 C.ar    1  LIG1        0.1112
      3 C          -0.4124    0.9877    0.1560 C.ar    1  LIG1        0.1627
      4 C          -0.9061   -0.3101    0.1799 C.ar    1  LIG1        0.0952
      5 N           0.1870   -1.1353    0.3709 N.ar    1  LIG1       -0.3564
      6 H           0.0890   -2.1376    0.4232 H       1  LIG1        0.1655
      7 H           2.2845   -0.8850    0.6165 H       1  LIG1        0.0821
      8 N           2.7846    2.7824    0.4370 N.1     1  LIG1       -0.1907
      9 C           1.9727    1.9577    0.3901 C.1     1  LIG1        0.1044
     10 O          -1.2161    2.0596   -0.0150 O.3     1  LIG1       -0.4917
     11 C          -0.6333    3.3548   -0.0346 C.3     1  LIG1        0.0789
     12 H          -1.4590    4.0491   -0.1854 H       1  LIG1        0.0660
     13 H          -0.1341    3.5805    0.9116 H       1  LIG1        0.0660
     14 H           0.0835    3.4557   -0.8540 H       1  LIG1        0.0660
     15 C          -2.6271   -2.1751    0.0739 C.ar    1  LIG1        0.2246
     16 C          -2.2713   -0.8029    0.0429 C.ar    1  LIG1        0.0646
     17 C          -3.3456    0.0597   -0.1323 C.ar    1  LIG1       -0.0279
     18 C          -4.6542   -0.4143   -0.2615 C.ar    1  LIG1        0.0800
     19 C          -4.8909   -1.7979   -0.2110 C.ar    1  LIG1        0.1083
     20 N          -3.8473   -2.6367   -0.0461 N.ar    1  LIG1       -0.2096
     21 H          -3.1648    1.1250   -0.1708 H       1  LIG1        0.0639
     22 O          -1.6263   -3.0758    0.2429 O.3     1  LIG1       -0.4792
     23 C          -1.9779   -4.4560    0.2928 C.3     1  LIG1        0.0804
     24 H          -1.0407   -4.9906    0.4433 H       1  LIG1        0.0660
     25 H          -2.6625   -4.6530    1.1199 H       1  LIG1        0.0660
     26 H          -2.4457   -4.7713   -0.6419 H       1  LIG1        0.0660
     27 N          -6.5281    1.3355   -0.6064 N.1     1  LIG1       -0.1908
     28 C          -5.7001    0.5417   -0.4507 C.1     1  LIG1        0.1014
     29 C          -6.1856   -2.4354   -0.3226 C.ar    1  LIG1        0.0686
     30 C          -7.4891   -1.9634   -0.4238 C.ar    1  LIG1       -0.0135
     31 C          -8.3439   -3.0831   -0.4694 C.ar    1  LIG1        0.0523
     32 C          -7.5519   -4.2242   -0.3881 C.ar    1  LIG1        0.0845
     33 N          -6.2484   -3.8024   -0.3116 N.ar    1  LIG1       -0.3503
     34 H          -5.4411   -4.3776   -0.1335 H       1  LIG1        0.1660
     35 H          -7.7945   -0.9302   -0.4702 H       1  LIG1        0.0658
     36 N          -9.7409   -3.0606   -0.5477 N.pl3   1  LIG1       -0.3563
     37 H         -10.0950   -2.2516   -1.0404 H       1  LIG1        0.1424
     38 H         -10.1197   -3.9112   -0.9457 H       1  LIG1        0.1424
     39 C          -7.9092   -5.6307   -0.4462 C.ar    1  LIG1        0.0679
     40 C          -8.8774   -6.3628    0.2143 C.ar    1  LIG1       -0.0208
     41 C          -8.7710   -7.7144   -0.2402 C.ar    1  LIG1       -0.0296
     42 C          -7.7460   -7.7580   -1.1494 C.ar    1  LIG1        0.0054
     43 N          -7.2126   -6.5016   -1.2604 N.ar    1  LIG1       -0.3590
     44 H          -6.5602   -6.2068   -1.9676 H       1  LIG1        0.1654
     45 H          -7.3540   -8.5877   -1.7192 H       1  LIG1        0.0810
     46 C          -9.8159   -5.8744    1.2741 C.3     1  LIG1       -0.0374
     47 H          -9.5852   -6.3258    2.2455 H       1  LIG1        0.0278
     48 H         -10.8531   -6.1400    1.0421 H       1  LIG1        0.0278
     49 H          -9.7700   -4.7903    1.3862 H       1  LIG1        0.0278
     50 C          -9.6094   -8.8649    0.2204 C.3     1  LIG1       -0.0380
     51 H          -9.3338   -9.7867   -0.2976 H       1  LIG1        0.0278
     52 H         -10.6743   -8.6873    0.0365 H       1  LIG1        0.0278
     53 H          -9.4979   -9.0435    1.2954 H       1  LIG1        0.0278
@<TRIPOS>BOND
     1    44    43    1
     2    45    42    1
     3    43    42   ar
     4    43    39   ar
     5    42    41   ar
     6    37    36    1
     7    38    36    1
     8    14    11    1
     9    26    23    1
    10    27    28    3
    11    36    31    1
    12    35    30    1
    13    31    30   ar
    14    31    32   ar
    15    28    18    1
    16    39    32    1
    17    39    40   ar
    18    30    29   ar
    19    32    33   ar
    20    29    33   ar
    21    29    19    1
    22    33    34    1
    23    51    50    1
    24    18    19   ar
    25    18    17   ar
    26    41    40   ar
    27    41    50    1
    28    19    20   ar
    29    12    11    1
    30    21    17    1
    31    17    16   ar
    32    20    15   ar
    33    11    10    1
    34    11    13    1
    35    10     3    1
    36    52    50    1
    37    16    15   ar
    38    16     4    1
    39    15    22    1
    40     3     4   ar
    41     3     2   ar
    42     4     5   ar
    43    40    46    1
    44    50    53    1
    45    22    23    1
    46    23    24    1
    47    23    25    1
    48     2     9    1
    49     2     1   ar
    50     5     6    1
    51     5     1   ar
    52     9     8    3
    53     1     7    1
    54    48    46    1
    55    46    49    1
    56    46    47    1
