@<TRIPOS>MOLECULE
mol_data/opt/cam/geoms/mol2/13dl13eh12hd4af.out
 48 51 0 0 0
SMALL
GASTEIGER

@<TRIPOS>ATOM
      1 C           1.3750   -0.0684    0.2636 C.ar    1  LIG1        0.0233
      2 C           0.9946    1.0778   -0.4062 C.ar    1  LIG1        0.1112
      3 C          -0.4302    1.0225   -0.5582 C.ar    1  LIG1        0.1640
      4 C          -0.8633   -0.1473    0.0249 C.ar    1  LIG1        0.1077
      5 N           0.2626   -0.8026    0.4984 N.ar    1  LIG1       -0.3553
      6 H           0.2243   -1.6258    1.0773 H       1  LIG1        0.1655
      7 H           2.3556   -0.3889    0.5779 H       1  LIG1        0.0821
      8 N           2.5991    2.8954   -1.2819 N.1     1  LIG1       -0.1907
      9 C           1.8805    2.0770   -0.8884 C.1     1  LIG1        0.1044
     10 O          -1.2323    1.8723   -1.2335 O.3     1  LIG1       -0.4916
     11 C          -1.1638    3.2423   -0.8453 C.3     1  LIG1        0.0789
     12 H          -1.9069    3.7626   -1.4487 H       1  LIG1        0.0660
     13 H          -1.4140    3.3526    0.2138 H       1  LIG1        0.0660
     14 H          -0.1760    3.6667   -1.0432 H       1  LIG1        0.0660
     15 C          -2.1848   -0.7277    0.1392 C.ar    1  LIG1        0.0844
     16 C          -3.3990   -0.1583    0.4975 C.ar    1  LIG1        0.0728
     17 C          -4.3880   -1.1949    0.4719 C.ar    1  LIG1        0.0696
     18 C          -3.7438   -2.3601    0.0870 C.ar    1  LIG1        0.1066
     19 N          -2.3952   -2.0584   -0.0760 N.ar    1  LIG1       -0.3480
     20 H          -1.7535   -2.6558   -0.5719 H       1  LIG1        0.1661
     21 C          -3.6582    1.1773    0.8958 C.1     1  LIG1       -0.0656
     22 C          -3.9522    2.2916    1.2507 C.1     1  LIG1       -0.1138
     23 H          -4.1985    3.2783    1.5683 H       1  LIG1        0.1232
     24 N          -5.6946   -1.0474    0.8663 N.pl3   1  LIG1       -0.3553
     25 H          -6.0214   -0.0925    0.8833 H       1  LIG1        0.1424
     26 H          -6.3467   -1.7294    0.4863 H       1  LIG1        0.1424
     27 C          -4.2547   -3.6841   -0.1125 C.ar    1  LIG1        0.1754
     28 C          -5.4895   -4.1809   -0.4170 C.ar    1  LIG1        0.0908
     29 C          -5.3434   -5.6109   -0.4583 C.ar    1  LIG1        0.1187
     30 C          -4.0247   -5.8966   -0.2048 C.ar    1  LIG1        0.1550
     31 O          -3.3678   -4.7264   -0.0053 O.2     1  LIG1       -0.4501
     32 N          -6.6596   -3.4325   -0.6677 N.pl3   1  LIG1       -0.3540
     33 H          -6.6548   -3.0250   -1.5982 H       1  LIG1        0.1425
     34 H          -7.4923   -4.0047   -0.5757 H       1  LIG1        0.1425
     35 N          -7.3269   -7.1744   -0.9606 N.1     1  LIG1       -0.1907
     36 C          -6.4127   -6.5017   -0.7291 C.1     1  LIG1        0.1048
     37 C          -3.8001   -8.3592   -0.4571 C.ar    1  LIG1       -0.0508
     38 C          -3.0296   -9.5099   -0.3480 C.ar    1  LIG1       -0.0576
     39 C          -3.2469   -7.1242   -0.1082 C.ar    1  LIG1        0.0221
     40 C          -1.7185   -9.4560    0.0981 C.ar    1  LIG1       -0.0201
     41 H          -3.4619  -10.4670   -0.6197 H       1  LIG1        0.0619
     42 C          -1.9232   -7.0639    0.3434 C.ar    1  LIG1       -0.0095
     43 C          -1.1671   -8.2238    0.4446 C.ar    1  LIG1        0.1175
     44 H          -1.4951   -6.1065    0.6220 H       1  LIG1        0.0661
     45 H          -1.1086  -10.3473    0.1875 H       1  LIG1        0.0654
     46 H          -4.8198   -8.4269   -0.8141 H       1  LIG1        0.0625
     47 O           0.1210   -8.2183    0.8805 O.3     1  LIG1       -0.5067
     48 H           0.3801   -7.3181    1.1088 H       1  LIG1        0.2921
@<TRIPOS>BOND
     1    33    32    1
     2    12    11    1
     3     8     9    3
     4    10    11    1
     5    10     3    1
     6    14    11    1
     7    35    36    3
     8     9     2    1
     9    11    13    1
    10    46    37    1
    11    36    29    1
    12    32    34    1
    13    32    28    1
    14    41    38    1
    15    20    19    1
    16     3     2   ar
    17     3     4   ar
    18    29    28   ar
    19    29    30   ar
    20    37    38   ar
    21    37    39   ar
    22    28    27   ar
    23     2     1   ar
    24    38    40   ar
    25    30    39    1
    26    30    31   ar
    27    27    31   ar
    28    27    18    1
    29    39    42   ar
    30    19    18   ar
    31    19    15   ar
    32     4    15    1
    33     4     5   ar
    34    18    17   ar
    35    40    45    1
    36    40    43   ar
    37    15    16   ar
    38     1     5   ar
    39     1     7    1
    40    42    43   ar
    41    42    44    1
    42    43    47    1
    43    17    16   ar
    44    17    24    1
    45    26    24    1
    46    16    21    1
    47     5     6    1
    48    24    25    1
    49    47    48    1
    50    21    22    3
    51    22    23    1
