@<TRIPOS>MOLECULE
mol_data/opt/cam/geoms/mol2/13dl13dl-13dl13dl-.out
 54 57 0 0 0
SMALL
GASTEIGER

@<TRIPOS>ATOM
      1 C           1.2641   -0.4508    0.0090 C.ar    1  LIG1        0.0233
      2 C           0.8986    0.8892    0.0328 C.ar    1  LIG1        0.1112
      3 C          -0.5280    0.9155    0.0315 C.ar    1  LIG1        0.1640
      4 C          -0.9721   -0.3953    0.0072 C.ar    1  LIG1        0.1078
      5 N           0.1490   -1.2032   -0.0059 N.ar    1  LIG1       -0.3553
      6 H           0.1233   -2.2139   -0.0243 H       1  LIG1        0.1655
      7 H           2.2511   -0.8854    0.0024 H       1  LIG1        0.0821
      8 N           2.5887    2.8355    0.0703 N.1     1  LIG1       -0.1907
      9 C           1.8224    1.9676    0.0535 C.1     1  LIG1        0.1044
     10 O          -1.4108    1.9336    0.0489 O.3     1  LIG1       -0.4916
     11 C          -0.9440    3.2799    0.0726 C.3     1  LIG1        0.0789
     12 H          -1.8449    3.8908    0.0823 H       1  LIG1        0.0660
     13 H          -0.3483    3.4697    0.9691 H       1  LIG1        0.0660
     14 H          -0.3466    3.5004   -0.8158 H       1  LIG1        0.0660
     15 C          -2.3308   -0.8647   -0.0030 C.ar    1  LIG1        0.0883
     16 C          -2.8577   -2.1674   -0.0272 C.ar    1  LIG1        0.1207
     17 C          -4.2763   -2.0315   -0.0266 C.ar    1  LIG1        0.1647
     18 C          -4.5708   -0.6799   -0.0027 C.ar    1  LIG1        0.1083
     19 N          -3.3675   -0.0008    0.0112 N.ar    1  LIG1       -0.3478
     20 H          -3.2379    1.0050    0.0295 H       1  LIG1        0.1661
     21 N          -1.2780   -4.1956   -0.0618 N.1     1  LIG1       -0.1907
     22 C          -2.0398   -3.3199   -0.0469 C.1     1  LIG1        0.1050
     23 O          -5.2610   -2.9480   -0.0445 O.3     1  LIG1       -0.4916
     24 C          -4.9396   -4.3355   -0.0686 C.3     1  LIG1        0.0789
     25 H          -4.3676   -4.5860   -0.9664 H       1  LIG1        0.0660
     26 H          -4.3702   -4.6175    0.8214 H       1  LIG1        0.0660
     27 H          -5.9001   -4.8477   -0.0790 H       1  LIG1        0.0660
     28 C          -5.8658   -0.0614    0.0068 C.ar    1  LIG1        0.0883
     29 C          -6.2498    1.2909    0.0304 C.ar    1  LIG1        0.1207
     30 C          -7.6787    1.3055    0.0289 C.ar    1  LIG1        0.1647
     31 C          -8.1157   -0.0030    0.0049 C.ar    1  LIG1        0.1083
     32 N          -6.9925   -0.8054   -0.0080 N.ar    1  LIG1       -0.3478
     33 H          -6.9795   -1.8198   -0.0261 H       1  LIG1        0.1661
     34 N          -4.5105    3.1872    0.0666 N.1     1  LIG1       -0.1907
     35 C          -5.3239    2.3592    0.0508 C.1     1  LIG1        0.1050
     36 O          -8.5566    2.3386    0.0463 O.3     1  LIG1       -0.4916
     37 C          -8.0382    3.6618    0.0689 C.3     1  LIG1        0.0789
     38 H          -8.9029    4.3241    0.0793 H       1  LIG1        0.0660
     39 H          -7.4361    3.8349    0.9650 H       1  LIG1        0.0660
     40 H          -7.4346    3.8648   -0.8200 H       1  LIG1        0.0660
     41 C          -9.4588   -0.5176   -0.0060 C.ar    1  LIG1        0.0878
     42 C          -9.9350   -1.8301   -0.0301 C.ar    1  LIG1        0.1200
     43 C         -11.3616   -1.7560   -0.0306 C.ar    1  LIG1        0.1553
     44 C         -11.7125   -0.4309   -0.0073 C.ar    1  LIG1        0.0457
     45 N         -10.5385    0.3002    0.0073 N.ar    1  LIG1       -0.3553
     46 H         -10.4527    1.3053    0.0255 H       1  LIG1        0.1655
     47 H         -12.6751    0.0506    0.0001 H       1  LIG1        0.0845
     48 N          -8.4174   -3.9069   -0.0654 N.1     1  LIG1       -0.1907
     49 C          -9.1337   -2.9942   -0.0500 C.1     1  LIG1        0.1050
     50 O         -12.1337   -2.8595   -0.0514 O.3     1  LIG1       -0.4923
     51 C         -13.5266   -2.6230   -0.0489 C.3     1  LIG1        0.0789
     52 H         -14.0097   -3.5990   -0.0670 H       1  LIG1        0.0660
     53 H         -13.8321   -2.0805    0.8541 H       1  LIG1        0.0660
     54 H         -13.8299   -2.0485   -0.9325 H       1  LIG1        0.0660
@<TRIPOS>BOND
     1    25    24    1
     2    54    51    1
     3    40    37    1
     4    14    11    1
     5    27    24    1
     6    24    23    1
     7    24    26    1
     8    52    51    1
     9    48    49    3
    10    21    22    3
    11    50    51    1
    12    50    43    1
    13    49    42    1
    14    51    53    1
    15    22    16    1
    16    23    17    1
    17    43    42   ar
    18    43    44   ar
    19    42    41   ar
    20    16    17   ar
    21    16    15   ar
    22    17    18   ar
    23    33    32    1
    24     6     5    1
    25    32    31   ar
    26    32    28   ar
    27    44    47    1
    28    44    45   ar
    29    41    31    1
    30    41    45   ar
    31     5     4   ar
    32     5     1   ar
    33    15     4    1
    34    15    19   ar
    35    18    28    1
    36    18    19   ar
    37     7     1    1
    38    31    30   ar
    39    28    29   ar
    40     4     3   ar
    41    45    46    1
    42     1     2   ar
    43    19    20    1
    44    30    29   ar
    45    30    36    1
    46    29    35    1
    47     3     2   ar
    48     3    10    1
    49     2     9    1
    50    36    37    1
    51    10    11    1
    52    35    34    3
    53     9     8    3
    54    37    38    1
    55    37    39    1
    56    11    12    1
    57    11    13    1
