@<TRIPOS>MOLECULE
mol_data/opt/cam/geoms/mol2/13dl13dl13dl.out
 41 43 0 0 0
SMALL
GASTEIGER

@<TRIPOS>ATOM
      1 C           1.1331   -0.0713   -1.3893 C.ar    1  LIG1        0.0233
      2 C           1.0947    0.9218   -0.4303 C.ar    1  LIG1        0.1112
      3 C          -0.1977    0.8586    0.1874 C.ar    1  LIG1        0.1640
      4 C          -0.8920   -0.1660   -0.4170 C.ar    1  LIG1        0.1078
      5 N          -0.0473   -0.7317   -1.3612 N.ar    1  LIG1       -0.3553
      6 H          -0.3414   -1.4042   -2.0513 H       1  LIG1        0.1655
      7 H           1.9231   -0.3331   -2.0755 H       1  LIG1        0.0821
      8 N           3.0590    2.4829    0.1614 N.1     1  LIG1       -0.1907
      9 C           2.1761    1.7832   -0.1054 C.1     1  LIG1        0.1044
     10 O          -0.6700    1.5586    1.2354 O.3     1  LIG1       -0.4916
     11 C          -0.5718    2.9842    1.1552 C.3     1  LIG1        0.0789
     12 H          -1.0226    3.3627    2.0713 H       1  LIG1        0.0660
     13 H           0.4700    3.3084    1.1010 H       1  LIG1        0.0660
     14 H          -1.1360    3.3571    0.2970 H       1  LIG1        0.0660
     15 C          -2.2260   -0.6696   -0.1624 C.ar    1  LIG1        0.0883
     16 C          -3.4312    0.0084   -0.0193 C.ar    1  LIG1        0.1207
     17 C          -4.4519   -0.9717    0.1920 C.ar    1  LIG1        0.1647
     18 C          -3.8487   -2.2105    0.1670 C.ar    1  LIG1        0.1083
     19 N          -2.4958   -1.9981   -0.0399 N.ar    1  LIG1       -0.3478
     20 H          -1.8034   -2.7277   -0.0960 H       1  LIG1        0.1661
     21 N          -3.6936    2.5694   -0.1206 N.1     1  LIG1       -0.1907
     22 C          -3.5758    1.4184   -0.0705 C.1     1  LIG1        0.1050
     23 O          -5.7582   -0.7856    0.4608 O.3     1  LIG1       -0.4916
     24 C          -6.4921    0.0379   -0.4506 C.3     1  LIG1        0.0789
     25 H          -7.5148    0.0535   -0.0766 H       1  LIG1        0.0660
     26 H          -6.0984    1.0566   -0.4724 H       1  LIG1        0.0660
     27 H          -6.4827   -0.3996   -1.4520 H       1  LIG1        0.0660
     28 C          -4.4103   -3.5331    0.3479 C.ar    1  LIG1        0.0878
     29 C          -5.5451   -4.1101   -0.2058 C.ar    1  LIG1        0.1200
     30 C          -5.6353   -5.4463    0.3074 C.ar    1  LIG1        0.1553
     31 C          -4.5673   -5.6381    1.1400 C.ar    1  LIG1        0.0457
     32 N          -3.8241   -4.4781    1.1385 N.ar    1  LIG1       -0.3553
     33 H          -3.0728   -4.2833    1.7805 H       1  LIG1        0.1655
     34 H          -4.2813   -6.5073    1.7089 H       1  LIG1        0.0845
     35 N          -7.0671   -2.9895   -1.9562 N.1     1  LIG1       -0.1907
     36 C          -6.3840   -3.4907   -1.1660 C.1     1  LIG1        0.1050
     37 O          -6.5381   -6.4040   -0.0071 O.3     1  LIG1       -0.4923
     38 C          -7.9071   -6.0449    0.1554 C.3     1  LIG1        0.0789
     39 H          -8.4842   -6.9411   -0.0713 H       1  LIG1        0.0660
     40 H          -8.1075   -5.7320    1.1858 H       1  LIG1        0.0660
     41 H          -8.2005   -5.2459   -0.5306 H       1  LIG1        0.0660
@<TRIPOS>BOND
     1     7     1    1
     2     6     5    1
     3    35    36    3
     4    27    24    1
     5     1     5   ar
     6     1     2   ar
     7     5     4   ar
     8    36    29    1
     9    41    38    1
    10    26    24    1
    11    24    25    1
    12    24    23    1
    13     2     9    1
    14     2     3   ar
    15     4    15    1
    16     4     3   ar
    17    29    30   ar
    18    29    28   ar
    19    15    19   ar
    20    15    16   ar
    21    21    22    3
    22     9     8    3
    23    20    19    1
    24    39    38    1
    25    22    16    1
    26    19    18   ar
    27    16    17   ar
    28    37    38    1
    29    37    30    1
    30    38    40    1
    31    18    17   ar
    32    18    28    1
    33     3    10    1
    34    17    23    1
    35    14    11    1
    36    30    31   ar
    37    28    32   ar
    38    13    11    1
    39    32    31   ar
    40    32    33    1
    41    31    34    1
    42    11    10    1
    43    11    12    1
