@<TRIPOS>MOLECULE
mol_data/opt/cam/geoms/mol2/13dl13fl-12ia-12hh.out
 49 52 0 0 0
SMALL
GASTEIGER

@<TRIPOS>ATOM
      1 C           1.2990    0.0720    1.3008 C.ar    1  LIG1        0.0233
      2 C           1.1417    1.0550    0.3454 C.ar    1  LIG1        0.1112
      3 C          -0.1988    0.9504   -0.1495 C.ar    1  LIG1        0.1641
      4 C          -0.8143   -0.0787    0.5253 C.ar    1  LIG1        0.1101
      5 N           0.1276   -0.6050    1.3937 N.ar    1  LIG1       -0.3553
      6 H          -0.0773   -1.3151    2.0777 H       1  LIG1        0.1655
      7 H           2.1588   -0.1785    1.9017 H       1  LIG1        0.0821
      8 N           2.9391    2.7284   -0.4370 N.1     1  LIG1       -0.1907
      9 C           2.1375    1.9706   -0.0846 C.1     1  LIG1        0.1044
     10 O          -0.7508    1.6647   -1.1580 O.3     1  LIG1       -0.4916
     11 C          -1.0109    3.0332   -0.8533 C.3     1  LIG1        0.0789
     12 H          -1.4287    3.4725   -1.7595 H       1  LIG1        0.0660
     13 H          -1.7382    3.1096   -0.0406 H       1  LIG1        0.0660
     14 H          -0.0898    3.5634   -0.5906 H       1  LIG1        0.0660
     15 C          -2.1582   -0.6034    0.4316 C.ar    1  LIG1        0.1128
     16 C          -3.3724    0.0378    0.3342 C.ar    1  LIG1        0.1867
     17 C          -4.3870   -0.9460    0.3000 C.ar    1  LIG1        0.1904
     18 C          -3.7864   -2.1893    0.3962 C.ar    1  LIG1        0.1288
     19 N          -2.4355   -1.9593    0.4868 N.ar    1  LIG1       -0.3446
     20 H          -1.7592   -2.6918    0.3378 H       1  LIG1        0.1663
     21 O          -3.5886    1.3767    0.3122 O.3     1  LIG1       -0.5019
     22 H          -4.5467    1.5006    0.3655 H       1  LIG1        0.2924
     23 O          -5.7152   -0.6131    0.2158 O.3     1  LIG1       -0.4894
     24 C          -6.2790   -0.8417   -1.0748 C.3     1  LIG1        0.0791
     25 H          -7.3109   -0.4902   -1.0336 H       1  LIG1        0.0660
     26 H          -5.7298   -0.2885   -1.8437 H       1  LIG1        0.0660
     27 H          -6.2661   -1.9074   -1.3235 H       1  LIG1        0.0660
     28 C          -4.2851   -3.5453    0.3894 C.ar    1  LIG1        0.1585
     29 C          -5.4687   -4.1576    0.6910 C.ar    1  LIG1       -0.0024
     30 C          -5.2352   -5.5585    0.5089 C.ar    1  LIG1       -0.0091
     31 C          -3.9367   -5.7042    0.1194 C.ar    1  LIG1        0.1728
     32 O          -3.3459   -4.4827    0.0357 O.2     1  LIG1       -0.4498
     33 C          -6.7359   -3.5371    1.1872 C.3     1  LIG1       -0.0360
     34 H          -7.0154   -3.9582    2.1578 H       1  LIG1        0.0279
     35 H          -7.5670   -3.7335    0.5016 H       1  LIG1        0.0279
     36 H          -6.6364   -2.4573    1.2977 H       1  LIG1        0.0279
     37 H          -5.9321   -6.3592    0.7118 H       1  LIG1        0.0659
     38 C          -3.1571   -6.8554   -0.2381 C.ar    1  LIG1        0.1920
     39 C          -3.5366   -8.0978   -0.6615 C.ar    1  LIG1        0.0950
     40 C          -2.3267   -8.8424   -0.8516 C.ar    1  LIG1        0.0846
     41 C          -1.3108   -7.9951   -0.5432 C.ar    1  LIG1        0.1152
     42 O          -1.7915   -6.7798   -0.1764 O.2     1  LIG1       -0.4560
     43 H          -0.2377   -8.1014   -0.5593 H       1  LIG1        0.1049
     44 N          -4.8104   -8.6162   -0.8734 N.pl3   1  LIG1       -0.3535
     45 H          -5.4995   -7.9027   -1.0790 H       1  LIG1        0.1425
     46 H          -4.7981   -9.3224   -1.6013 H       1  LIG1        0.1425
     47 N          -2.3202  -10.1583   -1.3487 N.pl3   1  LIG1       -0.3541
     48 H          -1.3905  -10.4842   -1.5803 H       1  LIG1        0.1425
     49 H          -2.7457  -10.8104   -0.6980 H       1  LIG1        0.1425
@<TRIPOS>BOND
     1    26    24    1
     2    12    11    1
     3    46    44    1
     4    48    47    1
     5    47    40    1
     6    47    49    1
     7    27    24    1
     8    10    11    1
     9    10     3    1
    10    45    44    1
    11    24    25    1
    12    24    23    1
    13    44    39    1
    14    11    14    1
    15    11    13    1
    16    40    39   ar
    17    40    41   ar
    18    39    38   ar
    19    43    41    1
    20    41    42   ar
    21     8     9    3
    22    38    42   ar
    23    38    31    1
    24     3     2   ar
    25     3     4   ar
    26     9     2    1
    27    32    31   ar
    28    32    28   ar
    29    31    30   ar
    30    23    17    1
    31    17    16   ar
    32    17    18   ar
    33    21    16    1
    34    21    22    1
    35    16    15   ar
    36    20    19    1
    37     2     1   ar
    38    28    18    1
    39    28    29   ar
    40    18    19   ar
    41    15    19   ar
    42    15     4    1
    43    35    33    1
    44    30    29   ar
    45    30    37    1
    46     4     5   ar
    47    29    33    1
    48    33    36    1
    49    33    34    1
    50     1     5   ar
    51     1     7    1
    52     5     6    1
