@<TRIPOS>MOLECULE
mol_data/opt/cam/geoms/mol2/13dl13dl13dl13dl.out
 54 57 0 0 0
SMALL
GASTEIGER

@<TRIPOS>ATOM
      1 C           0.5603    0.3231   -2.3805 C.ar    1  LIG1        0.0233
      2 C           0.8827    1.0568   -1.2558 C.ar    1  LIG1        0.1112
      3 C          -0.1631    0.8399   -0.2995 C.ar    1  LIG1        0.1640
      4 C          -1.0769   -0.0139   -0.8771 C.ar    1  LIG1        0.1078
      5 N          -0.5988   -0.3319   -2.1402 N.ar    1  LIG1       -0.3553
      6 H          -1.1332   -0.8201   -2.8410 H       1  LIG1        0.1655
      7 H           1.0853    0.2382   -3.3190 H       1  LIG1        0.0821
      8 N           3.0360    2.4422   -0.9566 N.1     1  LIG1       -0.1907
      9 C           2.0683    1.8214   -1.0921 C.1     1  LIG1        0.1044
     10 O          -0.2445    1.2648    0.9749 O.3     1  LIG1       -0.4916
     11 C          -0.0834    2.6697    1.1974 C.3     1  LIG1        0.0789
     12 H          -0.1987    2.8133    2.2706 H       1  LIG1        0.0660
     13 H           0.9077    3.0099    0.8888 H       1  LIG1        0.0660
     14 H          -0.8630    3.2291    0.6746 H       1  LIG1        0.0660
     15 C          -2.3020   -0.5730   -0.3434 C.ar    1  LIG1        0.0883
     16 C          -3.3578    0.0424    0.3202 C.ar    1  LIG1        0.1207
     17 C          -4.3318   -0.9663    0.6035 C.ar    1  LIG1        0.1647
     18 C          -3.8512   -2.1580    0.1059 C.ar    1  LIG1        0.1083
     19 N          -2.6113   -1.8936   -0.4543 N.ar    1  LIG1       -0.3478
     20 H          -2.0215   -2.5801   -0.8968 H       1  LIG1        0.1661
     21 N          -3.4611    2.5489    0.9066 N.1     1  LIG1       -0.1907
     22 C          -3.4135    1.4214    0.6467 C.1     1  LIG1        0.1050
     23 O          -5.4790   -0.8638    1.2993 O.3     1  LIG1       -0.4916
     24 C          -6.3927    0.1609    0.8941 C.3     1  LIG1        0.0789
     25 H          -7.2535    0.0654    1.5541 H       1  LIG1        0.0660
     26 H          -5.9538    1.1544    1.0102 H       1  LIG1        0.0660
     27 H          -6.7119   -0.0008   -0.1384 H       1  LIG1        0.0660
     28 C          -4.4298   -3.4858    0.1396 C.ar    1  LIG1        0.0883
     29 C          -5.7007   -3.9189   -0.2202 C.ar    1  LIG1        0.1207
     30 C          -5.7457   -5.3339   -0.0167 C.ar    1  LIG1        0.1647
     31 C          -4.5099   -5.7242    0.4526 C.ar    1  LIG1        0.1083
     32 N          -3.7326   -4.5822    0.5465 N.ar    1  LIG1       -0.3478
     33 H          -2.7829   -4.5627    0.8824 H       1  LIG1        0.1661
     34 N          -7.5753   -2.3748   -1.0799 N.1     1  LIG1       -0.1907
     35 C          -6.7362   -3.0711   -0.6894 C.1     1  LIG1        0.1050
     36 O          -6.7899   -6.1732   -0.1526 O.3     1  LIG1       -0.4916
     37 C          -7.4680   -6.1576   -1.4124 C.3     1  LIG1        0.0789
     38 H          -8.2596   -6.9011   -1.3309 H       1  LIG1        0.0660
     39 H          -7.9097   -5.1791   -1.6151 H       1  LIG1        0.0660
     40 H          -6.7855   -6.4457   -2.2158 H       1  LIG1        0.0660
     41 C          -4.0219   -7.0337    0.8346 C.ar    1  LIG1        0.0878
     42 C          -4.1148   -8.2516    0.1746 C.ar    1  LIG1        0.1200
     43 C          -3.4570   -9.2289    0.9924 C.ar    1  LIG1        0.1553
     44 C          -2.9883   -8.5833    2.1037 C.ar    1  LIG1        0.0457
     45 N          -3.3208   -7.2521    1.9841 N.ar    1  LIG1       -0.3553
     46 H          -3.2341   -6.5755    2.7254 H       1  LIG1        0.1655
     47 H          -2.4383   -8.9684    2.9464 H       1  LIG1        0.0845
     48 N          -5.1452   -8.5800   -2.1635 N.1     1  LIG1       -0.1907
     49 C          -4.6855   -8.4338   -1.1102 C.1     1  LIG1        0.1050
     50 O          -3.2393  -10.5368    0.7232 O.3     1  LIG1       -0.4923
     51 C          -4.3921  -11.3034    0.3874 C.3     1  LIG1        0.0789
     52 H          -4.0507  -12.3328    0.2808 H       1  LIG1        0.0660
     53 H          -5.1420  -11.2475    1.1838 H       1  LIG1        0.0660
     54 H          -4.8376  -10.9735   -0.5549 H       1  LIG1        0.0660
@<TRIPOS>BOND
     1     7     1    1
     2     6     5    1
     3     1     5   ar
     4     1     2   ar
     5    40    37    1
     6    48    49    3
     7     5     4   ar
     8    39    37    1
     9    37    38    1
    10    37    36    1
    11     2     9    1
    12     2     3   ar
    13    49    42    1
    14     9     8    3
    15    34    35    3
    16    20    19    1
    17     4    15    1
    18     4     3   ar
    19    35    29    1
    20    54    51    1
    21    19    15   ar
    22    19    18   ar
    23    15    16   ar
    24     3    10    1
    25    29    30   ar
    26    29    28   ar
    27    36    30    1
    28    27    24    1
    29    30    31   ar
    30    18    28    1
    31    18    17   ar
    32    28    32   ar
    33    42    41   ar
    34    42    43   ar
    35    52    51    1
    36    16    17   ar
    37    16    22    1
    38    51    50    1
    39    51    53    1
    40    31    32   ar
    41    31    41    1
    42    32    33    1
    43    17    23    1
    44    22    21    3
    45    14    11    1
    46    50    43    1
    47    41    45   ar
    48    13    11    1
    49    24    26    1
    50    24    23    1
    51    24    25    1
    52    10    11    1
    53    43    44   ar
    54    11    12    1
    55    45    44   ar
    56    45    46    1
    57    44    47    1
