@<TRIPOS>MOLECULE
mol_data/opt/cam/geoms/mol2/13dl13dl-13dl-13dl.out
 54 57 0 0 0
SMALL
GASTEIGER

@<TRIPOS>ATOM
      1 C           1.0883   -0.4489   -0.4057 C.ar    1  LIG1        0.0233
      2 C           0.6961    0.8601   -0.6489 C.ar    1  LIG1        0.1112
      3 C          -0.7249    0.8850   -0.5198 C.ar    1  LIG1        0.1640
      4 C          -1.1396   -0.3967   -0.2076 C.ar    1  LIG1        0.1078
      5 N          -0.0084   -1.1871   -0.1502 N.ar    1  LIG1       -0.3553
      6 H          -0.0127   -2.1724    0.0777 H       1  LIG1        0.1655
      7 H           2.0794   -0.8740   -0.4078 H       1  LIG1        0.0821
      8 N           2.3092    2.7734   -1.2667 N.1     1  LIG1       -0.1907
      9 C           1.5815    1.9174   -0.9873 C.1     1  LIG1        0.1044
     10 O          -1.6146    1.8904   -0.6756 O.3     1  LIG1       -0.4916
     11 C          -1.1659    3.2368   -0.4876 C.3     1  LIG1        0.0789
     12 H          -2.0695    3.8355   -0.3859 H       1  LIG1        0.0660
     13 H          -0.5673    3.3157    0.4238 H       1  LIG1        0.0660
     14 H          -0.5746    3.5697   -1.3430 H       1  LIG1        0.0660
     15 C          -2.4784   -0.8616    0.0345 C.ar    1  LIG1        0.0883
     16 C          -2.9693   -2.1160    0.4072 C.ar    1  LIG1        0.1207
     17 C          -4.3911   -1.9984    0.5055 C.ar    1  LIG1        0.1647
     18 C          -4.7234   -0.7010    0.1752 C.ar    1  LIG1        0.1083
     19 N          -3.5387   -0.0299   -0.0877 N.ar    1  LIG1       -0.3478
     20 H          -3.4287    0.9197   -0.4217 H       1  LIG1        0.1661
     21 N          -1.3736   -4.0826    0.8539 N.1     1  LIG1       -0.1907
     22 C          -2.1361   -3.2274    0.6686 C.1     1  LIG1        0.1050
     23 O          -5.2840   -2.9048    0.9396 O.3     1  LIG1       -0.4916
     24 C          -5.2201   -4.2093    0.3629 C.3     1  LIG1        0.0789
     25 H          -6.0755   -4.7523    0.7601 H       1  LIG1        0.0660
     26 H          -5.3089   -4.1531   -0.7253 H       1  LIG1        0.0660
     27 H          -4.2950   -4.7214    0.6408 H       1  LIG1        0.0660
     28 C          -5.9958   -0.0247    0.1422 C.ar    1  LIG1        0.0883
     29 C          -7.2884   -0.4834   -0.1231 C.ar    1  LIG1        0.1207
     30 C          -8.1504    0.6533   -0.0515 C.ar    1  LIG1        0.1647
     31 C          -7.3794    1.7572    0.2398 C.ar    1  LIG1        0.1083
     32 N          -6.0777    1.3152    0.3582 N.ar    1  LIG1       -0.3478
     33 H          -5.3092    1.8998    0.6551 H       1  LIG1        0.1661
     34 N          -7.9996   -2.8737   -0.7659 N.1     1  LIG1       -0.1907
     35 C          -7.6599   -1.8089   -0.4607 C.1     1  LIG1        0.1050
     36 O          -9.5019    0.7245   -0.1845 O.3     1  LIG1       -0.4916
     37 C         -10.0673    0.0884   -1.3348 C.3     1  LIG1        0.0789
     38 H         -11.1295    0.3308   -1.3221 H       1  LIG1        0.0660
     39 H          -9.6107    0.4753   -2.2512 H       1  LIG1        0.0660
     40 H          -9.9416   -0.9945   -1.2905 H       1  LIG1        0.0660
     41 C          -7.7799    3.1307    0.4026 C.ar    1  LIG1        0.0878
     42 C          -7.0189    4.3009    0.5395 C.ar    1  LIG1        0.1200
     43 C          -7.9501    5.3882    0.6571 C.ar    1  LIG1        0.1553
     44 C          -9.2096    4.8531    0.5878 C.ar    1  LIG1        0.0457
     45 N          -9.0804    3.4911    0.4347 N.ar    1  LIG1       -0.3553
     46 H          -9.8242    2.8126    0.3482 H       1  LIG1        0.1655
     47 H         -10.1674    5.3422    0.6397 H       1  LIG1        0.0845
     48 N          -4.4535    4.1454    0.4837 N.1     1  LIG1       -0.1907
     49 C          -5.6067    4.2816    0.5148 C.1     1  LIG1        0.1050
     50 O          -7.7329    6.7116    0.8011 O.3     1  LIG1       -0.4923
     51 C          -6.3977    7.1509    0.9697 C.3     1  LIG1        0.0789
     52 H          -6.4512    8.2290    1.1179 H       1  LIG1        0.0660
     53 H          -5.9306    6.6895    1.8462 H       1  LIG1        0.0660
     54 H          -5.7895    6.9405    0.0839 H       1  LIG1        0.0660
@<TRIPOS>BOND
     1    39    37    1
     2    14    11    1
     3    37    38    1
     4    37    40    1
     5    37    36    1
     6     8     9    3
     7     9     2    1
     8    34    35    3
     9    26    24    1
    10    10     3    1
    11    10    11    1
    12     2     3   ar
    13     2     1   ar
    14     3     4   ar
    15    11    12    1
    16    11    13    1
    17    35    29    1
    18    20    19    1
    19     7     1    1
    20     1     5   ar
    21     4     5   ar
    22     4    15    1
    23    36    30    1
    24     5     6    1
    25    29    30   ar
    26    29    28   ar
    27    19    15   ar
    28    19    18   ar
    29    30    31   ar
    30    15    16   ar
    31    54    51    1
    32    28    18    1
    33    28    32   ar
    34    18    17   ar
    35    31    32   ar
    36    31    41    1
    37    46    45    1
    38    32    33    1
    39    24    27    1
    40    24    25    1
    41    24    23    1
    42    41    45   ar
    43    41    42   ar
    44    16    17   ar
    45    16    22    1
    46    45    44   ar
    47    48    49    3
    48    17    23    1
    49    49    42    1
    50    42    43   ar
    51    44    47    1
    52    44    43   ar
    53    43    50    1
    54    22    21    3
    55    50    51    1
    56    51    52    1
    57    51    53    1
