@<TRIPOS>MOLECULE
mol_data/opt/cam/geoms/mol2/13dl13dl13dl13dl-.out
 54 57 0 0 0
SMALL
GASTEIGER

@<TRIPOS>ATOM
      1 C           1.3415   -0.6884   -0.1526 C.ar    1  LIG1        0.0233
      2 C           1.1029    0.6309   -0.4908 C.ar    1  LIG1        0.1112
      3 C          -0.3149    0.8248   -0.4413 C.ar    1  LIG1        0.1640
      4 C          -0.8810   -0.3768   -0.0692 C.ar    1  LIG1        0.1078
      5 N           0.1542   -1.2886    0.0814 N.ar    1  LIG1       -0.3553
      6 H           0.0488   -2.2301    0.4310 H       1  LIG1        0.1655
      7 H           2.2780   -1.2165   -0.0654 H       1  LIG1        0.0821
      8 N           2.9089    2.3397   -1.1712 N.1     1  LIG1       -0.1907
      9 C           2.0985    1.5716   -0.8651 C.1     1  LIG1        0.1044
     10 O          -1.0357    1.9066   -0.7875 O.3     1  LIG1       -0.4916
     11 C          -0.6680    3.1505   -0.1849 C.3     1  LIG1        0.0789
     12 H          -1.3831    3.8821   -0.5566 H       1  LIG1        0.0660
     13 H          -0.7558    3.0878    0.9027 H       1  LIG1        0.0660
     14 H           0.3442    3.4459   -0.4708 H       1  LIG1        0.0660
     15 C          -2.2600   -0.7630    0.1033 C.ar    1  LIG1        0.0883
     16 C          -3.3789   -0.0655    0.5452 C.ar    1  LIG1        0.1207
     17 C          -4.4816   -0.9835    0.5455 C.ar    1  LIG1        0.1647
     18 C          -4.0120   -2.1991    0.1056 C.ar    1  LIG1        0.1083
     19 N          -2.6509   -2.0467   -0.1339 N.ar    1  LIG1       -0.3478
     20 H          -2.1140   -2.6868   -0.7007 H       1  LIG1        0.1661
     21 N          -3.4308    2.3381    1.4692 N.1     1  LIG1       -0.1907
     22 C          -3.3953    1.2618    1.0429 C.1     1  LIG1        0.1050
     23 O          -5.7258   -0.7862    1.0175 O.3     1  LIG1       -0.4916
     24 C          -6.4750    0.2773    0.4223 C.3     1  LIG1        0.0789
     25 H          -7.4392    0.2798    0.9274 H       1  LIG1        0.0660
     26 H          -5.9802    1.2406    0.5684 H       1  LIG1        0.0660
     27 H          -6.6292    0.0839   -0.6424 H       1  LIG1        0.0660
     28 C          -4.5915   -3.5149    0.0210 C.ar    1  LIG1        0.0883
     29 C          -5.8780   -3.9991   -0.2432 C.ar    1  LIG1        0.1207
     30 C          -5.7831   -5.4286   -0.2360 C.ar    1  LIG1        0.1647
     31 C          -4.4679   -5.7653    0.0128 C.ar    1  LIG1        0.1083
     32 N          -3.7759   -4.5837    0.1643 N.ar    1  LIG1       -0.3478
     33 H          -2.8171   -4.5310    0.4780 H       1  LIG1        0.1661
     34 N          -7.8997   -2.5120   -0.8257 N.1     1  LIG1       -0.1907
     35 C          -6.9944   -3.1810   -0.5518 C.1     1  LIG1        0.1050
     36 O          -6.7129   -6.3904   -0.4394 O.3     1  LIG1       -0.4916
     37 C          -8.0727   -5.9988   -0.6004 C.3     1  LIG1        0.0789
     38 H          -8.6415   -6.9239   -0.6840 H       1  LIG1        0.0660
     39 H          -8.4224   -5.4298    0.2650 H       1  LIG1        0.0660
     40 H          -8.2076   -5.4022   -1.5054 H       1  LIG1        0.0660
     41 C          -3.8117   -7.0404    0.0821 C.ar    1  LIG1        0.0878
     42 C          -2.4504   -7.3345    0.2192 C.ar    1  LIG1        0.1200
     43 C          -2.3306   -8.7584    0.2241 C.ar    1  LIG1        0.1553
     44 C          -3.5905   -9.2826    0.0904 C.ar    1  LIG1        0.0457
     45 N          -4.4716   -8.2168    0.0078 N.ar    1  LIG1       -0.3553
     46 H          -5.4720   -8.2682   -0.1149 H       1  LIG1        0.1655
     47 H          -3.9357  -10.3012    0.0477 H       1  LIG1        0.0845
     48 N          -0.7211   -5.4397    0.3610 N.1     1  LIG1       -0.1907
     49 C          -1.4396   -6.3515    0.3034 C.1     1  LIG1        0.1050
     50 O          -1.1397   -9.3736    0.3424 O.3     1  LIG1       -0.4923
     51 C          -1.1827  -10.7872    0.3265 C.3     1  LIG1        0.0789
     52 H          -0.1547  -11.1317    0.4292 H       1  LIG1        0.0660
     53 H          -1.7822  -11.1709    1.1605 H       1  LIG1        0.0660
     54 H          -1.6000  -11.1566   -0.6177 H       1  LIG1        0.0660
@<TRIPOS>BOND
     1    40    37    1
     2     8     9    3
     3     9     2    1
     4    34    35    3
     5    10     3    1
     6    10    11    1
     7    20    19    1
     8    38    37    1
     9    27    24    1
    10    54    51    1
    11    37    36    1
    12    37    39    1
    13    12    11    1
    14    35    29    1
    15     2     3   ar
    16     2     1   ar
    17    14    11    1
    18     3     4   ar
    19    36    30    1
    20    29    30   ar
    21    29    28   ar
    22    30    31   ar
    23    11    13    1
    24     1     7    1
    25     1     5   ar
    26    19    15   ar
    27    19    18   ar
    28    46    45    1
    29     4     5   ar
    30     4    15    1
    31    45    41   ar
    32    45    44   ar
    33    31    41    1
    34    31    32   ar
    35    28    18    1
    36    28    32   ar
    37    47    44    1
    38     5     6    1
    39    41    42   ar
    40    44    43   ar
    41    15    16   ar
    42    18    17   ar
    43    32    33    1
    44    42    43   ar
    45    42    49    1
    46    43    50    1
    47    49    48    3
    48    51    50    1
    49    51    52    1
    50    51    53    1
    51    24    26    1
    52    24    25    1
    53    24    23    1
    54    16    17   ar
    55    16    22    1
    56    17    23    1
    57    22    21    3
