@<TRIPOS>MOLECULE
mol_data/opt/cam/geoms/mol2/13dl13dl.out
 28 29 0 0 0
SMALL
GASTEIGER

@<TRIPOS>ATOM
      1 C           1.3228   -0.4300   -0.4170 C.ar    1  LIG1        0.0233
      2 C           1.0529    0.8394    0.0549 C.ar    1  LIG1        0.1112
      3 C          -0.3611    0.9116    0.2813 C.ar    1  LIG1        0.1640
      4 C          -0.8950   -0.3114   -0.0603 C.ar    1  LIG1        0.1078
      5 N           0.1582   -1.1177   -0.4638 N.ar    1  LIG1       -0.3553
      6 H           0.0425   -2.0195   -0.8973 H       1  LIG1        0.1655
      7 H           2.2625   -0.8669   -0.7164 H       1  LIG1        0.0821
      8 N           2.8228    2.6545    0.5221 N.1     1  LIG1       -0.1907
      9 C           2.0280    1.8394    0.3112 C.1     1  LIG1        0.1044
     10 O          -1.0773    1.9151    0.8242 O.3     1  LIG1       -0.4916
     11 C          -0.9334    3.2036    0.2192 C.3     1  LIG1        0.0789
     12 H          -1.5938    3.8671    0.7757 H       1  LIG1        0.0660
     13 H           0.0944    3.5664    0.2955 H       1  LIG1        0.0660
     14 H          -1.2537    3.1724   -0.8251 H       1  LIG1        0.0660
     15 C          -2.2600   -0.7916   -0.0041 C.ar    1  LIG1        0.0878
     16 C          -3.4472   -0.1817   -0.3864 C.ar    1  LIG1        0.1200
     17 C          -4.5068   -1.1102   -0.1164 C.ar    1  LIG1        0.1553
     18 C          -3.9400   -2.2385    0.4083 C.ar    1  LIG1        0.0457
     19 N          -2.5775   -2.0375    0.4517 N.ar    1  LIG1       -0.3553
     20 H          -1.9268   -2.6417    0.9269 H       1  LIG1        0.1655
     21 H          -4.3994   -3.1583    0.7304 H       1  LIG1        0.0845
     22 N          -3.6437    2.1214   -1.5233 N.1     1  LIG1       -0.1907
     23 C          -3.5505    1.0878   -1.0084 C.1     1  LIG1        0.1050
     24 O          -5.8255   -0.9738   -0.3898 O.3     1  LIG1       -0.4923
     25 C          -6.4545    0.1819    0.1559 C.3     1  LIG1        0.0789
     26 H          -7.5106    0.1024   -0.1016 H       1  LIG1        0.0660
     27 H          -6.3447    0.2065    1.2455 H       1  LIG1        0.0660
     28 H          -6.0493    1.1032   -0.2709 H       1  LIG1        0.0660
@<TRIPOS>BOND
     1    22    23    3
     2    23    16    1
     3     6     5    1
     4    14    11    1
     5     7     1    1
     6     5     1   ar
     7     5     4   ar
     8     1     2   ar
     9    24    17    1
    10    24    25    1
    11    16    17   ar
    12    16    15   ar
    13    28    25    1
    14    17    18   ar
    15    26    25    1
    16     4    15    1
    17     4     3   ar
    18    15    19   ar
    19     2     3   ar
    20     2     9    1
    21    25    27    1
    22    11    13    1
    23    11    12    1
    24    11    10    1
    25     3    10    1
    26     9     8    3
    27    18    19   ar
    28    18    21    1
    29    19    20    1
