@<TRIPOS>MOLECULE
mol_data/opt/cam/geoms/mol2/13dl13dl13dl-13dl.out
 54 57 0 0 0
SMALL
GASTEIGER

@<TRIPOS>ATOM
      1 C           1.3491   -0.4461   -0.4177 C.ar    1  LIG1        0.0233
      2 C           1.0590    0.7490    0.2135 C.ar    1  LIG1        0.1112
      3 C          -0.3605    0.7890    0.4010 C.ar    1  LIG1        0.1640
      4 C          -0.8783   -0.3751   -0.1288 C.ar    1  LIG1        0.1078
      5 N           0.1919   -1.1180   -0.6032 N.ar    1  LIG1       -0.3553
      6 H           0.1060   -1.9791   -1.1199 H       1  LIG1        0.1655
      7 H           2.3006   -0.8400   -0.7382 H       1  LIG1        0.0821
      8 N           2.8113    2.4798    0.9743 N.1     1  LIG1       -0.1907
      9 C           2.0238    1.7031    0.6323 C.1     1  LIG1        0.1044
     10 O          -1.1036    1.6963    1.0600 O.3     1  LIG1       -0.4916
     11 C          -0.9106    3.0699    0.7118 C.3     1  LIG1        0.0789
     12 H          -1.6281    3.6298    1.3092 H       1  LIG1        0.0660
     13 H           0.1030    3.4008    0.9491 H       1  LIG1        0.0660
     14 H          -1.1281    3.2290   -0.3472 H       1  LIG1        0.0660
     15 C          -2.2337   -0.8708   -0.1731 C.ar    1  LIG1        0.0883
     16 C          -3.4470   -0.1992   -0.3564 C.ar    1  LIG1        0.1207
     17 C          -4.4715   -1.1914   -0.3339 C.ar    1  LIG1        0.1647
     18 C          -3.8679   -2.4218   -0.1535 C.ar    1  LIG1        0.1083
     19 N          -2.5065   -2.1949   -0.0669 N.ar    1  LIG1       -0.3478
     20 H          -1.8323   -2.9040    0.1868 H       1  LIG1        0.1661
     21 N          -3.6827    2.3119   -0.8811 N.1     1  LIG1       -0.1907
     22 C          -3.5750    1.1862   -0.6308 C.1     1  LIG1        0.1050
     23 O          -5.8059   -1.1027   -0.4880 O.3     1  LIG1       -0.4916
     24 C          -6.4565    0.1596   -0.3361 C.3     1  LIG1        0.0789
     25 H          -7.5201   -0.0716   -0.3276 H       1  LIG1        0.0660
     26 H          -6.1650    0.6323    0.6059 H       1  LIG1        0.0660
     27 H          -6.2159    0.8239   -1.1685 H       1  LIG1        0.0660
     28 C          -4.4898   -3.7123   -0.0653 C.ar    1  LIG1        0.0883
     29 C          -3.9298   -4.9943    0.0621 C.ar    1  LIG1        0.1207
     30 C          -5.0227   -5.9115    0.1113 C.ar    1  LIG1        0.1647
     31 C          -6.1916   -5.1831    0.0135 C.ar    1  LIG1        0.1083
     32 N          -5.8318   -3.8537   -0.0950 N.ar    1  LIG1       -0.3478
     33 H          -6.4619   -3.0642   -0.1927 H       1  LIG1        0.1661
     34 N          -1.3729   -5.2496    0.1190 N.1     1  LIG1       -0.1907
     35 C          -2.5332   -5.2025    0.1001 C.1     1  LIG1        0.1050
     36 O          -5.0375   -7.2626    0.2223 O.3     1  LIG1       -0.4916
     37 C          -3.7969   -7.9307    0.4080 C.3     1  LIG1        0.0789
     38 H          -4.0353   -8.9883    0.5128 H       1  LIG1        0.0660
     39 H          -3.1399   -7.7905   -0.4549 H       1  LIG1        0.0660
     40 H          -3.2921   -7.5798    1.3127 H       1  LIG1        0.0660
     41 C          -7.5527   -5.6536    0.0181 C.ar    1  LIG1        0.0878
     42 C          -8.7714   -4.9621   -0.0452 C.ar    1  LIG1        0.1200
     43 C          -9.8114   -5.9521   -0.0011 C.ar    1  LIG1        0.1553
     44 C          -9.2046   -7.1770    0.0857 C.ar    1  LIG1        0.0457
     45 N          -7.8437   -6.9719    0.0960 N.ar    1  LIG1       -0.3553
     46 H          -7.1262   -7.6793    0.1552 H       1  LIG1        0.1655
     47 H          -9.6431   -8.1590    0.1397 H       1  LIG1        0.0845
     48 N          -8.8360   -2.3932   -0.1856 N.1     1  LIG1       -0.1907
     49 C          -8.8518   -3.5523   -0.1236 C.1     1  LIG1        0.1050
     50 O         -11.1537   -5.8151   -0.0290 O.3     1  LIG1       -0.4923
     51 C         -11.6910   -4.5127   -0.1688 C.3     1  LIG1        0.0789
     52 H         -12.7735   -4.6353   -0.1913 H       1  LIG1        0.0660
     53 H         -11.4191   -3.8714    0.6756 H       1  LIG1        0.0660
     54 H         -11.3626   -4.0393   -1.0997 H       1  LIG1        0.0660
@<TRIPOS>BOND
     1    27    24    1
     2     6     5    1
     3    54    51    1
     4    21    22    3
     5     7     1    1
     6    22    16    1
     7     5     1   ar
     8     5     4   ar
     9    23    24    1
    10    23    17    1
    11    39    37    1
    12     1     2   ar
    13    16    17   ar
    14    16    15   ar
    15    14    11    1
    16    24    25    1
    17    24    26    1
    18    17    18   ar
    19    33    32    1
    20    52    51    1
    21    48    49    3
    22    15     4    1
    23    15    19   ar
    24    51    50    1
    25    51    53    1
    26    18    19   ar
    27    18    28    1
    28     4     3   ar
    29    49    42    1
    30    32    28   ar
    31    32    31   ar
    32    19    20    1
    33    28    29   ar
    34    42    43   ar
    35    42    41   ar
    36    50    43    1
    37    43    44   ar
    38    31    41    1
    39    31    30   ar
    40    41    45   ar
    41    29    35    1
    42    29    30   ar
    43    44    45   ar
    44    44    47    1
    45    45    46    1
    46    35    34    3
    47    30    36    1
    48     2     3   ar
    49     2     9    1
    50    36    37    1
    51     3    10    1
    52    37    38    1
    53    37    40    1
    54     9     8    3
    55    11    13    1
    56    11    10    1
    57    11    12    1
