@<TRIPOS>MOLECULE
mol_data/opt/cam/geoms/mol2/13dl13dl-13dl-13dl-.out
 54 57 0 0 0
SMALL
GASTEIGER

@<TRIPOS>ATOM
      1 C           0.7883   -2.2135   -0.2675 C.ar    1  LIG1        0.0233
      2 C           0.5772   -1.6722   -1.5294 C.ar    1  LIG1        0.1112
      3 C          -0.6693   -0.9809   -1.4654 C.ar    1  LIG1        0.1640
      4 C          -1.1644   -1.1258   -0.1809 C.ar    1  LIG1        0.1078
      5 N          -0.2489   -1.8842    0.5235 N.ar    1  LIG1       -0.3553
      6 H          -0.3534   -2.1479    1.4941 H       1  LIG1        0.1655
      7 H           1.6169   -2.8055    0.0875 H       1  LIG1        0.0821
      8 N           2.2142   -1.9517   -3.5011 N.1     1  LIG1       -0.1907
      9 C           1.4732   -1.8210   -2.6211 C.1     1  LIG1        0.1044
     10 O          -1.3596   -0.2799   -2.3864 O.3     1  LIG1       -0.4916
     11 C          -0.8389   -0.1313   -3.7047 C.3     1  LIG1        0.0789
     12 H          -1.5774    0.4685   -4.2338 H       1  LIG1        0.0660
     13 H           0.1248    0.3842   -3.6867 H       1  LIG1        0.0660
     14 H          -0.7235   -1.1040   -4.1896 H       1  LIG1        0.0660
     15 C          -2.3917   -0.6022    0.3541 C.ar    1  LIG1        0.0883
     16 C          -2.9587   -0.7053    1.6359 C.ar    1  LIG1        0.1207
     17 C          -4.1891    0.0125    1.5945 C.ar    1  LIG1        0.1647
     18 C          -4.3369    0.5233    0.3172 C.ar    1  LIG1        0.1083
     19 N          -3.2287    0.1314   -0.4092 N.ar    1  LIG1       -0.3478
     20 H          -3.0336    0.3439   -1.3816 H       1  LIG1        0.1661
     21 N          -1.7412   -2.0176    3.4815 N.1     1  LIG1       -0.1907
     22 C          -2.3366   -1.4128    2.6896 C.1     1  LIG1        0.1050
     23 O          -5.1253    0.2345    2.5347 O.3     1  LIG1       -0.4916
     24 C          -4.9566   -0.2982    3.8449 C.3     1  LIG1        0.0789
     25 H          -4.0522    0.1010    4.3127 H       1  LIG1        0.0660
     26 H          -5.8387    0.0228    4.3961 H       1  LIG1        0.0660
     27 H          -4.9050   -1.3902    3.8163 H       1  LIG1        0.0660
     28 C          -5.4197    1.3140   -0.1946 C.ar    1  LIG1        0.0883
     29 C          -5.6452    1.8688   -1.4666 C.ar    1  LIG1        0.1207
     30 C          -6.8944    2.5585   -1.3912 C.ar    1  LIG1        0.1647
     31 C          -7.3838    2.4097   -0.1097 C.ar    1  LIG1        0.1083
     32 N          -6.4666    1.6507    0.5889 N.ar    1  LIG1       -0.3478
     33 H          -6.5379    1.3668    1.5604 H       1  LIG1        0.1661
     34 N          -3.9687    1.5530   -3.3932 N.1     1  LIG1       -0.1907
     35 C          -4.7479    1.7168   -2.5486 C.1     1  LIG1        0.1050
     36 O          -7.5787    3.2621   -2.3267 O.3     1  LIG1       -0.4916
     37 C          -7.0104    3.3873   -3.6233 C.3     1  LIG1        0.0789
     38 H          -7.7118    3.9860   -4.2032 H       1  LIG1        0.0660
     39 H          -6.0434    3.8962   -3.5833 H       1  LIG1        0.0660
     40 H          -6.8878    2.4095   -4.0971 H       1  LIG1        0.0660
     41 C          -8.6011    2.9134    0.4676 C.ar    1  LIG1        0.0878
     42 C          -9.1245    2.7832    1.7557 C.ar    1  LIG1        0.1200
     43 C         -10.3670    3.4880    1.7739 C.ar    1  LIG1        0.1553
     44 C         -10.5664    4.0183    0.5255 C.ar    1  LIG1        0.0457
     45 N          -9.4796    3.6548   -0.2489 N.ar    1  LIG1       -0.3553
     46 H          -9.3228    3.8881   -1.2178 H       1  LIG1        0.1655
     47 H         -11.3697    4.6117    0.1241 H       1  LIG1        0.0845
     48 N          -7.9651    1.4878    3.6517 N.1     1  LIG1       -0.1907
     49 C          -8.5178    2.0808    2.8216 C.1     1  LIG1        0.1050
     50 O         -11.1324    3.5569    2.8801 O.3     1  LIG1       -0.4923
     51 C         -12.3322    4.2898    2.7405 C.3     1  LIG1        0.0789
     52 H         -12.8343    4.2549    3.7064 H       1  LIG1        0.0660
     53 H         -12.1271    5.3333    2.4725 H       1  LIG1        0.0660
     54 H         -12.9793    3.8434    1.9757 H       1  LIG1        0.0660
@<TRIPOS>BOND
     1    12    11    1
     2    38    37    1
     3    14    11    1
     4    40    37    1
     5    11    13    1
     6    11    10    1
     7    37    39    1
     8    37    36    1
     9     8     9    3
    10    34    35    3
    11     9     2    1
    12    35    29    1
    13    10     3    1
    14    36    30    1
    15     2     3   ar
    16     2     1   ar
    17    29    30   ar
    18    29    28   ar
    19     3     4   ar
    20    30    31   ar
    21    20    19    1
    22    46    45    1
    23    19    18   ar
    24    19    15   ar
    25     1     7    1
    26     1     5   ar
    27    45    41   ar
    28    45    44   ar
    29    28    18    1
    30    28    32   ar
    31     4    15    1
    32     4     5   ar
    33    31    41    1
    34    31    32   ar
    35    47    44    1
    36    18    17   ar
    37    15    16   ar
    38    41    42   ar
    39     5     6    1
    40    44    43   ar
    41    32    33    1
    42    17    16   ar
    43    17    23    1
    44    16    22    1
    45    42    43   ar
    46    42    49    1
    47    43    50    1
    48    54    51    1
    49    53    51    1
    50    23    24    1
    51    22    21    3
    52    51    50    1
    53    51    52    1
    54    49    48    3
    55    27    24    1
    56    24    25    1
    57    24    26    1
