@<TRIPOS>MOLECULE
mol_data/opt/cam/geoms/mol2/13dl13dl-13dl.out
 41 43 0 0 0
SMALL
GASTEIGER

@<TRIPOS>ATOM
      1 C           1.1126   -0.5859    0.2256 C.ar    1  LIG1        0.0233
      2 C           0.8024    0.7663    0.1571 C.ar    1  LIG1        0.1112
      3 C          -0.6212    0.8486    0.0976 C.ar    1  LIG1        0.1640
      4 C          -1.1182   -0.4426    0.1319 C.ar    1  LIG1        0.1078
      5 N          -0.0318   -1.2934    0.2100 N.ar    1  LIG1       -0.3553
      6 H          -0.0977   -2.3014    0.2495 H       1  LIG1        0.1655
      7 H           2.0801   -1.0586    0.2834 H       1  LIG1        0.0821
      8 N           2.5723    2.6405    0.1476 N.1     1  LIG1       -0.1907
      9 C           1.7695    1.8062    0.1513 C.1     1  LIG1        0.1044
     10 O          -1.4603    1.8989    0.0200 O.3     1  LIG1       -0.4916
     11 C          -0.9402    3.2258   -0.0054 C.3     1  LIG1        0.0789
     12 H          -1.8156    3.8697   -0.0650 H       1  LIG1        0.0660
     13 H          -0.3737    3.4386    0.9048 H       1  LIG1        0.0660
     14 H          -0.2989    3.3753   -0.8778 H       1  LIG1        0.0660
     15 C          -2.4945   -0.8579    0.0955 C.ar    1  LIG1        0.0883
     16 C          -3.0737   -2.1362    0.1263 C.ar    1  LIG1        0.1207
     17 C          -4.4868   -1.9435    0.0635 C.ar    1  LIG1        0.1647
     18 C          -4.7266   -0.5853   -0.0024 C.ar    1  LIG1        0.1083
     19 N          -3.4971    0.0432    0.0190 N.ar    1  LIG1       -0.3478
     20 H          -3.3310    1.0438   -0.0160 H       1  LIG1        0.1661
     21 N          -1.5797   -4.2240    0.2710 N.1     1  LIG1       -0.1907
     22 C          -2.3015   -3.3170    0.2053 C.1     1  LIG1        0.1050
     23 O          -5.5027   -2.8415    0.0612 O.3     1  LIG1       -0.4916
     24 C          -5.1760   -4.2228    0.1345 C.3     1  LIG1        0.0789
     25 H          -6.1242   -4.7587    0.1206 H       1  LIG1        0.0660
     26 H          -4.5711   -4.5311   -0.7227 H       1  LIG1        0.0660
     27 H          -4.6413   -4.4531    1.0602 H       1  LIG1        0.0660
     28 C          -5.9873    0.1066   -0.0799 C.ar    1  LIG1        0.0878
     29 C          -6.2917    1.4741   -0.1480 C.ar    1  LIG1        0.1200
     30 C          -7.7236    1.5764   -0.2083 C.ar    1  LIG1        0.1553
     31 C          -8.2250    0.3023   -0.1757 C.ar    1  LIG1        0.0457
     32 N          -7.1601   -0.5661   -0.0977 N.ar    1  LIG1       -0.3553
     33 H          -7.2028   -1.5739   -0.0583 H       1  LIG1        0.1655
     34 H          -9.2473   -0.0350   -0.2019 H       1  LIG1        0.0845
     35 N          -4.4354    3.2570   -0.1444 N.1     1  LIG1       -0.1907
     36 C          -5.3018    2.4843   -0.1486 C.1     1  LIG1        0.1050
     37 O          -8.5233    2.6614   -0.2814 O.3     1  LIG1       -0.4923
     38 C          -7.9155    3.9384   -0.3446 C.3     1  LIG1        0.0789
     39 H          -8.7322    4.6565   -0.4137 H       1  LIG1        0.0660
     40 H          -7.3259    4.1494    0.5531 H       1  LIG1        0.0660
     41 H          -7.2742    4.0363   -1.2264 H       1  LIG1        0.0660
@<TRIPOS>BOND
     1    41    38    1
     2    14    11    1
     3    26    24    1
     4    39    38    1
     5    38    37    1
     6    38    40    1
     7    37    30    1
     8    30    31   ar
     9    30    29   ar
    10    34    31    1
    11    31    32   ar
    12    36    29    1
    13    36    35    3
    14    29    28   ar
    15    32    28   ar
    16    32    33    1
    17    28    18    1
    18    12    11    1
    19    20    19    1
    20    11    10    1
    21    11    13    1
    22    18    19   ar
    23    18    17   ar
    24    19    15   ar
    25    10     3    1
    26    23    17    1
    27    23    24    1
    28    17    16   ar
    29    15    16   ar
    30    15     4    1
    31     3     4   ar
    32     3     2   ar
    33    25    24    1
    34    16    22    1
    35     4     5   ar
    36    24    27    1
    37     8     9    3
    38     9     2    1
    39     2     1   ar
    40    22    21    3
    41     5     1   ar
    42     5     6    1
    43     1     7    1
