@<TRIPOS>MOLECULE
mol_data/opt/cam/geoms/mol2/13ea13lh-4al4dl.out
 57 60 0 0 0
SMALL
GASTEIGER

@<TRIPOS>ATOM
      1 C           1.4218   -0.1812   -0.1025 C.ar    1  LIG1        0.0176
      2 C           1.0523    1.1456    0.0789 C.ar    1  LIG1        0.0425
      3 C          -0.3755    1.1707    0.1599 C.ar    1  LIG1       -0.0209
      4 C          -0.8400   -0.1257    0.0160 C.ar    1  LIG1        0.0513
      5 N           0.2807   -0.9293   -0.1533 N.ar    1  LIG1       -0.3594
      6 H           0.2576   -1.9360   -0.1587 H       1  LIG1        0.1654
      7 H           2.4010   -0.6267   -0.1865 H       1  LIG1        0.0819
      8 C           1.9340    2.2554    0.1639 C.1     1  LIG1       -0.0682
      9 C           2.6784    3.2075    0.2376 C.1     1  LIG1       -0.1139
     10 H           3.3336    4.0443    0.3032 H       1  LIG1        0.1232
     11 H          -0.9888    2.0464    0.2900 H       1  LIG1        0.0651
     12 C          -3.2891   -0.0876    0.6071 C.ar    1  LIG1        0.1300
     13 C          -4.5434   -0.6977    0.5609 C.ar    1  LIG1       -0.0080
     14 C          -2.1857   -0.6983   -0.0301 C.ar    1  LIG1        0.0434
     15 C          -4.7703   -1.9111   -0.1073 C.ar    1  LIG1        0.0291
     16 H          -5.3869   -0.2372    1.0583 H       1  LIG1        0.0661
     17 C          -2.4171   -1.9054   -0.7150 C.ar    1  LIG1       -0.0067
     18 C          -3.6726   -2.5136   -0.7574 C.ar    1  LIG1        0.1287
     19 H          -1.5956   -2.3476   -1.2650 H       1  LIG1        0.0662
     20 O          -3.0502    1.0917    1.2573 O.3     1  LIG1       -0.4944
     21 C          -4.1160    1.7018    1.9693 C.3     1  LIG1        0.0788
     22 H          -3.6960    2.6021    2.4199 H       1  LIG1        0.0660
     23 H          -4.9427    1.9815    1.3042 H       1  LIG1        0.0660
     24 H          -4.5007    1.0469    2.7611 H       1  LIG1        0.0660
     25 O          -3.9210   -3.6828   -1.4311 O.3     1  LIG1       -0.4945
     26 C          -2.8664   -4.2820   -2.1606 C.3     1  LIG1        0.0788
     27 H          -3.2906   -5.1737   -2.6250 H       1  LIG1        0.0660
     28 H          -2.4827   -3.6172   -2.9458 H       1  LIG1        0.0660
     29 H          -2.0337   -4.5804   -1.5089 H       1  LIG1        0.0660
     30 C          -7.2715   -1.7826   -0.4957 C.ar    1  LIG1        0.0332
     31 C          -8.5259   -2.3986   -0.4195 C.ar    1  LIG1       -0.0309
     32 C          -6.1305   -2.5191   -0.0999 C.ar    1  LIG1        0.0081
     33 C          -8.7087   -3.7087    0.0399 C.ar    1  LIG1        0.0079
     34 H          -9.4065   -1.8253   -0.6983 H       1  LIG1        0.0643
     35 C          -6.3092   -3.8391    0.3305 C.ar    1  LIG1       -0.0309
     36 C          -7.5625   -4.4475    0.4062 C.ar    1  LIG1        0.0332
     37 H          -5.4294   -4.4127    0.6069 H       1  LIG1        0.0643
     38 N          -7.1817   -0.4402   -0.9077 N.pl3   1  LIG1       -0.3575
     39 H          -6.2931   -0.2006   -1.3296 H       1  LIG1        0.1423
     40 H          -7.9520   -0.1523   -1.4977 H       1  LIG1        0.1423
     41 N          -7.6840   -5.7715    0.9008 N.pl3   1  LIG1       -0.3575
     42 H          -8.3894   -6.3086    0.4058 H       1  LIG1        0.1423
     43 H          -6.8030   -6.2720    0.8871 H       1  LIG1        0.1423
     44 C         -10.6860   -4.8153    1.2483 C.ar    1  LIG1        0.1241
     45 C         -10.0864   -4.2739    0.0744 C.ar    1  LIG1        0.0252
     46 C         -10.8841   -4.2026   -1.0714 C.ar    1  LIG1       -0.0285
     47 C         -12.2145   -4.6376   -1.0645 C.ar    1  LIG1        0.0436
     48 C         -12.6926   -5.1450    0.1483 C.ar    1  LIG1        0.0503
     49 N         -11.9585   -5.2400    1.2577 N.ar    1  LIG1       -0.2383
     50 H         -10.4535   -3.7961   -1.9836 H       1  LIG1        0.0644
     51 H         -13.7217   -5.4992    0.2216 H       1  LIG1        0.0849
     52 N         -10.0143   -4.8673    2.4631 N.pl3   1  LIG1       -0.3427
     53 H         -10.5407   -5.4026    3.1422 H       1  LIG1        0.1437
     54 H          -9.0398   -5.1513    2.3968 H       1  LIG1        0.1437
     55 N         -13.0427   -4.5137   -2.1958 N.pl3   1  LIG1       -0.3568
     56 H         -12.5456   -4.5978   -3.0739 H       1  LIG1        0.1424
     57 H         -13.8346   -5.1448   -2.1844 H       1  LIG1        0.1424
@<TRIPOS>BOND
     1    56    55    1
     2    28    26    1
     3    27    26    1
     4    55    57    1
     5    55    47    1
     6    26    29    1
     7    26    25    1
     8    50    46    1
     9    40    38    1
    10    25    18    1
    11    39    38    1
    12    19    17    1
    13    46    47   ar
    14    46    45   ar
    15    47    48   ar
    16    38    30    1
    17    18    17   ar
    18    18    15   ar
    19    17    14   ar
    20    34    31    1
    21    30    31   ar
    22    30    32   ar
    23    31    33   ar
    24     7     1    1
    25     6     5    1
    26     5     1   ar
    27     5     4   ar
    28    15    32    1
    29    15    13   ar
    30     1     2   ar
    31    32    35   ar
    32    14     4    1
    33    14    12   ar
    34     4     3   ar
    35    33    45    1
    36    33    36   ar
    37    45    44   ar
    38     2     3   ar
    39     2     8    1
    40    48    51    1
    41    48    49   ar
    42     3    11    1
    43     8     9    3
    44     9    10    1
    45    35    36   ar
    46    35    37    1
    47    42    41    1
    48    36    41    1
    49    13    12   ar
    50    13    16    1
    51    12    20    1
    52    43    41    1
    53    44    49   ar
    54    44    52    1
    55    20    21    1
    56    23    21    1
    57    21    22    1
    58    21    24    1
    59    54    52    1
    60    52    53    1
