@<TRIPOS>MOLECULE
mol_data/opt/cam/geoms/mol2/13ea13ea13ea13ea.out
 42 45 0 0 0
SMALL
GASTEIGER

@<TRIPOS>ATOM
      1 C           0.6948    0.1471   -1.6536 C.ar    1  LIG1        0.0177
      2 C           0.7783    1.0448   -0.6103 C.ar    1  LIG1        0.0426
      3 C          -0.3837    0.8584    0.1968 C.ar    1  LIG1       -0.0195
      4 C          -1.1324   -0.1402   -0.3744 C.ar    1  LIG1        0.0653
      5 N          -0.4517   -0.5758   -1.4966 N.ar    1  LIG1       -0.3584
      6 H          -0.8463   -1.1734   -2.2048 H       1  LIG1        0.1654
      7 H           1.3644   -0.0186   -2.4827 H       1  LIG1        0.0819
      8 C           1.8382    1.9671   -0.3850 C.1     1  LIG1       -0.0682
      9 C           2.7321    2.7495   -0.1888 C.1     1  LIG1       -0.1139
     10 H           3.5216    3.4435   -0.0161 H       1  LIG1        0.1232
     11 H          -0.6287    1.3893    1.1031 H       1  LIG1        0.0651
     12 C          -2.3899   -0.7360    0.0303 C.ar    1  LIG1        0.0790
     13 C          -3.5206   -0.1734    0.6077 C.ar    1  LIG1        0.0520
     14 C          -4.4773   -1.2148    0.7740 C.ar    1  LIG1       -0.0189
     15 C          -3.9216   -2.3784    0.3028 C.ar    1  LIG1        0.0658
     16 N          -2.6506   -2.0713   -0.1437 N.ar    1  LIG1       -0.3509
     17 H          -2.0100   -2.7264   -0.5610 H       1  LIG1        0.1660
     18 C          -3.6864    1.1939    0.9585 C.1     1  LIG1       -0.0675
     19 C          -3.8355    2.3491    1.2643 C.1     1  LIG1       -0.1138
     20 H          -3.9685    3.3727    1.5280 H       1  LIG1        0.1232
     21 H          -5.4642   -1.1162    1.1978 H       1  LIG1        0.0652
     22 C          -4.4449   -3.7282    0.2471 C.ar    1  LIG1        0.0790
     23 C          -5.7204   -4.1973   -0.0377 C.ar    1  LIG1        0.0520
     24 C          -5.6758   -5.6192    0.0238 C.ar    1  LIG1       -0.0189
     25 C          -4.3919   -5.9879    0.3407 C.ar    1  LIG1        0.0657
     26 N          -3.6549   -4.8274    0.4730 N.ar    1  LIG1       -0.3509
     27 H          -2.6783   -4.7920    0.7151 H       1  LIG1        0.1660
     28 C          -6.8541   -3.3964   -0.3433 C.1     1  LIG1       -0.0675
     29 C          -7.8216   -2.7262   -0.5986 C.1     1  LIG1       -0.1138
     30 H          -8.6757   -2.1327   -0.8293 H       1  LIG1        0.1232
     31 H          -6.5002   -6.2939   -0.1448 H       1  LIG1        0.0652
     32 C          -3.7975   -7.2938    0.5446 C.ar    1  LIG1        0.0785
     33 C          -4.0221   -8.5030   -0.0966 C.ar    1  LIG1        0.0513
     34 C          -3.1550   -9.4672    0.5030 C.ar    1  LIG1       -0.0283
     35 C          -2.4383   -8.8295    1.4744 C.ar    1  LIG1        0.0034
     36 N          -2.8206   -7.5103    1.4861 N.ar    1  LIG1       -0.3585
     37 H          -2.5806   -6.8532    2.2105 H       1  LIG1        0.1654
     38 H          -1.6892   -9.1993    2.1569 H       1  LIG1        0.0807
     39 C          -4.9284   -8.7266   -1.1681 C.1     1  LIG1       -0.0675
     40 C          -5.6963   -8.9298   -2.0736 C.1     1  LIG1       -0.1138
     41 H          -6.3739   -9.1058   -2.8766 H       1  LIG1        0.1232
     42 H          -3.0788  -10.5068    0.2237 H       1  LIG1        0.0645
@<TRIPOS>BOND
     1    41    40    1
     2     7     1    1
     3     6     5    1
     4    40    39    3
     5     1     5   ar
     6     1     2   ar
     7     5     4   ar
     8    39    33    1
     9    30    29    1
    10     2     8    1
    11     2     3   ar
    12    29    28    3
    13    17    16    1
    14     8     9    3
    15     4    12    1
    16     4     3   ar
    17    28    23    1
    18     9    10    1
    19    31    24    1
    20    16    12   ar
    21    16    15   ar
    22    33    34   ar
    23    33    32   ar
    24    23    24   ar
    25    23    22   ar
    26    24    25   ar
    27    12    13   ar
    28     3    11    1
    29    42    34    1
    30    22    15    1
    31    22    26   ar
    32    15    14   ar
    33    25    26   ar
    34    25    32    1
    35    26    27    1
    36    34    35   ar
    37    32    36   ar
    38    13    14   ar
    39    13    18    1
    40    14    21    1
    41    18    19    3
    42    19    20    1
    43    35    36   ar
    44    35    38    1
    45    36    37    1
