@<TRIPOS>MOLECULE
mol_data/opt/cam/geoms/mol2/13ea13ea.out
 22 23 0 0 0
SMALL
GASTEIGER

@<TRIPOS>ATOM
      1 C           1.1166   -0.2525    0.5246 C.ar    1  LIG1        0.0177
      2 C           0.7978    0.9699   -0.0282 C.ar    1  LIG1        0.0426
      3 C          -0.5930    0.9363   -0.3465 C.ar    1  LIG1       -0.0195
      4 C          -1.0743   -0.2962    0.0188 C.ar    1  LIG1        0.0653
      5 N          -0.0141   -1.0158    0.5366 N.ar    1  LIG1       -0.3584
      6 H          -0.1078   -1.8899    1.0274 H       1  LIG1        0.1654
      7 H           2.0574   -0.6199    0.9030 H       1  LIG1        0.0819
      8 C           1.7008    2.0475   -0.2477 C.1     1  LIG1       -0.0682
      9 C           2.4602    2.9628   -0.4359 C.1     1  LIG1       -0.1139
     10 H           3.1310    3.7735   -0.6014 H       1  LIG1        0.1232
     11 H          -1.1665    1.7256   -0.8063 H       1  LIG1        0.0651
     12 C          -2.4006   -0.8723   -0.0835 C.ar    1  LIG1        0.0785
     13 C          -3.6565   -0.2959    0.0367 C.ar    1  LIG1        0.0513
     14 C          -4.6185   -1.3353   -0.1526 C.ar    1  LIG1       -0.0283
     15 C          -3.9340   -2.4950   -0.3772 C.ar    1  LIG1        0.0034
     16 N          -2.5914   -2.2110   -0.3212 N.ar    1  LIG1       -0.3585
     17 H          -1.8586   -2.8412   -0.6031 H       1  LIG1        0.1654
     18 H          -4.2853   -3.4968   -0.5695 H       1  LIG1        0.0807
     19 C          -3.9283    1.0699    0.3200 C.1     1  LIG1       -0.0675
     20 C          -4.1729    2.2258    0.5547 C.1     1  LIG1       -0.1138
     21 H          -4.3848    3.2477    0.7679 H       1  LIG1        0.1232
     22 H          -5.6905   -1.2173   -0.1118 H       1  LIG1        0.0645
@<TRIPOS>BOND
     1    11     3    1
     2    17    16    1
     3    10     9    1
     4    18    15    1
     5     9     8    3
     6    15    16   ar
     7    15    14   ar
     8     3     2   ar
     9     3     4   ar
    10    16    12   ar
    11     8     2    1
    12    14    22    1
    13    14    13   ar
    14    12     4    1
    15    12    13   ar
    16     2     1   ar
    17     4     5   ar
    18    13    19    1
    19    19    20    3
    20     1     5   ar
    21     1     7    1
    22     5     6    1
    23    20    21    1
