@<TRIPOS>MOLECULE
mol_data/opt/cam/geoms/mol2/13ea13ea-13ea-13ea-.out
 42 45 0 0 0
SMALL
GASTEIGER

@<TRIPOS>ATOM
      1 C           1.2436   -0.3650   -0.4400 C.ar    1  LIG1        0.0177
      2 C           0.8174    0.9223   -0.7059 C.ar    1  LIG1        0.0426
      3 C          -0.5943    0.9352   -0.5208 C.ar    1  LIG1       -0.0195
      4 C          -0.9782   -0.3371   -0.1539 C.ar    1  LIG1        0.0653
      5 N           0.1569   -1.1108   -0.1120 N.ar    1  LIG1       -0.3584
      6 H           0.1550   -2.0873    0.1472 H       1  LIG1        0.1654
      7 H           2.2369   -0.7843   -0.4646 H       1  LIG1        0.0819
      8 C           1.6398    2.0186   -1.0865 C.1     1  LIG1       -0.0682
      9 C           2.3295    2.9516   -1.4091 C.1     1  LIG1       -0.1139
     10 H           2.9420    3.7748   -1.6954 H       1  LIG1        0.1232
     11 H          -1.2320    1.7991   -0.6380 H       1  LIG1        0.0651
     12 C          -2.2812   -0.8831    0.1489 C.ar    1  LIG1        0.0790
     13 C          -2.6684   -2.1359    0.6131 C.ar    1  LIG1        0.0520
     14 C          -4.0900   -2.1355    0.7147 C.ar    1  LIG1       -0.0189
     15 C          -4.5355   -0.9012    0.3164 C.ar    1  LIG1        0.0658
     16 N          -3.4226   -0.1455   -0.0099 N.ar    1  LIG1       -0.3509
     17 H          -3.4539    0.7153   -0.5325 H       1  LIG1        0.1660
     18 C          -1.7977   -3.2100    0.9405 C.1     1  LIG1       -0.0675
     19 C          -1.0519   -4.1195    1.2099 C.1     1  LIG1       -0.1138
     20 H          -0.4195   -4.9386    1.4648 H       1  LIG1        0.1232
     21 H          -4.7089   -2.9482    1.0603 H       1  LIG1        0.0652
     22 C          -5.8722   -0.3542    0.2372 C.ar    1  LIG1        0.0790
     23 C          -7.0878   -0.9593   -0.0571 C.ar    1  LIG1        0.0520
     24 C          -8.0881    0.0527   -0.0168 C.ar    1  LIG1       -0.0189
     25 C          -7.4750    1.2404    0.2971 C.ar    1  LIG1        0.0657
     26 N          -6.1279    0.9768    0.4491 N.ar    1  LIG1       -0.3509
     27 H          -5.4292    1.6641    0.6795 H       1  LIG1        0.1660
     28 C          -7.2857   -2.3356   -0.3501 C.1     1  LIG1       -0.0675
     29 C          -7.4651   -3.5014   -0.5941 C.1     1  LIG1       -0.1138
     30 H          -7.6245   -4.5307   -0.8180 H       1  LIG1        0.1232
     31 H          -9.1430   -0.0818   -0.1965 H       1  LIG1        0.0652
     32 C          -8.0154    2.5717    0.4832 C.ar    1  LIG1        0.0785
     33 C          -9.0554    3.2265   -0.1600 C.ar    1  LIG1        0.0513
     34 C          -9.1573    4.5287    0.4183 C.ar    1  LIG1       -0.0283
     35 C          -8.1933    4.6296    1.3797 C.ar    1  LIG1        0.0034
     36 N          -7.4953    3.4469    1.4057 N.ar    1  LIG1       -0.3585
     37 H          -6.8448    3.1843    2.1280 H       1  LIG1        0.1654
     38 H          -7.9424    5.4401    2.0460 H       1  LIG1        0.0807
     39 C          -9.8494    2.7023   -1.2155 C.1     1  LIG1       -0.0675
     40 C         -10.5324    2.2674   -2.1074 C.1     1  LIG1       -0.1138
     41 H         -11.1313    1.8823   -2.8998 H       1  LIG1        0.1232
     42 H          -9.8640    5.2924    0.1319 H       1  LIG1        0.0645
@<TRIPOS>BOND
     1    41    40    1
     2    40    39    3
     3    10     9    1
     4     9     8    3
     5    39    33    1
     6     8     2    1
     7    30    29    1
     8     2     3   ar
     9     2     1   ar
    10    11     3    1
    11    29    28    3
    12    17    16    1
    13     3     4   ar
    14     7     1    1
    15     1     5   ar
    16    28    23    1
    17    31    24    1
    18    33    34   ar
    19    33    32   ar
    20     4     5   ar
    21     4    12    1
    22     5     6    1
    23    23    24   ar
    24    23    22   ar
    25    24    25   ar
    26    16    12   ar
    27    16    15   ar
    28    42    34    1
    29    12    13   ar
    30    22    15    1
    31    22    26   ar
    32    25    26   ar
    33    25    32    1
    34    15    14   ar
    35    34    35   ar
    36    26    27    1
    37    32    36   ar
    38    13    14   ar
    39    13    18    1
    40    14    21    1
    41    18    19    3
    42    19    20    1
    43    35    36   ar
    44    35    38    1
    45    36    37    1
