@<TRIPOS>MOLECULE
mol_data/opt/cam/geoms/mol2/13ea13ea13ea-13ea.out
 42 45 0 0 0
SMALL
GASTEIGER

@<TRIPOS>ATOM
      1 C           1.2078   -0.1578   -0.5173 C.ar    1  LIG1        0.0177
      2 C           0.8798    1.0457    0.0719 C.ar    1  LIG1        0.0426
      3 C          -0.5220    1.0163    0.3331 C.ar    1  LIG1       -0.0195
      4 C          -1.0008   -0.1962   -0.1009 C.ar    1  LIG1        0.0653
      5 N           0.0714   -0.9053   -0.6071 N.ar    1  LIG1       -0.3584
      6 H          -0.0056   -1.7709   -1.1161 H       1  LIG1        0.1654
      7 H           2.1590   -0.5206   -0.8734 H       1  LIG1        0.0819
      8 C           1.7841    2.1036    0.3681 C.1     1  LIG1       -0.0682
      9 C           2.5450    3.0020    0.6206 C.1     1  LIG1       -0.1139
     10 H           3.2172    3.7975    0.8439 H       1  LIG1        0.1232
     11 H          -1.1055    1.7933    0.8007 H       1  LIG1        0.0651
     12 C          -2.3332   -0.7598   -0.0766 C.ar    1  LIG1        0.0790
     13 C          -3.5828   -0.1496   -0.1208 C.ar    1  LIG1        0.0520
     14 C          -4.5573   -1.1848   -0.0925 C.ar    1  LIG1       -0.0189
     15 C          -3.8908   -2.3883   -0.0341 C.ar    1  LIG1        0.0658
     16 N          -2.5434   -2.1100   -0.0309 N.ar    1  LIG1       -0.3509
     17 H          -1.8369   -2.8148    0.1279 H       1  LIG1        0.1660
     18 C          -3.8356    1.2456   -0.2045 C.1     1  LIG1       -0.0675
     19 C          -4.0635    2.4267   -0.2712 C.1     1  LIG1       -0.1138
     20 H          -4.2613    3.4714   -0.3363 H       1  LIG1        0.1232
     21 H          -5.6267   -1.0364   -0.1239 H       1  LIG1        0.0652
     22 C          -4.3799   -3.7449    0.0206 C.ar    1  LIG1        0.0790
     23 C          -3.7002   -4.9611    0.0897 C.ar    1  LIG1        0.0520
     24 C          -4.6807   -5.9915    0.1212 C.ar    1  LIG1       -0.0189
     25 C          -5.9179   -5.3899    0.0720 C.ar    1  LIG1        0.0657
     26 N          -5.7111   -4.0323    0.0118 N.ar    1  LIG1       -0.3509
     27 H          -6.4621   -3.3570   -0.0333 H       1  LIG1        0.1660
     28 C          -2.2915   -5.1354    0.1298 C.1     1  LIG1       -0.0675
     29 C          -1.0931   -5.2777    0.1672 C.1     1  LIG1       -0.1138
     30 H          -0.0412   -5.4425    0.2137 H       1  LIG1        0.1232
     31 H          -4.4700   -7.0492    0.1752 H       1  LIG1        0.0652
     32 C          -7.2508   -5.9488    0.0755 C.ar    1  LIG1        0.0785
     33 C          -8.4996   -5.3362    0.0194 C.ar    1  LIG1        0.0513
     34 C          -9.4824   -6.3713    0.0547 C.ar    1  LIG1       -0.0283
     35 C          -8.8178   -7.5615    0.1298 C.ar    1  LIG1        0.0034
     36 N          -7.4719   -7.2957    0.1416 N.ar    1  LIG1       -0.3585
     37 H          -6.7442   -7.9888    0.1939 H       1  LIG1        0.1654
     38 H          -9.1866   -8.5741    0.1759 H       1  LIG1        0.0807
     39 C          -8.7444   -3.9390   -0.0586 C.1     1  LIG1       -0.0675
     40 C          -8.9458   -2.7507   -0.1247 C.1     1  LIG1       -0.1138
     41 H          -9.1564   -1.7074   -0.1836 H       1  LIG1        0.1232
     42 H         -10.5516   -6.2291    0.0267 H       1  LIG1        0.0645
@<TRIPOS>BOND
     1     6     5    1
     2     7     1    1
     3     5     1   ar
     4     5     4   ar
     5     1     2   ar
     6    20    19    1
     7    19    18    3
     8    18    13    1
     9    41    40    1
    10    40    39    3
    11    21    14    1
    12    13    14   ar
    13    13    12   ar
    14     4    12    1
    15     4     3   ar
    16    14    15   ar
    17    12    16   ar
    18    39    33    1
    19    15    16   ar
    20    15    22    1
    21    27    26    1
    22    16    17    1
    23    26    22   ar
    24    26    25   ar
    25    33    34   ar
    26    33    32   ar
    27    22    23   ar
    28    42    34    1
    29    34    35   ar
    30     2     3   ar
    31     2     8    1
    32    25    32    1
    33    25    24   ar
    34    32    36   ar
    35    23    24   ar
    36    23    28    1
    37    24    31    1
    38    35    36   ar
    39    35    38    1
    40    28    29    3
    41    36    37    1
    42    29    30    1
    43     3    11    1
    44     8     9    3
    45     9    10    1
