@<TRIPOS>MOLECULE
mol_data/opt/cam/geoms/mol2/13ea13ea-13ea.out
 32 34 0 0 0
SMALL
GASTEIGER

@<TRIPOS>ATOM
      1 C           1.2197   -0.3092   -0.0005 C.ar    1  LIG1        0.0177
      2 C           0.8109    1.0110   -0.0002 C.ar    1  LIG1        0.0426
      3 C          -0.6129    1.0022    0.0002 C.ar    1  LIG1       -0.0195
      4 C          -1.0206   -0.3144    0.0002 C.ar    1  LIG1        0.0653
      5 N           0.1114   -1.0944   -0.0003 N.ar    1  LIG1       -0.3584
      6 H           0.0921   -2.1043   -0.0004 H       1  LIG1        0.1654
      7 H           2.2143   -0.7261   -0.0009 H       1  LIG1        0.0819
      8 C           1.6597    2.1523   -0.0004 C.1     1  LIG1       -0.0682
      9 C           2.3727    3.1229   -0.0005 C.1     1  LIG1       -0.1139
     10 H           3.0048    3.9802   -0.0003 H       1  LIG1        0.1232
     11 H          -1.2460    1.8772    0.0005 H       1  LIG1        0.0651
     12 C          -2.3443   -0.8944    0.0006 C.ar    1  LIG1        0.0790
     13 C          -2.7652   -2.2237    0.0006 C.ar    1  LIG1        0.0520
     14 C          -4.1880   -2.2159    0.0011 C.ar    1  LIG1       -0.0189
     15 C          -4.5970   -0.9016    0.0014 C.ar    1  LIG1        0.0657
     16 N          -3.4653   -0.1213    0.0011 N.ar    1  LIG1       -0.3509
     17 H          -3.4866    0.8893    0.0013 H       1  LIG1        0.1660
     18 C          -1.9274   -3.3703    0.0001 C.1     1  LIG1       -0.0675
     19 C          -1.2103   -4.3411   -0.0004 C.1     1  LIG1       -0.1138
     20 H          -0.6015   -5.2158   -0.0014 H       1  LIG1        0.1232
     21 H          -4.8145   -3.0956    0.0012 H       1  LIG1        0.0652
     22 C          -5.9175   -0.3139    0.0020 C.ar    1  LIG1        0.0785
     23 C          -6.3273    1.0164    0.0024 C.ar    1  LIG1        0.0513
     24 C          -7.7553    1.0210    0.0028 C.ar    1  LIG1       -0.0283
     25 C          -8.1668   -0.2807    0.0027 C.ar    1  LIG1        0.0034
     26 N          -7.0502   -1.0782    0.0021 N.ar    1  LIG1       -0.3585
     27 H          -7.0556   -2.0845    0.0018 H       1  LIG1        0.1654
     28 H          -9.1572   -0.7080    0.0029 H       1  LIG1        0.0807
     29 C          -5.4773    2.1547    0.0024 C.1     1  LIG1       -0.0675
     30 C          -4.7494    3.1175    0.0024 C.1     1  LIG1       -0.1138
     31 H          -4.1324    3.9866    0.0018 H       1  LIG1        0.1232
     32 H          -8.3847    1.8975    0.0033 H       1  LIG1        0.0645
@<TRIPOS>BOND
     1    20    19    1
     2     7     1    1
     3     1     5   ar
     4     1     2   ar
     5     9     8    3
     6     9    10    1
     7     8     2    1
     8     6     5    1
     9    19    18    3
    10     5     4   ar
    11     2     3   ar
    12    18    13    1
    13     4     3   ar
    14     4    12    1
    15     3    11    1
    16    13    12   ar
    17    13    14   ar
    18    12    16   ar
    19    14    21    1
    20    14    15   ar
    21    16    17    1
    22    16    15   ar
    23    15    22    1
    24    31    30    1
    25    27    26    1
    26    22    26   ar
    27    22    23   ar
    28    26    25   ar
    29    30    29    3
    30    23    29    1
    31    23    24   ar
    32    25    24   ar
    33    25    28    1
    34    24    32    1
