@<TRIPOS>MOLECULE
mol_data/opt/cam/geoms/mol2/13ea13ea-13ea-13ea.out
 42 45 0 0 0
SMALL
GASTEIGER

@<TRIPOS>ATOM
      1 C           1.2638   -0.3432   -0.1296 C.ar    1  LIG1        0.0177
      2 C           0.8570    0.9565   -0.3645 C.ar    1  LIG1        0.0426
      3 C          -0.5658    0.9589   -0.3102 C.ar    1  LIG1       -0.0195
      4 C          -0.9751   -0.3312   -0.0480 C.ar    1  LIG1        0.0653
      5 N           0.1554   -1.1056    0.0571 N.ar    1  LIG1       -0.3584
      6 H           0.1342   -2.0953    0.2592 H       1  LIG1        0.1654
      7 H           2.2573   -0.7603   -0.0851 H       1  LIG1        0.0819
      8 C           1.7051    2.0718   -0.6089 C.1     1  LIG1       -0.0682
      9 C           2.4165    3.0212   -0.8163 C.1     1  LIG1       -0.1139
     10 H           3.0480    3.8590   -1.0006 H       1  LIG1        0.1232
     11 H          -1.1949    1.8269   -0.4433 H       1  LIG1        0.0651
     12 C          -2.2975   -0.8924    0.1061 C.ar    1  LIG1        0.0790
     13 C          -2.7197   -2.1763    0.4399 C.ar    1  LIG1        0.0520
     14 C          -4.1439   -2.1753    0.4321 C.ar    1  LIG1       -0.0189
     15 C          -4.5566   -0.9093    0.0986 C.ar    1  LIG1        0.0658
     16 N          -3.4224   -0.1409   -0.0854 N.ar    1  LIG1       -0.3509
     17 H          -3.4156    0.7819   -0.4897 H       1  LIG1        0.1660
     18 C          -1.8769   -3.2788    0.7446 C.1     1  LIG1       -0.0675
     19 C          -1.1537   -4.2114    0.9969 C.1     1  LIG1       -0.1138
     20 H          -0.5429   -5.0524    1.2323 H       1  LIG1        0.1232
     21 H          -4.7878   -3.0089    0.6626 H       1  LIG1        0.0652
     22 C          -5.8779   -0.3426   -0.0432 C.ar    1  LIG1        0.0790
     23 C          -7.0968   -0.9339   -0.3606 C.ar    1  LIG1        0.0520
     24 C          -8.0708    0.1024   -0.3893 C.ar    1  LIG1       -0.0189
     25 C          -7.4340    1.2872   -0.0944 C.ar    1  LIG1        0.0657
     26 N          -6.1054    0.9973    0.1072 N.ar    1  LIG1       -0.3509
     27 H          -5.4428    1.6791    0.4509 H       1  LIG1        0.1660
     28 C          -7.3206   -2.3103   -0.6298 C.1     1  LIG1       -0.0675
     29 C          -7.5241   -3.4761   -0.8556 C.1     1  LIG1       -0.1138
     30 H          -7.7023   -4.5059   -1.0621 H       1  LIG1        0.1232
     31 H          -9.1174   -0.0365   -0.6170 H       1  LIG1        0.0652
     32 C          -7.9289    2.6400    0.0192 C.ar    1  LIG1        0.0785
     33 C          -7.2715    3.8305    0.3189 C.ar    1  LIG1        0.0513
     34 C          -8.2482    4.8722    0.2969 C.ar    1  LIG1       -0.0283
     35 C          -9.4484    4.2982   -0.0090 C.ar    1  LIG1        0.0034
     36 N          -9.2447    2.9512   -0.1742 N.ar    1  LIG1       -0.3585
     37 H          -9.9580    2.2798   -0.4051 H       1  LIG1        0.1654
     38 H         -10.4294    4.7319   -0.1231 H       1  LIG1        0.0807
     39 C          -5.8868    3.9746    0.6015 C.1     1  LIG1       -0.0675
     40 C          -4.7097    4.0896    0.8448 C.1     1  LIG1       -0.1138
     41 H          -3.6787    4.2324    1.0755 H       1  LIG1        0.1232
     42 H          -8.0625    5.9176    0.4891 H       1  LIG1        0.0645
@<TRIPOS>BOND
     1    30    29    1
     2    10     9    1
     3    29    28    3
     4     9     8    3
     5    28    23    1
     6    31    24    1
     7     8     2    1
     8    17    16    1
     9    11     3    1
    10    37    36    1
    11    24    23   ar
    12    24    25   ar
    13     2     3   ar
    14     2     1   ar
    15    23    22   ar
    16     3     4   ar
    17    36    35   ar
    18    36    32   ar
    19     1     7    1
    20     1     5   ar
    21    38    35    1
    22    25    32    1
    23    25    26   ar
    24    16    15   ar
    25    16    12   ar
    26     4     5   ar
    27     4    12    1
    28    22    15    1
    29    22    26   ar
    30    35    34   ar
    31    32    33   ar
    32     5     6    1
    33    15    14   ar
    34    12    13   ar
    35    26    27    1
    36    34    33   ar
    37    34    42    1
    38    33    39    1
    39    14    13   ar
    40    14    21    1
    41    13    18    1
    42    39    40    3
    43    18    19    3
    44    40    41    1
    45    19    20    1
