@<TRIPOS>MOLECULE
mol_data/opt/cam/geoms/mol2/13ea13ea-13ea13ea-.out
 42 45 0 0 0
SMALL
GASTEIGER

@<TRIPOS>ATOM
      1 C           1.2880   -0.2969   -0.0010 C.ar    1  LIG1        0.0177
      2 C           0.8846    1.0250   -0.0008 C.ar    1  LIG1        0.0426
      3 C          -0.5391    1.0219   -0.0000 C.ar    1  LIG1       -0.0195
      4 C          -0.9524   -0.2930    0.0001 C.ar    1  LIG1        0.0653
      5 N           0.1766   -1.0775   -0.0005 N.ar    1  LIG1       -0.3584
      6 H           0.1531   -2.0874   -0.0005 H       1  LIG1        0.1654
      7 H           2.2808   -0.7180   -0.0015 H       1  LIG1        0.0819
      8 C           1.7379    2.1630   -0.0012 C.1     1  LIG1       -0.0682
      9 C           2.4545    3.1309   -0.0015 C.1     1  LIG1       -0.1139
     10 H           3.0907    3.9852   -0.0013 H       1  LIG1        0.1232
     11 H          -1.1681    1.8999    0.0003 H       1  LIG1        0.0651
     12 C          -2.2782   -0.8679    0.0008 C.ar    1  LIG1        0.0790
     13 C          -2.7039   -2.1962    0.0009 C.ar    1  LIG1        0.0520
     14 C          -4.1258   -2.1846    0.0016 C.ar    1  LIG1       -0.0189
     15 C          -4.5304   -0.8686    0.0019 C.ar    1  LIG1        0.0658
     16 N          -3.3961   -0.0908    0.0014 N.ar    1  LIG1       -0.3509
     17 H          -3.4129    0.9196    0.0015 H       1  LIG1        0.1660
     18 C          -1.8689   -3.3451    0.0004 C.1     1  LIG1       -0.0675
     19 C          -1.1538   -4.3173   -0.0002 C.1     1  LIG1       -0.1138
     20 H          -0.5470   -5.1934   -0.0017 H       1  LIG1        0.1232
     21 H          -4.7591   -3.0592    0.0019 H       1  LIG1        0.0652
     22 C          -5.8496   -0.2831    0.0027 C.ar    1  LIG1        0.0790
     23 C          -6.2603    1.0496    0.0030 C.ar    1  LIG1        0.0520
     24 C          -7.6825    1.0525    0.0038 C.ar    1  LIG1       -0.0189
     25 C          -8.1017   -0.2590    0.0038 C.ar    1  LIG1        0.0657
     26 N          -6.9769   -1.0484    0.0032 N.ar    1  LIG1       -0.3509
     27 H          -7.0071   -2.0587    0.0031 H       1  LIG1        0.1660
     28 C          -5.4134    2.1897    0.0028 C.1     1  LIG1       -0.0675
     29 C          -4.6880    3.1544    0.0025 C.1     1  LIG1       -0.1138
     30 H          -4.0709    4.0235    0.0018 H       1  LIG1        0.1232
     31 H          -8.3022    1.9369    0.0042 H       1  LIG1        0.0652
     32 C          -9.4269   -0.8358    0.0045 C.ar    1  LIG1        0.0785
     33 C          -9.8473   -2.1629    0.0047 C.ar    1  LIG1        0.0513
     34 C         -11.2752   -2.1561    0.0053 C.ar    1  LIG1       -0.0283
     35 C         -11.6762   -0.8511    0.0055 C.ar    1  LIG1        0.0034
     36 N         -10.5534   -0.0625    0.0050 N.ar    1  LIG1       -0.3585
     37 H         -10.5511    0.9438    0.0049 H       1  LIG1        0.1654
     38 H         -12.6632   -0.4160    0.0059 H       1  LIG1        0.0807
     39 C          -9.0067   -3.3080    0.0043 C.1     1  LIG1       -0.0675
     40 C          -8.2874   -4.2773    0.0039 C.1     1  LIG1       -0.1138
     41 H          -7.6809   -5.1538    0.0035 H       1  LIG1        0.1232
     42 H         -11.9116   -3.0275    0.0056 H       1  LIG1        0.0645
@<TRIPOS>BOND
     1    20    19    1
     2     7     1    1
     3     9    10    1
     4     9     8    3
     5     8     2    1
     6     1     2   ar
     7     1     5   ar
     8     2     3   ar
     9     6     5    1
    10     5     4   ar
    11    19    18    3
    12     3     4   ar
    13     3    11    1
    14     4    12    1
    15    18    13    1
    16    12    13   ar
    17    12    16   ar
    18    13    14   ar
    19    16    17    1
    20    16    15   ar
    21    14    21    1
    22    14    15   ar
    23    30    29    1
    24    15    22    1
    25    29    28    3
    26    22    23   ar
    27    22    26   ar
    28    28    23    1
    29    23    24   ar
    30    27    26    1
    31    26    25   ar
    32    41    40    1
    33    24    25   ar
    34    24    31    1
    35    25    32    1
    36    40    39    3
    37    39    33    1
    38    32    33   ar
    39    32    36   ar
    40    33    34   ar
    41    37    36    1
    42    36    35   ar
    43    34    35   ar
    44    34    42    1
    45    35    38    1
