@<TRIPOS>MOLECULE
mol_data/opt/cam/geoms/mol2/13ea13ea13ea-13ea-.out
 42 45 0 0 0
SMALL
GASTEIGER

@<TRIPOS>ATOM
      1 C           1.2219   -0.2089   -0.4886 C.ar    1  LIG1        0.0177
      2 C           0.8805    1.0483   -0.0343 C.ar    1  LIG1        0.0426
      3 C          -0.5292    1.0476    0.1804 C.ar    1  LIG1       -0.0195
      4 C          -0.9995   -0.2014   -0.1462 C.ar    1  LIG1        0.0653
      5 N           0.0854   -0.9596   -0.5422 N.ar    1  LIG1       -0.3584
      6 H           0.0225   -1.8724   -0.9628 H       1  LIG1        0.1654
      7 H           2.1826   -0.6072   -0.7743 H       1  LIG1        0.0819
      8 C           1.7796    2.1291    0.1851 C.1     1  LIG1       -0.0682
      9 C           2.5358    3.0472    0.3722 C.1     1  LIG1       -0.1139
     10 H           3.2042    3.8599    0.5375 H       1  LIG1        0.1232
     11 H          -1.1240    1.8686    0.5479 H       1  LIG1        0.0651
     12 C          -2.3350   -0.7567   -0.1098 C.ar    1  LIG1        0.0790
     13 C          -3.5789   -0.1488   -0.2463 C.ar    1  LIG1        0.0520
     14 C          -4.5601   -1.1736   -0.1461 C.ar    1  LIG1       -0.0189
     15 C          -3.9030   -2.3692    0.0422 C.ar    1  LIG1        0.0658
     16 N          -2.5547   -2.0961    0.0552 N.ar    1  LIG1       -0.3509
     17 H          -1.8597   -2.7844    0.3107 H       1  LIG1        0.1660
     18 C          -3.8227    1.2332   -0.4656 C.1     1  LIG1       -0.0675
     19 C          -4.0442    2.4033   -0.6474 C.1     1  LIG1       -0.1138
     20 H          -4.2351    3.4380   -0.8145 H       1  LIG1        0.1232
     21 H          -5.6273   -1.0200   -0.2092 H       1  LIG1        0.0652
     22 C          -4.3993   -3.7142    0.2061 C.ar    1  LIG1        0.0790
     23 C          -3.7388   -4.9075    0.4844 C.ar    1  LIG1        0.0520
     24 C          -4.7178   -5.9425    0.5175 C.ar    1  LIG1       -0.0189
     25 C          -5.9373   -5.3696    0.2621 C.ar    1  LIG1        0.0657
     26 N          -5.7289   -4.0132    0.0892 N.ar    1  LIG1       -0.3509
     27 H          -6.4105   -3.3785   -0.2946 H       1  LIG1        0.1660
     28 C          -2.3448   -5.0550    0.7162 C.1     1  LIG1       -0.0675
     29 C          -1.1590   -5.1724    0.9092 C.1     1  LIG1       -0.1138
     30 H          -0.1209   -5.3142    1.1048 H       1  LIG1        0.1232
     31 H          -4.5420   -6.9863    0.7236 H       1  LIG1        0.0652
     32 C          -7.2625   -5.9460    0.1844 C.ar    1  LIG1        0.0785
     33 C          -7.6851   -7.2013   -0.2297 C.ar    1  LIG1        0.0513
     34 C          -9.1077   -7.2297   -0.1059 C.ar    1  LIG1       -0.0283
     35 C          -9.5047   -6.0132    0.3706 C.ar    1  LIG1        0.0034
     36 N          -8.3847   -5.2355    0.5323 N.ar    1  LIG1       -0.3585
     37 H          -8.3655   -4.3511    1.0134 H       1  LIG1        0.1654
     38 H         -10.4864   -5.6335    0.6068 H       1  LIG1        0.0807
     39 C          -6.8545   -8.2493   -0.7096 C.1     1  LIG1       -0.0675
     40 C          -6.1610   -9.1480   -1.1132 C.1     1  LIG1       -0.1138
     41 H          -5.5486   -9.9403   -1.4766 H       1  LIG1        0.1232
     42 H          -9.7460   -8.0628   -0.3571 H       1  LIG1        0.0645
@<TRIPOS>BOND
     1    41    40    1
     2    40    39    3
     3     6     5    1
     4    20    19    1
     5     7     1    1
     6    39    33    1
     7    19    18    3
     8     5     1   ar
     9     5     4   ar
    10     1     2   ar
    11    18    13    1
    12    42    34    1
    13    27    26    1
    14    13    14   ar
    15    13    12   ar
    16    33    34   ar
    17    33    32   ar
    18    21    14    1
    19     4    12    1
    20     4     3   ar
    21    14    15   ar
    22    12    16   ar
    23    34    35   ar
    24     2     3   ar
    25     2     8    1
    26    15    16   ar
    27    15    22    1
    28    16    17    1
    29    26    22   ar
    30    26    25   ar
    31     3    11    1
    32    32    25    1
    33    32    36   ar
    34     8     9    3
    35    22    23   ar
    36    25    24   ar
    37    35    36   ar
    38    35    38    1
    39     9    10    1
    40    23    24   ar
    41    23    28    1
    42    24    31    1
    43    36    37    1
    44    28    29    3
    45    29    30    1
