@<TRIPOS>MOLECULE
mol_data/opt/cam/geoms/mol2/13ea13ea-.out
 22 23 0 0 0
SMALL
GASTEIGER

@<TRIPOS>ATOM
      1 C           1.1565   -0.2944   -0.0002 C.ar    1  LIG1        0.0177
      2 C           0.7587    1.0286   -0.0000 C.ar    1  LIG1        0.0426
      3 C          -0.6658    1.0307    0.0003 C.ar    1  LIG1       -0.0195
      4 C          -1.0844   -0.2822    0.0002 C.ar    1  LIG1        0.0653
      5 N           0.0412   -1.0703   -0.0001 N.ar    1  LIG1       -0.3584
      6 H           0.0124   -2.0802   -0.0002 H       1  LIG1        0.1654
      7 H           2.1475   -0.7198   -0.0004 H       1  LIG1        0.0819
      8 C           1.6153    2.1640   -0.0001 C.1     1  LIG1       -0.0682
      9 C           2.3342    3.1302   -0.0001 C.1     1  LIG1       -0.1139
     10 H           2.9722    3.9832   -0.0001 H       1  LIG1        0.1232
     11 H          -1.2878    1.9139    0.0005 H       1  LIG1        0.0651
     12 C          -2.4123   -0.8575    0.0004 C.ar    1  LIG1        0.0785
     13 C          -2.8397   -2.1819    0.0003 C.ar    1  LIG1        0.0513
     14 C          -4.2682   -2.1681    0.0006 C.ar    1  LIG1       -0.0283
     15 C          -4.6624   -0.8613    0.0008 C.ar    1  LIG1        0.0034
     16 N          -3.5346   -0.0791    0.0007 N.ar    1  LIG1       -0.3585
     17 H          -3.5253    0.9272    0.0008 H       1  LIG1        0.1654
     18 H          -5.6469   -0.4206    0.0010 H       1  LIG1        0.0807
     19 C          -2.0050   -3.3313   -0.0000 C.1     1  LIG1       -0.0675
     20 C          -1.2905   -4.3041   -0.0003 C.1     1  LIG1       -0.1138
     21 H          -0.6859   -5.1816   -0.0005 H       1  LIG1        0.1232
     22 H          -4.9089   -3.0363    0.0006 H       1  LIG1        0.0645
@<TRIPOS>BOND
     1    21    20    1
     2     7     1    1
     3    20    19    3
     4     6     5    1
     5     1     5   ar
     6     1     2   ar
     7    10     9    1
     8     5     4   ar
     9     9     8    3
    10     8     2    1
    11    19    13    1
    12     2     3   ar
    13     4     3   ar
    14     4    12    1
    15     3    11    1
    16    13    12   ar
    17    13    14   ar
    18    12    16   ar
    19    14    22    1
    20    14    15   ar
    21    16    15   ar
    22    16    17    1
    23    15    18    1
