@<TRIPOS>MOLECULE
mol_data/opt/cam/geoms/mol2/13ea4ll4hh-6hh.out
 54 57 0 0 0
SMALL
GASTEIGER

@<TRIPOS>ATOM
      1 C           1.1223    0.3345   -1.0259 C.ar    1  LIG1        0.0209
      2 C           1.0337    1.0658    0.1426 C.ar    1  LIG1        0.0870
      3 C          -0.2844    0.8439    0.6846 C.ar    1  LIG1        0.0944
      4 C          -0.9524   -0.0228   -0.1806 C.ar    1  LIG1        0.0690
      5 N          -0.0670   -0.3142   -1.1960 N.ar    1  LIG1       -0.3583
      6 H          -0.3164   -0.8648   -2.0035 H       1  LIG1        0.1654
      7 H           1.9343    0.2458   -1.7302 H       1  LIG1        0.0820
      8 N           2.9139    2.5337    1.1348 N.1     1  LIG1       -0.1908
      9 C           2.0631    1.8741    0.6931 C.1     1  LIG1        0.1020
     10 N          -1.1337    1.7869    2.9333 N.1     1  LIG1       -0.1908
     11 C          -0.7659    1.3626    1.9138 C.1     1  LIG1        0.1026
     12 C          -3.4342    0.0837    0.1994 C.ar    1  LIG1        0.1300
     13 C          -4.6726   -0.5633    0.2197 C.ar    1  LIG1       -0.0081
     14 C          -2.2792   -0.6462   -0.1452 C.ar    1  LIG1        0.0447
     15 C          -4.8127   -1.9145   -0.1153 C.ar    1  LIG1        0.0285
     16 H          -5.5613   -0.0106    0.4927 H       1  LIG1        0.0661
     17 C          -2.4145   -2.0036   -0.4863 C.ar    1  LIG1       -0.0067
     18 C          -3.6552   -2.6405   -0.4770 C.ar    1  LIG1        0.1287
     19 H          -1.5191   -2.5692   -0.7143 H       1  LIG1        0.0662
     20 O          -3.2609    1.4043    0.4691 O.3     1  LIG1       -0.4944
     21 C          -4.3473    2.1443    1.0138 C.3     1  LIG1        0.0788
     22 H          -3.9480    3.1342    1.2334 H       1  LIG1        0.0660
     23 H          -5.1725    2.2314    0.2964 H       1  LIG1        0.0660
     24 H          -4.7133    1.6894    1.9412 H       1  LIG1        0.0660
     25 O          -3.8323   -3.9582   -0.7990 O.3     1  LIG1       -0.4945
     26 C          -2.7031   -4.7205   -1.1909 C.3     1  LIG1        0.0788
     27 H          -3.0796   -5.7193   -1.4149 H       1  LIG1        0.0660
     28 H          -2.2268   -4.3066   -2.0895 H       1  LIG1        0.0660
     29 H          -1.9581   -4.7882   -0.3876 H       1  LIG1        0.0660
     30 C          -7.2876   -2.0087   -0.7206 C.ar    1  LIG1        0.0332
     31 C          -8.5310   -2.6403   -0.5998 C.ar    1  LIG1       -0.0355
     32 C          -6.1527   -2.5579   -0.0656 C.ar    1  LIG1        0.0023
     33 C          -8.7343   -3.8130    0.1443 C.ar    1  LIG1        0.0149
     34 H          -9.3693   -2.1924   -1.1182 H       1  LIG1        0.0637
     35 C          -6.3430   -3.7262    0.6686 C.ar    1  LIG1       -0.0367
     36 C          -7.5908   -4.3626    0.7926 C.ar    1  LIG1        0.0344
     37 H          -5.4952   -4.1721    1.1736 H       1  LIG1        0.0636
     38 C          -7.2125   -0.8379   -1.5396 C.1     1  LIG1       -0.0690
     39 C          -7.2039    0.1433   -2.2483 C.1     1  LIG1       -0.1139
     40 H          -7.1834    1.0035   -2.8768 H       1  LIG1        0.1232
     41 C          -7.6140   -5.5487    1.5919 C.1     1  LIG1       -0.0690
     42 C          -7.5674   -6.5462    2.2802 C.1     1  LIG1       -0.1139
     43 H          -7.5123   -7.4194    2.8891 H       1  LIG1        0.1232
     44 C         -10.0827   -4.3759    0.1916 C.ar    1  LIG1        0.0489
     45 C         -11.2498   -3.9287   -0.4193 C.ar    1  LIG1       -0.0210
     46 C         -12.3059   -4.8178   -0.0708 C.ar    1  LIG1        0.0425
     47 C         -11.7474   -5.7930    0.7520 C.ar    1  LIG1        0.0176
     48 N         -10.4251   -5.5161    0.8983 N.ar    1  LIG1       -0.3595
     49 H          -9.7665   -6.0561    1.4419 H       1  LIG1        0.1654
     50 H         -12.2071   -6.6453    1.2282 H       1  LIG1        0.0819
     51 H         -11.3581   -3.0620   -1.0529 H       1  LIG1        0.0651
     52 C         -13.6641   -4.7370   -0.4760 C.1     1  LIG1       -0.0682
     53 C         -14.8204   -4.6614   -0.8259 C.1     1  LIG1       -0.1139
     54 H         -15.8382   -4.5957   -1.1325 H       1  LIG1        0.1232
@<TRIPOS>BOND
     1    40    39    1
     2    39    38    3
     3    28    26    1
     4     6     5    1
     5     7     1    1
     6    38    30    1
     7    27    26    1
     8     5     1   ar
     9     5     4   ar
    10    26    25    1
    11    26    29    1
    12    54    53    1
    13    34    31    1
    14    51    45    1
    15     1     2   ar
    16    53    52    3
    17    25    18    1
    18    30    31   ar
    19    30    32   ar
    20    19    17    1
    21    31    33   ar
    22    17    18   ar
    23    17    14   ar
    24    18    15   ar
    25    52    46    1
    26    45    46   ar
    27    45    44   ar
    28     4    14    1
    29     4     3   ar
    30    14    12   ar
    31    15    32    1
    32    15    13   ar
    33    46    47   ar
    34    32    35   ar
    35     2     3   ar
    36     2     9    1
    37    33    44    1
    38    33    36   ar
    39    44    48   ar
    40    12    13   ar
    41    12    20    1
    42    13    16    1
    43    23    21    1
    44    20    21    1
    45    35    36   ar
    46    35    37    1
    47     3    11    1
    48     9     8    3
    49    47    48   ar
    50    47    50    1
    51    36    41    1
    52    48    49    1
    53    21    22    1
    54    21    24    1
    55    41    42    3
    56    11    10    3
    57    42    43    1
