@<TRIPOS>MOLECULE
mol_data/opt/cam/geoms/mol2/13ea13ea13ea.out
 32 34 0 0 0
SMALL
GASTEIGER

@<TRIPOS>ATOM
      1 C           1.2170   -0.2148    0.1340 C.ar    1  LIG1        0.0177
      2 C           0.7977    1.0287   -0.2906 C.ar    1  LIG1        0.0426
      3 C          -0.6283    1.0040   -0.3180 C.ar    1  LIG1       -0.0195
      4 C          -1.0312   -0.2453    0.0874 C.ar    1  LIG1        0.0653
      5 N           0.1092   -0.9821    0.3454 N.ar    1  LIG1       -0.3584
      6 H           0.1129   -1.8779    0.8045 H       1  LIG1        0.1654
      7 H           2.2135   -0.5939    0.2966 H       1  LIG1        0.0819
      8 C           1.6420    2.1178   -0.6450 C.1     1  LIG1       -0.0682
      9 C           2.3515    3.0430   -0.9458 C.1     1  LIG1       -0.1139
     10 H           2.9781    3.8624   -1.2116 H       1  LIG1        0.1232
     11 H          -1.2798    1.8093   -0.6182 H       1  LIG1        0.0651
     12 C          -2.3504   -0.8209    0.2331 C.ar    1  LIG1        0.0790
     13 C          -3.5675   -0.2400    0.5506 C.ar    1  LIG1        0.0520
     14 C          -4.5502   -1.2750    0.5411 C.ar    1  LIG1       -0.0189
     15 C          -3.9207   -2.4495    0.2236 C.ar    1  LIG1        0.0657
     16 N          -2.5708   -2.1709    0.0656 N.ar    1  LIG1       -0.3509
     17 H          -1.9574   -2.7514   -0.4861 H       1  LIG1        0.1660
     18 C          -3.7863    1.1285    0.8645 C.1     1  LIG1       -0.0675
     19 C          -3.9852    2.2870    1.1273 C.1     1  LIG1       -0.1138
     20 H          -4.1593    3.3109    1.3644 H       1  LIG1        0.1232
     21 H          -5.5986   -1.1630    0.7684 H       1  LIG1        0.0652
     22 C          -4.4313   -3.7949    0.0723 C.ar    1  LIG1        0.0785
     23 C          -5.6729   -4.2579   -0.3405 C.ar    1  LIG1        0.0513
     24 C          -5.6228   -5.6853   -0.3099 C.ar    1  LIG1       -0.0283
     25 C          -4.3752   -6.0458    0.1115 C.ar    1  LIG1        0.0034
     26 N          -3.6539   -4.8973    0.3283 N.ar    1  LIG1       -0.3585
     27 H          -2.7585   -4.8580    0.7864 H       1  LIG1        0.1654
     28 H          -3.9381   -7.0188    0.2732 H       1  LIG1        0.0807
     29 C          -6.7760   -3.4572   -0.7411 C.1     1  LIG1       -0.0675
     30 C          -7.7204   -2.7897   -1.0784 C.1     1  LIG1       -0.1138
     31 H          -8.5521   -2.1975   -1.3826 H       1  LIG1        0.1232
     32 H          -6.4276   -6.3501   -0.5835 H       1  LIG1        0.0645
@<TRIPOS>BOND
     1    31    30    1
     2    10     9    1
     3    30    29    3
     4     9     8    3
     5    29    23    1
     6     8     2    1
     7    11     3    1
     8    32    24    1
     9    17    16    1
    10    23    24   ar
    11    23    22   ar
    12     3     2   ar
    13     3     4   ar
    14    24    25   ar
    15     2     1   ar
    16    16    15   ar
    17    16    12   ar
    18    22    15    1
    19    22    26   ar
    20     4    12    1
    21     4     5   ar
    22    25    28    1
    23    25    26   ar
    24     1     7    1
    25     1     5   ar
    26    15    14   ar
    27    12    13   ar
    28    26    27    1
    29     5     6    1
    30    14    13   ar
    31    14    21    1
    32    13    18    1
    33    18    19    3
    34    19    20    1
