@<TRIPOS>MOLECULE
mol_data/opt/cam/geoms/mol2/13ea13af4ef-4ff-.out
 46 49 0 0 0
SMALL
GASTEIGER

@<TRIPOS>ATOM
      1 C           1.2488   -0.1576   -0.3327 C.ar    1  LIG1        0.0177
      2 C           0.8875    1.0562    0.2142 C.ar    1  LIG1        0.0426
      3 C          -0.5361    1.0614    0.3163 C.ar    1  LIG1       -0.0196
      4 C          -0.9939   -0.1383   -0.1703 C.ar    1  LIG1        0.0642
      5 N           0.1096   -0.8751   -0.5493 N.ar    1  LIG1       -0.3584
      6 H           0.0584   -1.7420   -1.0587 H       1  LIG1        0.1654
      7 H           2.2249   -0.5467   -0.5759 H       1  LIG1        0.0819
      8 C           1.7786    2.0913    0.6128 C.1     1  LIG1       -0.0682
      9 C           2.5271    2.9716    0.9518 C.1     1  LIG1       -0.1139
     10 H           3.1889    3.7508    1.2511 H       1  LIG1        0.1232
     11 H          -1.1441    1.8500    0.7320 H       1  LIG1        0.0651
     12 C          -2.3374   -0.6664   -0.3070 C.ar    1  LIG1        0.0669
     13 C          -3.5221   -0.0359   -0.5950 C.ar    1  LIG1        0.0072
     14 C          -4.5470   -1.0152   -0.5514 C.ar    1  LIG1        0.1427
     15 C          -3.9700   -2.2412   -0.2478 C.ar    1  LIG1        0.0902
     16 N          -2.5974   -2.0069   -0.1425 N.ar    1  LIG1       -0.3501
     17 H          -2.0079   -2.5962    0.4263 H       1  LIG1        0.1661
     18 H          -3.6537    1.0022   -0.8588 H       1  LIG1        0.0676
     19 O          -5.8230   -0.7236   -0.8798 O.3     1  LIG1       -0.5046
     20 H          -6.4247   -1.3276   -0.4156 H       1  LIG1        0.2922
     21 C          -5.7460   -3.9500    0.3318 C.ar    1  LIG1        0.0347
     22 C          -6.1521   -5.2884    0.3408 C.ar    1  LIG1       -0.0344
     23 C          -4.4783   -3.6051   -0.1840 C.ar    1  LIG1        0.0207
     24 C          -5.3509   -6.3286   -0.1117 C.ar    1  LIG1        0.0283
     25 H          -7.1354   -5.5218    0.7277 H       1  LIG1        0.0637
     26 C          -3.6703   -4.6522   -0.6412 C.ar    1  LIG1       -0.0092
     27 C          -4.0826   -5.9768   -0.6064 C.ar    1  LIG1        0.1253
     28 H          -2.7062   -4.4141   -1.0823 H       1  LIG1        0.0661
     29 C          -6.6227   -2.9766    0.9037 C.1     1  LIG1       -0.0690
     30 C          -7.3786   -2.1679    1.3846 C.1     1  LIG1       -0.1139
     31 H          -8.0284   -1.4582    1.8434 H       1  LIG1        0.1232
     32 O          -3.2760   -6.9679   -1.0736 O.3     1  LIG1       -0.5061
     33 H          -2.4856   -6.5742   -1.4616 H       1  LIG1        0.2922
     34 C          -7.1057   -8.0961   -0.4760 C.ar    1  LIG1        0.1249
     35 C          -7.5234   -9.4212   -0.3950 C.ar    1  LIG1       -0.0161
     36 C          -5.8169   -7.7373   -0.0577 C.ar    1  LIG1        0.0305
     37 C          -6.6833  -10.4079    0.0954 C.ar    1  LIG1       -0.0167
     38 H          -8.5254   -9.6843   -0.7252 H       1  LIG1        0.0655
     39 C          -4.9838   -8.7451    0.4349 C.ar    1  LIG1       -0.0089
     40 C          -5.4029  -10.0661    0.5134 C.ar    1  LIG1        0.1177
     41 H          -3.9805   -8.4811    0.7533 H       1  LIG1        0.0661
     42 H          -7.0052  -11.4407    0.1587 H       1  LIG1        0.0655
     43 O          -7.9291   -7.1187   -0.9646 O.3     1  LIG1       -0.5062
     44 H          -8.7520   -7.5229   -1.2620 H       1  LIG1        0.2922
     45 O          -4.6042  -11.0645    0.9941 O.3     1  LIG1       -0.5067
     46 H          -3.7455  -10.6951    1.2294 H       1  LIG1        0.2921
@<TRIPOS>BOND
     1    33    32    1
     2    44    43    1
     3    28    26    1
     4    32    27    1
     5     6     5    1
     6    43    34    1
     7    19    14    1
     8    19    20    1
     9    18    13    1
    10    38    35    1
    11    26    27   ar
    12    26    23   ar
    13    27    24   ar
    14    13    14   ar
    15    13    12   ar
    16     7     1    1
    17    14    15   ar
    18     5     1   ar
    19     5     4   ar
    20    34    35   ar
    21    34    36   ar
    22    35    37   ar
    23     1     2   ar
    24    12     4    1
    25    12    16   ar
    26    15    23    1
    27    15    16   ar
    28    23    21   ar
    29     4     3   ar
    30    16    17    1
    31    24    36    1
    32    24    22   ar
    33    36    39   ar
    34    37    42    1
    35    37    40   ar
    36     2     3   ar
    37     2     8    1
    38     3    11    1
    39    21    22   ar
    40    21    29    1
    41    22    25    1
    42    39    40   ar
    43    39    41    1
    44    40    45    1
    45     8     9    3
    46    29    30    3
    47     9    10    1
    48    45    46    1
    49    30    31    1
