@<TRIPOS>MOLECULE
mol_data/opt/cam/geoms/mol2/13ea13ea13ea13ea-.out
 42 45 0 0 0
SMALL
GASTEIGER

@<TRIPOS>ATOM
      1 C           0.9311    0.0756   -1.2289 C.ar    1  LIG1        0.0177
      2 C           0.8338    1.0376   -0.2458 C.ar    1  LIG1        0.0426
      3 C          -0.4465    0.8845    0.3654 C.ar    1  LIG1       -0.0195
      4 C          -1.0842   -0.1590   -0.2585 C.ar    1  LIG1        0.0653
      5 N          -0.2226   -0.6528   -1.2208 N.ar    1  LIG1       -0.3584
      6 H          -0.4883   -1.3026   -1.9429 H       1  LIG1        0.1654
      7 H           1.7315   -0.1317   -1.9215 H       1  LIG1        0.0819
      8 C           1.8368    1.9880    0.0941 C.1     1  LIG1       -0.0682
      9 C           2.6817    2.7945    0.3863 C.1     1  LIG1       -0.1139
     10 H           3.4280    3.5095    0.6442 H       1  LIG1        0.1232
     11 H          -0.8425    1.4664    1.1825 H       1  LIG1        0.0651
     12 C          -2.3886   -0.7475   -0.0345 C.ar    1  LIG1        0.0790
     13 C          -3.5967   -0.1723    0.3389 C.ar    1  LIG1        0.0520
     14 C          -4.5666   -1.2125    0.3897 C.ar    1  LIG1       -0.0189
     15 C          -3.9417   -2.3886    0.0517 C.ar    1  LIG1        0.0658
     16 N          -2.6183   -2.0883   -0.2051 N.ar    1  LIG1       -0.3509
     17 H          -1.9097   -2.7601   -0.4513 H       1  LIG1        0.1660
     18 C          -3.8177    1.2057    0.6073 C.1     1  LIG1       -0.0675
     19 C          -4.0145    2.3707    0.8416 C.1     1  LIG1       -0.1138
     20 H          -4.1885    3.4021    1.0429 H       1  LIG1        0.1232
     21 H          -5.6080   -1.1055    0.6487 H       1  LIG1        0.0652
     22 C          -4.4415   -3.7421   -0.0412 C.ar    1  LIG1        0.0790
     23 C          -5.7125   -4.2270   -0.3323 C.ar    1  LIG1        0.0520
     24 C          -5.6334   -5.6475   -0.3195 C.ar    1  LIG1       -0.0189
     25 C          -4.3336   -5.9942   -0.0263 C.ar    1  LIG1        0.0657
     26 N          -3.6260   -4.8262    0.1338 N.ar    1  LIG1       -0.3509
     27 H          -2.6760   -4.8085    0.4786 H       1  LIG1        0.1660
     28 C          -6.8658   -3.4486   -0.6170 C.1     1  LIG1       -0.0675
     29 C          -7.8520   -2.7992   -0.8557 C.1     1  LIG1       -0.1138
     30 H          -8.7211   -2.2222   -1.0719 H       1  LIG1        0.1232
     31 H          -6.4574   -6.3162   -0.5209 H       1  LIG1        0.0652
     32 C          -3.6919   -7.2807    0.1184 C.ar    1  LIG1        0.0785
     33 C          -2.3725   -7.6145    0.4142 C.ar    1  LIG1        0.0513
     34 C          -2.2886   -9.0403    0.4322 C.ar    1  LIG1       -0.0283
     35 C          -3.5340   -9.5244    0.1531 C.ar    1  LIG1        0.0034
     36 N          -4.3729   -8.4544   -0.0344 N.ar    1  LIG1       -0.3585
     37 H          -5.3538   -8.5165   -0.2515 H       1  LIG1        0.1654
     38 H          -3.8956  -10.5373    0.0723 H       1  LIG1        0.0807
     39 C          -1.3127   -6.7016    0.6620 C.1     1  LIG1       -0.0675
     40 C          -0.4175   -5.9199    0.8763 C.1     1  LIG1       -0.1138
     41 H           0.3970   -5.2658    1.0888 H       1  LIG1        0.1232
     42 H          -1.4005   -9.6194    0.6325 H       1  LIG1        0.0645
@<TRIPOS>BOND
     1     6     5    1
     2     7     1    1
     3     1     5   ar
     4     1     2   ar
     5     5     4   ar
     6    30    29    1
     7    29    28    3
     8    28    23    1
     9    31    24    1
    10    17    16    1
    11    23    24   ar
    12    23    22   ar
    13    24    25   ar
    14     4    12    1
    15     4     3   ar
    16    37    36    1
    17     2     8    1
    18     2     3   ar
    19    16    12   ar
    20    16    15   ar
    21    22    15    1
    22    22    26   ar
    23    12    13   ar
    24    36    32   ar
    25    36    35   ar
    26    25    32    1
    27    25    26   ar
    28    15    14   ar
    29    38    35    1
    30     8     9    3
    31    32    33   ar
    32    26    27    1
    33    35    34   ar
    34    13    14   ar
    35    13    18    1
    36     3    11    1
    37     9    10    1
    38    14    21    1
    39    33    34   ar
    40    33    39    1
    41    34    42    1
    42    18    19    3
    43    39    40    3
    44    19    20    1
    45    40    41    1
