@<TRIPOS>MOLECULE
mol_data/opt/cam/geoms/mol2/13ea13ea-4ea13ea.out
 44 47 0 0 0
SMALL
GASTEIGER

@<TRIPOS>ATOM
      1 C           1.3943   -0.4801   -0.0876 C.ar    1  LIG1        0.0177
      2 C           1.0471    0.8577   -0.0809 C.ar    1  LIG1        0.0426
      3 C          -0.3753    0.9144   -0.0606 C.ar    1  LIG1       -0.0195
      4 C          -0.8436   -0.3820   -0.0552 C.ar    1  LIG1        0.0653
      5 N           0.2512   -1.2131   -0.0721 N.ar    1  LIG1       -0.3584
      6 H           0.1848   -2.2212   -0.0717 H       1  LIG1        0.1654
      7 H           2.3685   -0.9425   -0.1020 H       1  LIG1        0.0819
      8 C           1.9472    1.9589   -0.0923 C.1     1  LIG1       -0.0682
      9 C           2.7033    2.8963   -0.1014 C.1     1  LIG1       -0.1139
     10 H           3.3742    3.7236   -0.1104 H       1  LIG1        0.1232
     11 H          -0.9671    1.8179   -0.0528 H       1  LIG1        0.0651
     12 C          -2.1921   -0.9014   -0.0350 C.ar    1  LIG1        0.0789
     13 C          -2.6726   -2.2114   -0.0294 C.ar    1  LIG1        0.0519
     14 C          -4.0893   -2.1361   -0.0011 C.ar    1  LIG1       -0.0203
     15 C          -4.4466   -0.8037    0.0088 C.ar    1  LIG1        0.0493
     16 N          -3.2749   -0.0803   -0.0128 N.ar    1  LIG1       -0.3520
     17 H          -3.2382    0.9275    0.0236 H       1  LIG1        0.1660
     18 C          -1.8872   -3.3949   -0.0427 C.1     1  LIG1       -0.0675
     19 C          -1.2134   -4.3961   -0.0542 C.1     1  LIG1       -0.1138
     20 H          -0.6450   -5.2975   -0.0639 H       1  LIG1        0.1232
     21 H          -4.7554   -2.9841    0.0288 H       1  LIG1        0.0651
     22 C          -6.0536    1.1508    0.3197 C.ar    1  LIG1        0.0344
     23 C          -7.3699    1.6239    0.3221 C.ar    1  LIG1       -0.0365
     24 C          -5.7799   -0.2037    0.0215 C.ar    1  LIG1        0.0137
     25 C          -8.4488    0.7948    0.0303 C.ar    1  LIG1        0.0007
     26 H          -7.5434    2.6646    0.5637 H       1  LIG1        0.0636
     27 C          -6.8771   -1.0201   -0.2843 C.ar    1  LIG1       -0.0508
     28 C          -8.1720   -0.5433   -0.2808 C.ar    1  LIG1       -0.0519
     29 H          -6.6994   -2.0526   -0.5601 H       1  LIG1        0.0625
     30 C          -5.0364    2.1055    0.6563 C.1     1  LIG1       -0.0690
     31 C          -4.2220    2.9489    0.9382 C.1     1  LIG1       -0.1139
     32 H          -3.5140    3.6985    1.2102 H       1  LIG1        0.1232
     33 H          -8.9773   -1.2133   -0.5661 H       1  LIG1        0.0624
     34 C          -9.8214    1.2979    0.0528 C.ar    1  LIG1        0.0621
     35 C         -10.3536    2.5611   -0.1849 C.ar    1  LIG1        0.0499
     36 C         -11.7697    2.4614   -0.0389 C.ar    1  LIG1       -0.0284
     37 C         -12.0588    1.1651    0.2816 C.ar    1  LIG1        0.0034
     38 N         -10.8798    0.4700    0.3243 N.ar    1  LIG1       -0.3597
     39 H         -10.7833   -0.4860    0.6240 H       1  LIG1        0.1654
     40 H         -13.0012    0.6813    0.4860 H       1  LIG1        0.0807
     41 C          -9.6417    3.7367   -0.5483 C.1     1  LIG1       -0.0675
     42 C          -9.0611    4.7474   -0.8538 C.1     1  LIG1       -0.1138
     43 H          -8.5465    5.6376   -1.1326 H       1  LIG1        0.1232
     44 H         -12.4751    3.2678   -0.1677 H       1  LIG1        0.0645
@<TRIPOS>BOND
     1    43    42    1
     2    42    41    3
     3    33    28    1
     4    29    27    1
     5    41    35    1
     6    27    28   ar
     7    27    24   ar
     8    28    25   ar
     9    35    36   ar
    10    35    34   ar
    11    44    36    1
    12    10     9    1
    13     7     1    1
    14     9     8    3
    15     8     2    1
    16     1     2   ar
    17     1     5   ar
    18     2     3   ar
    19     5     6    1
    20     5     4   ar
    21    20    19    1
    22     3     4   ar
    23     3    11    1
    24     4    12    1
    25    19    18    3
    26    18    13    1
    27    36    37   ar
    28    12    13   ar
    29    12    16   ar
    30    13    14   ar
    31    16    15   ar
    32    16    17    1
    33    14    15   ar
    34    14    21    1
    35    15    24    1
    36    24    22   ar
    37    25    34    1
    38    25    23   ar
    39    34    38   ar
    40    37    38   ar
    41    37    40    1
    42    22    23   ar
    43    22    30    1
    44    23    26    1
    45    38    39    1
    46    30    31    3
    47    31    32    1
