@<TRIPOS>MOLECULE
mol_data/opt/cam/geoms/mol2/13ed13ed13ed-13ed.out
 46 49 0 0 0
SMALL
GASTEIGER

@<TRIPOS>ATOM
      1 C           1.1338   -0.0877   -0.9207 C.ar    1  LIG1        0.0190
      2 C           0.9598    0.9676   -0.0577 C.ar    1  LIG1        0.0600
      3 C          -0.4132    0.9339    0.3603 C.ar    1  LIG1        0.0937
      4 C          -1.0191   -0.1381   -0.2705 C.ar    1  LIG1        0.0829
      5 N          -0.0552   -0.7495   -1.0316 N.ar    1  LIG1       -0.3573
      6 H          -0.2411   -1.4932   -1.6861 H       1  LIG1        0.1655
      7 H           2.0143   -0.4029   -1.4573 H       1  LIG1        0.0820
      8 C           1.9483    1.9008    0.3537 C.1     1  LIG1       -0.0669
      9 C           2.7795    2.6951    0.7071 C.1     1  LIG1       -0.1138
     10 H           3.5097    3.4033    1.0254 H       1  LIG1        0.1232
     11 N          -1.4839    2.5200    2.0864 N.1     1  LIG1       -0.1908
     12 C          -1.0135    1.8078    1.3056 C.1     1  LIG1        0.1026
     13 C          -2.3734   -0.6528   -0.2151 C.ar    1  LIG1        0.0815
     14 C          -3.5962   -0.0119   -0.2952 C.ar    1  LIG1        0.0694
     15 C          -4.5962   -1.0339   -0.2300 C.ar    1  LIG1        0.0944
     16 C          -3.9542   -2.2622   -0.1187 C.ar    1  LIG1        0.0834
     17 N          -2.6149   -2.0010   -0.1202 N.ar    1  LIG1       -0.3498
     18 H          -1.9129   -2.7104    0.0498 H       1  LIG1        0.1661
     19 C          -3.8296    1.3764   -0.4577 C.1     1  LIG1       -0.0662
     20 C          -4.0373    2.5526   -0.5971 C.1     1  LIG1       -0.1138
     21 H          -4.2152    3.5988   -0.6989 H       1  LIG1        0.1232
     22 N          -7.1360   -0.6342   -0.3506 N.1     1  LIG1       -0.1908
     23 C          -5.9932   -0.8122   -0.2943 C.1     1  LIG1        0.1026
     24 C          -4.4433   -3.6182   -0.0069 C.ar    1  LIG1        0.0815
     25 C          -3.7124   -4.7927    0.1131 C.ar    1  LIG1        0.0694
     26 C          -4.6562   -5.8598    0.1883 C.ar    1  LIG1        0.0944
     27 C          -5.9308   -5.3100    0.1139 C.ar    1  LIG1        0.0834
     28 N          -5.7744   -3.9590   -0.0034 N.ar    1  LIG1       -0.3498
     29 H          -6.5557   -3.3133   -0.0751 H       1  LIG1        0.1661
     30 C          -2.3024   -4.9393    0.1647 C.1     1  LIG1       -0.0662
     31 C          -1.1059   -5.0798    0.2151 C.1     1  LIG1       -0.1138
     32 H          -0.0533   -5.2424    0.2754 H       1  LIG1        0.1232
     33 N          -4.2045   -8.3826    0.4187 N.1     1  LIG1       -0.1908
     34 C          -4.3649   -7.2390    0.3160 C.1     1  LIG1        0.1026
     35 C          -7.2193   -5.9637    0.1454 C.ar    1  LIG1        0.0810
     36 C          -8.5010   -5.4362    0.0700 C.ar    1  LIG1        0.0687
     37 C          -9.4067   -6.5405    0.1494 C.ar    1  LIG1        0.0850
     38 C          -8.6500   -7.6849    0.2692 C.ar    1  LIG1        0.0209
     39 N          -7.3440   -7.3286    0.2656 N.ar    1  LIG1       -0.3573
     40 H          -6.5697   -7.9747    0.3416 H       1  LIG1        0.1655
     41 H          -8.9602   -8.7143    0.3555 H       1  LIG1        0.0820
     42 C          -8.8428   -4.0675   -0.0596 C.1     1  LIG1       -0.0662
     43 C          -9.1334   -2.9035   -0.1689 C.1     1  LIG1       -0.1138
     44 H          -9.3450   -1.8620   -0.2652 H       1  LIG1        0.1232
     45 N         -11.9812   -6.4296    0.0805 N.1     1  LIG1       -0.1908
     46 C         -10.8257   -6.4760    0.1115 C.1     1  LIG1        0.1019
@<TRIPOS>BOND
     1     6     5    1
     2     7     1    1
     3     5     1   ar
     4     5     4   ar
     5     1     2   ar
     6    21    20    1
     7    20    19    3
     8    19    14    1
     9    22    23    3
    10    14    15   ar
    11    14    13   ar
    12    23    15    1
    13     4    13    1
    14     4     3   ar
    15    44    43    1
    16    15    16   ar
    17    13    17   ar
    18    43    42    3
    19    17    16   ar
    20    17    18    1
    21    16    24    1
    22    29    28    1
    23    42    36    1
    24     2     8    1
    25     2     3   ar
    26    24    28   ar
    27    24    25   ar
    28    28    27   ar
    29    36    35   ar
    30    36    37   ar
    31    45    46    3
    32    46    37    1
    33    25    30    1
    34    25    26   ar
    35    27    35    1
    36    27    26   ar
    37    35    39   ar
    38    37    38   ar
    39    30    31    3
    40    26    34    1
    41    31    32    1
    42    39    38   ar
    43    39    40    1
    44    38    41    1
    45    34    33    3
    46     8     9    3
    47     3    12    1
    48     9    10    1
    49    12    11    3
