@<TRIPOS>MOLECULE
mol_data/opt/cam/geoms/mol2/13ed13ed-13ed.out
 35 37 0 0 0
SMALL
GASTEIGER

@<TRIPOS>ATOM
      1 C           1.2652   -0.3746   -0.0008 C.ar    1  LIG1        0.0190
      2 C           0.9404    0.9609   -0.0004 C.ar    1  LIG1        0.0600
      3 C          -0.4921    1.0264    0.0002 C.ar    1  LIG1        0.0937
      4 C          -0.9797   -0.2761    0.0002 C.ar    1  LIG1        0.0829
      5 N           0.1118   -1.0978   -0.0004 N.ar    1  LIG1       -0.3573
      6 H           0.0453   -2.1072   -0.0005 H       1  LIG1        0.1655
      7 H           2.2335   -0.8488   -0.0012 H       1  LIG1        0.0820
      8 C           1.8372    2.0612   -0.0006 C.1     1  LIG1       -0.0669
      9 C           2.5896    2.9998   -0.0007 C.1     1  LIG1       -0.1138
     10 H           3.2514    3.8354   -0.0009 H       1  LIG1        0.1232
     11 N          -1.8774    3.1954    0.0012 N.1     1  LIG1       -0.1908
     12 C          -1.2551    2.2186    0.0008 C.1     1  LIG1        0.1026
     13 C          -2.3202   -0.8211    0.0007 C.ar    1  LIG1        0.0815
     14 C          -2.7140   -2.1524    0.0006 C.ar    1  LIG1        0.0694
     15 C          -4.1411   -2.1603    0.0012 C.ar    1  LIG1        0.0944
     16 C          -4.5768   -0.8406    0.0017 C.ar    1  LIG1        0.0834
     17 N          -3.4604   -0.0545    0.0013 N.ar    1  LIG1       -0.3498
     18 H          -3.4956    0.9608    0.0015 H       1  LIG1        0.1661
     19 C          -1.8875   -3.3050    0.0001 C.1     1  LIG1       -0.0662
     20 C          -1.1970   -4.2933   -0.0004 C.1     1  LIG1       -0.1138
     21 H          -0.6142   -5.1866   -0.0009 H       1  LIG1        0.1232
     22 N          -5.7332   -4.1817    0.0016 N.1     1  LIG1       -0.1908
     23 C          -4.9813   -3.2992    0.0014 C.1     1  LIG1        0.1026
     24 C          -5.9233   -0.3147    0.0023 C.ar    1  LIG1        0.0810
     25 C          -6.3813    0.9955    0.0027 C.ar    1  LIG1        0.0687
     26 C          -7.8107    0.9327    0.0033 C.ar    1  LIG1        0.0850
     27 C          -8.1637   -0.3982    0.0033 C.ar    1  LIG1        0.0209
     28 N          -7.0278   -1.1349    0.0027 N.ar    1  LIG1       -0.3573
     29 H          -6.9954   -2.1458    0.0025 H       1  LIG1        0.1655
     30 H          -9.1404   -0.8557    0.0036 H       1  LIG1        0.0820
     31 C          -5.5841    2.1666    0.0026 C.1     1  LIG1       -0.0662
     32 C          -4.9053    3.1617    0.0024 C.1     1  LIG1       -0.1138
     33 H          -4.2634    4.0142    0.0023 H       1  LIG1        0.1232
     34 N          -9.4415    2.9291    0.0043 N.1     1  LIG1       -0.1908
     35 C          -8.7068    2.0355    0.0039 C.1     1  LIG1        0.1019
@<TRIPOS>BOND
     1     7     1    1
     2    10     9    1
     3    21    20    1
     4     1     5   ar
     5     1     2   ar
     6     9     8    3
     7     8     2    1
     8     6     5    1
     9     5     4   ar
    10     2     3   ar
    11    20    19    3
    12    19    14    1
    13     4     3   ar
    14     4    13    1
    15     3    12    1
    16    14    13   ar
    17    14    15   ar
    18    13    17   ar
    19    12    11    3
    20    15    23    1
    21    15    16   ar
    22    17    18    1
    23    17    16   ar
    24    23    22    3
    25    16    24    1
    26    33    32    1
    27    24    28   ar
    28    24    25   ar
    29    32    31    3
    30    29    28    1
    31    31    25    1
    32    28    27   ar
    33    25    26   ar
    34    27    26   ar
    35    27    30    1
    36    26    35    1
    37    35    34    3
