@<TRIPOS>MOLECULE
mol_data/opt/cam/geoms/mol2/13ed13ed-4ed13ed.out
 48 51 0 0 0
SMALL
GASTEIGER

@<TRIPOS>ATOM
      1 C           1.4044   -0.4711   -0.2139 C.ar    1  LIG1        0.0190
      2 C           1.0900    0.8621   -0.3310 C.ar    1  LIG1        0.0600
      3 C          -0.3393    0.9453   -0.2545 C.ar    1  LIG1        0.0937
      4 C          -0.8342   -0.3443   -0.0934 C.ar    1  LIG1        0.0829
      5 N           0.2475   -1.1765   -0.0735 N.ar    1  LIG1       -0.3573
      6 H           0.1718   -2.1795    0.0365 H       1  LIG1        0.1655
      7 H           2.3677   -0.9552   -0.2222 H       1  LIG1        0.0820
      8 C           1.9932    1.9450   -0.4941 C.1     1  LIG1       -0.0669
      9 C           2.7507    2.8693   -0.6324 C.1     1  LIG1       -0.1138
     10 H           3.4182    3.6911   -0.7560 H       1  LIG1        0.1232
     11 N          -1.7718    3.0812   -0.3627 N.1     1  LIG1       -0.1908
     12 C          -1.1117    2.1293   -0.3195 C.1     1  LIG1        0.1026
     13 C          -2.1805   -0.8554    0.0378 C.ar    1  LIG1        0.0815
     14 C          -2.6070   -2.1642    0.2215 C.ar    1  LIG1        0.0693
     15 C          -4.0316   -2.1291    0.2840 C.ar    1  LIG1        0.0930
     16 C          -4.4364   -0.8072    0.1335 C.ar    1  LIG1        0.0670
     17 N          -3.2973   -0.0657   -0.0090 N.ar    1  LIG1       -0.3509
     18 H          -3.2912    0.9442   -0.0954 H       1  LIG1        0.1660
     19 C          -1.8011   -3.3262    0.3351 C.1     1  LIG1       -0.0662
     20 C          -1.1223   -4.3179    0.4303 C.1     1  LIG1       -0.1138
     21 H          -0.5547   -5.2163    0.5216 H       1  LIG1        0.1232
     22 N          -5.5144   -4.1995    0.6777 N.1     1  LIG1       -0.1908
     23 C          -4.8529   -3.2656    0.5035 C.1     1  LIG1        0.1025
     24 C          -6.1178    1.0664    0.4862 C.ar    1  LIG1        0.0345
     25 C          -7.4395    1.5088    0.4357 C.ar    1  LIG1       -0.0353
     26 C          -5.7931   -0.2511    0.0916 C.ar    1  LIG1        0.0162
     27 C          -8.4899    0.7071   -0.0097 C.ar    1  LIG1        0.0181
     28 H          -7.6453    2.5186    0.7610 H       1  LIG1        0.0637
     29 C          -6.8363   -1.0587   -0.3559 C.ar    1  LIG1       -0.0334
     30 C          -8.1521   -0.6059   -0.4068 C.ar    1  LIG1        0.0616
     31 H          -6.6355   -2.0692   -0.6862 H       1  LIG1        0.0637
     32 C          -5.1367    1.9968    0.9522 C.1     1  LIG1       -0.0690
     33 C          -4.3427    2.8217    1.3247 C.1     1  LIG1       -0.1139
     34 H          -3.6112    3.5446    1.6089 H       1  LIG1        0.1232
     35 N          -9.9563   -2.2637   -1.2494 N.1     1  LIG1       -0.1908
     36 C          -9.1380   -1.5279   -0.8897 C.1     1  LIG1        0.0998
     37 C          -9.8478    1.2550   -0.0414 C.ar    1  LIG1        0.0646
     38 C         -10.2756    2.5803   -0.0785 C.ar    1  LIG1        0.0673
     39 C         -11.7062    2.5576   -0.0805 C.ar    1  LIG1        0.0850
     40 C         -12.0978    1.2390   -0.0472 C.ar    1  LIG1        0.0209
     41 N         -10.9823    0.4751   -0.0234 N.ar    1  LIG1       -0.3585
     42 H         -10.9892   -0.5344   -0.0383 H       1  LIG1        0.1654
     43 H         -13.0861    0.8073   -0.0412 H       1  LIG1        0.0820
     44 C          -9.4993    3.7667   -0.1415 C.1     1  LIG1       -0.0662
     45 C          -8.8815    4.7984   -0.1988 C.1     1  LIG1       -0.1138
     46 H          -8.3398    5.7147   -0.2581 H       1  LIG1        0.1232
     47 N         -13.2748    4.6024   -0.1447 N.1     1  LIG1       -0.1908
     48 C         -12.5687    3.6864   -0.1166 C.1     1  LIG1        0.1019
@<TRIPOS>BOND
     1    35    36    3
     2    36    30    1
     3    10     9    1
     4    31    29    1
     5     9     8    3
     6     8     2    1
     7    30    29   ar
     8    30    27   ar
     9    11    12    3
    10    29    26   ar
    11     2     3   ar
    12     2     1   ar
    13    12     3    1
    14    46    45    1
    15     3     4   ar
    16     7     1    1
    17     1     5   ar
    18    45    44    3
    19    47    48    3
    20    44    38    1
    21    48    39    1
    22    18    17    1
    23     4     5   ar
    24     4    13    1
    25    39    38   ar
    26    39    40   ar
    27    38    37   ar
    28     5     6    1
    29    40    43    1
    30    40    41   ar
    31    37    41   ar
    32    37    27    1
    33    42    41    1
    34    27    25   ar
    35    17    13   ar
    36    17    16   ar
    37    13    14   ar
    38    26    16    1
    39    26    24   ar
    40    16    15   ar
    41    14    15   ar
    42    14    19    1
    43    15    23    1
    44    19    20    3
    45    20    21    1
    46    25    24   ar
    47    25    28    1
    48    24    32    1
    49    23    22    3
    50    32    33    3
    51    33    34    1
