@<TRIPOS>MOLECULE
mol_data/opt/cam/geoms/mol2/13ed13ed-13ed13ed-.out
 46 49 0 0 0
SMALL
GASTEIGER

@<TRIPOS>ATOM
      1 C           1.3408   -0.3220   -0.0012 C.ar    1  LIG1        0.0190
      2 C           1.0099    1.0119   -0.0010 C.ar    1  LIG1        0.0600
      3 C          -0.4228    1.0709   -0.0002 C.ar    1  LIG1        0.0937
      4 C          -0.9052   -0.2338    0.0001 C.ar    1  LIG1        0.0829
      5 N           0.1908   -1.0499   -0.0005 N.ar    1  LIG1       -0.3573
      6 H           0.1295   -2.0598   -0.0005 H       1  LIG1        0.1655
      7 H           2.3111   -0.7922   -0.0017 H       1  LIG1        0.0820
      8 C           1.9014    2.1165   -0.0015 C.1     1  LIG1       -0.0669
      9 C           2.6492    3.0588   -0.0019 C.1     1  LIG1       -0.1138
     10 H           3.3075    3.8971   -0.0022 H       1  LIG1        0.1232
     11 N          -1.7953    3.2475    0.0005 N.1     1  LIG1       -0.1908
     12 C          -1.1836    2.2642    0.0002 C.1     1  LIG1        0.1026
     13 C          -2.2408   -0.7928    0.0008 C.ar    1  LIG1        0.0815
     14 C          -2.6149   -2.1289    0.0009 C.ar    1  LIG1        0.0694
     15 C          -4.0421   -2.1612    0.0017 C.ar    1  LIG1        0.0944
     16 C          -4.5011   -0.8498    0.0021 C.ar    1  LIG1        0.0834
     17 N          -3.3925   -0.0464    0.0015 N.ar    1  LIG1       -0.3498
     18 H          -3.4410    0.9682    0.0016 H       1  LIG1        0.1661
     19 C          -1.7746   -3.2716    0.0003 C.1     1  LIG1       -0.0662
     20 C          -1.0743   -4.2529   -0.0002 C.1     1  LIG1       -0.1138
     21 H          -0.4830   -5.1407   -0.0004 H       1  LIG1        0.1232
     22 N          -5.4153   -4.3368    0.0023 N.1     1  LIG1       -0.1908
     23 C          -4.8103   -3.3493    0.0021 C.1     1  LIG1        0.1026
     24 C          -5.8456   -0.3155    0.0029 C.ar    1  LIG1        0.0815
     25 C          -6.2604    1.0082    0.0033 C.ar    1  LIG1        0.0694
     26 C          -7.6848    0.9943    0.0041 C.ar    1  LIG1        0.0944
     27 C          -8.1027   -0.3325    0.0042 C.ar    1  LIG1        0.0834
     28 N          -6.9775   -1.1027    0.0035 N.ar    1  LIG1       -0.3498
     29 H          -7.0021   -2.1177    0.0034 H       1  LIG1        0.1661
     30 C          -5.4496    2.1690    0.0030 C.1     1  LIG1       -0.0662
     31 C          -4.7829    3.1724    0.0027 C.1     1  LIG1       -0.1138
     32 H          -4.1439    4.0272    0.0024 H       1  LIG1        0.1232
     33 N          -9.3098    2.9893    0.0053 N.1     1  LIG1       -0.1908
     34 C          -8.5408    2.1218    0.0048 C.1     1  LIG1        0.1026
     35 C          -9.4445   -0.8707    0.0049 C.ar    1  LIG1        0.0810
     36 C          -9.8955   -2.1835    0.0050 C.ar    1  LIG1        0.0687
     37 C         -11.3252   -2.1292    0.0059 C.ar    1  LIG1        0.0850
     38 C         -11.6858   -0.8002    0.0062 C.ar    1  LIG1        0.0209
     39 N         -10.5543   -0.0574    0.0057 N.ar    1  LIG1       -0.3573
     40 H         -10.5278    0.9538    0.0058 H       1  LIG1        0.1655
     41 H         -12.6650   -0.3481    0.0068 H       1  LIG1        0.0820
     42 C          -9.0967   -3.3531    0.0044 C.1     1  LIG1       -0.0662
     43 C          -8.4252   -4.3531    0.0039 C.1     1  LIG1       -0.1138
     44 H          -7.7939   -5.2129    0.0035 H       1  LIG1        0.1232
     45 N         -12.9413   -4.1374    0.0065 N.1     1  LIG1       -0.1908
     46 C         -12.2138   -3.2379    0.0062 C.1     1  LIG1        0.1019
@<TRIPOS>BOND
     1    10     9    1
     2     9     8    3
     3     7     1    1
     4     8     2    1
     5     1     2   ar
     6     1     5   ar
     7     2     3   ar
     8     5     6    1
     9     5     4   ar
    10    21    20    1
    11     3     4   ar
    12     3    12    1
    13    20    19    3
    14     4    13    1
    15    12    11    3
    16    19    14    1
    17    13    14   ar
    18    13    17   ar
    19    14    15   ar
    20    17    18    1
    21    17    16   ar
    22    15    23    1
    23    15    16   ar
    24    23    22    3
    25    16    24    1
    26    32    31    1
    27    31    30    3
    28    24    25   ar
    29    24    28   ar
    30    30    25    1
    31    25    26   ar
    32    29    28    1
    33    28    27   ar
    34    44    43    1
    35    43    42    3
    36    26    27   ar
    37    26    34    1
    38    27    35    1
    39    42    36    1
    40    34    33    3
    41    35    36   ar
    42    35    39   ar
    43    36    37   ar
    44    39    40    1
    45    39    38   ar
    46    37    46    1
    47    37    38   ar
    48    46    45    3
    49    38    41    1
