@<TRIPOS>MOLECULE
mol_data/opt/cam/geoms/mol2/13ed13ed13ed13ed-.out
 46 49 0 0 0
SMALL
GASTEIGER

@<TRIPOS>ATOM
      1 C           0.4298    0.5041   -2.0624 C.ar    1  LIG1        0.0190
      2 C           0.7141    1.1018   -0.8577 C.ar    1  LIG1        0.0600
      3 C          -0.3575    0.7567    0.0327 C.ar    1  LIG1        0.0937
      4 C          -1.2507   -0.0328   -0.6673 C.ar    1  LIG1        0.0829
      5 N          -0.7435   -0.1822   -1.9334 N.ar    1  LIG1       -0.3573
      6 H          -1.2460   -0.6084   -2.6960 H       1  LIG1        0.1655
      7 H           0.9790    0.5256   -2.9902 H       1  LIG1        0.0820
      8 C           1.8523    1.8931   -0.5486 C.1     1  LIG1       -0.0669
      9 C           2.8135    2.5637   -0.2783 C.1     1  LIG1       -0.1138
     10 H           3.6615    3.1602   -0.0309 H       1  LIG1        0.1232
     11 N          -0.5133    1.3966    2.5246 N.1     1  LIG1       -0.1908
     12 C          -0.4527    1.1131    1.4048 C.1     1  LIG1        0.1026
     13 C          -2.4952   -0.6622   -0.2611 C.ar    1  LIG1        0.0815
     14 C          -3.6267   -0.1325    0.3313 C.ar    1  LIG1        0.0694
     15 C          -4.5634   -1.2071    0.4717 C.ar    1  LIG1        0.0944
     16 C          -3.9799   -2.3513   -0.0441 C.ar    1  LIG1        0.0834
     17 N          -2.7311   -1.9992   -0.4800 N.ar    1  LIG1       -0.3498
     18 H          -2.0703   -2.6364   -0.8971 H       1  LIG1        0.1661
     19 C          -3.8298    1.2176    0.7146 C.1     1  LIG1       -0.0662
     20 C          -4.0085    2.3604    1.0431 C.1     1  LIG1       -0.1138
     21 H          -4.1603    3.3695    1.3516 H       1  LIG1        0.1232
     22 N          -6.8869   -1.0287    1.5723 N.1     1  LIG1       -0.1908
     23 C          -5.8467   -1.1147    1.0742 C.1     1  LIG1        0.1026
     24 C          -4.4546   -3.7184   -0.1391 C.ar    1  LIG1        0.0815
     25 C          -5.6531   -4.2338   -0.5991 C.ar    1  LIG1        0.0694
     26 C          -5.5420   -5.6570   -0.5078 C.ar    1  LIG1        0.0944
     27 C          -4.2835   -5.9611   -0.0024 C.ar    1  LIG1        0.0834
     28 N          -3.6445   -4.7766    0.2031 N.ar    1  LIG1       -0.3498
     29 H          -2.7477   -4.7103    0.6695 H       1  LIG1        0.1661
     30 C          -6.7605   -3.5092   -1.1064 C.1     1  LIG1       -0.0662
     31 C          -7.7050   -2.9037   -1.5395 C.1     1  LIG1       -0.1138
     32 H          -8.5487   -2.3606   -1.8998 H       1  LIG1        0.1232
     33 N          -7.2223   -7.4962   -1.1509 N.1     1  LIG1       -0.1908
     34 C          -6.5065   -6.6269   -0.8761 C.1     1  LIG1        0.1026
     35 C          -3.6610   -7.2298    0.2953 C.ar    1  LIG1        0.0810
     36 C          -2.4010   -7.5029    0.8112 C.ar    1  LIG1        0.0687
     37 C          -2.2932   -8.9279    0.9019 C.ar    1  LIG1        0.0850
     38 C          -3.4784   -9.4580    0.4448 C.ar    1  LIG1        0.0209
     39 N          -4.2880   -8.4317    0.0849 N.ar    1  LIG1       -0.3573
     40 H          -5.2251   -8.5313   -0.2850 H       1  LIG1        0.1655
     41 H          -3.7879  -10.4872    0.3563 H       1  LIG1        0.0820
     42 C          -1.4147   -6.5553    1.1890 C.1     1  LIG1       -0.0662
     43 C          -0.5816   -5.7466    1.5147 C.1     1  LIG1       -0.1138
     44 H           0.1783   -5.0675    1.8309 H       1  LIG1        0.1232
     45 N          -0.2544  -10.2551    1.7543 N.1     1  LIG1       -0.1908
     46 C          -1.1708   -9.6607    1.3733 C.1     1  LIG1        0.1019
@<TRIPOS>BOND
     1     7     1    1
     2     6     5    1
     3     1     5   ar
     4     1     2   ar
     5     5     4   ar
     6    32    31    1
     7    31    30    3
     8    33    34    3
     9    30    25    1
    10    18    17    1
    11    34    26    1
    12     2     8    1
    13     2     3   ar
    14     4    13    1
    15     4     3   ar
    16    25    26   ar
    17    25    24   ar
    18     8     9    3
    19    26    27   ar
    20    17    13   ar
    21    17    16   ar
    22    40    39    1
    23     9    10    1
    24    13    14   ar
    25    24    16    1
    26    24    28   ar
    27    16    15   ar
    28    27    28   ar
    29    27    35    1
    30     3    12    1
    31    39    35   ar
    32    39    38   ar
    33    28    29    1
    34    35    36   ar
    35    14    15   ar
    36    14    19    1
    37    41    38    1
    38    38    37   ar
    39    15    23    1
    40    19    20    3
    41    36    37   ar
    42    36    42    1
    43    37    46    1
    44    20    21    1
    45    23    22    3
    46    42    43    3
    47    46    45    3
    48    12    11    3
    49    43    44    1
