@<TRIPOS>MOLECULE
mol_data/opt/cam/geoms/mol2/13ed13ed.out
 24 25 0 0 0
SMALL
GASTEIGER

@<TRIPOS>ATOM
      1 C           1.0724   -0.2004   -0.7384 C.ar    1  LIG1        0.0190
      2 C           0.8336    0.9863   -0.0880 C.ar    1  LIG1        0.0600
      3 C          -0.5345    0.9475    0.3464 C.ar    1  LIG1        0.0937
      4 C          -1.0730   -0.2588   -0.0619 C.ar    1  LIG1        0.0829
      5 N          -0.0735   -0.9427   -0.7066 N.ar    1  LIG1       -0.3573
      6 H          -0.2168   -1.8022   -1.2128 H       1  LIG1        0.1655
      7 H           1.9708   -0.5577   -1.2158 H       1  LIG1        0.0820
      8 C           1.7622    2.0393    0.1266 C.1     1  LIG1       -0.0669
      9 C           2.5425    2.9356    0.3126 C.1     1  LIG1       -0.1138
     10 H           3.2267    3.7353    0.4813 H       1  LIG1        0.1232
     11 N          -1.7133    2.7658    1.7416 N.1     1  LIG1       -0.1908
     12 C          -1.1940    1.9478    1.1097 C.1     1  LIG1        0.1026
     13 C          -2.3975   -0.8290    0.1071 C.ar    1  LIG1        0.0810
     14 C          -3.6507   -0.3063   -0.1519 C.ar    1  LIG1        0.0687
     15 C          -4.5985   -1.3331    0.1752 C.ar    1  LIG1        0.0850
     16 C          -3.8933   -2.4295    0.6125 C.ar    1  LIG1        0.0209
     17 N          -2.5711   -2.1209    0.5561 N.ar    1  LIG1       -0.3573
     18 H          -1.8307   -2.6934    0.9297 H       1  LIG1        0.1655
     19 H          -4.2462   -3.3886    0.9571 H       1  LIG1        0.0820
     20 C          -3.9441    0.9793   -0.6738 C.1     1  LIG1       -0.0662
     21 C          -4.2001    2.0677   -1.1164 C.1     1  LIG1       -0.1138
     22 H          -4.4272    3.0400   -1.4895 H       1  LIG1        0.1232
     23 N          -7.1640   -1.1997   -0.0447 N.1     1  LIG1       -0.1908
     24 C          -6.0127   -1.2525    0.0541 C.1     1  LIG1        0.1019
@<TRIPOS>BOND
     1    22    21    1
     2     7     1    1
     3     6     5    1
     4    21    20    3
     5     1     5   ar
     6     1     2   ar
     7     5     4   ar
     8    20    14    1
     9    14    13   ar
    10    14    15   ar
    11     2     8    1
    12     2     3   ar
    13     4    13    1
    14     4     3   ar
    15    23    24    3
    16    24    15    1
    17    13    17   ar
    18     8     9    3
    19    15    16   ar
    20     9    10    1
    21     3    12    1
    22    17    16   ar
    23    17    18    1
    24    16    19    1
    25    12    11    3
