@<TRIPOS>MOLECULE
mol_data/opt/cam/geoms/mol2/13ed13ed-13ed-13ed-.out
 46 49 0 0 0
SMALL
GASTEIGER

@<TRIPOS>ATOM
      1 C           1.0474    0.0859    0.0555 C.ar    1  LIG1        0.0190
      2 C           0.4446    1.3071    0.2449 C.ar    1  LIG1        0.0600
      3 C          -0.9685    1.0643    0.2152 C.ar    1  LIG1        0.0937
      4 C          -1.1598   -0.3023    0.0122 C.ar    1  LIG1        0.0829
      5 N           0.0745   -0.8641   -0.0802 N.ar    1  LIG1       -0.3573
      6 H           0.2192   -1.8509   -0.2503 H       1  LIG1        0.1655
      7 H           2.0952   -0.1638    0.0097 H       1  LIG1        0.0820
      8 C           1.0847    2.5608    0.4283 C.1     1  LIG1       -0.0669
      9 C           1.6151    3.6291    0.5845 C.1     1  LIG1       -0.1138
     10 H           2.0848    4.5762    0.7229 H       1  LIG1        0.1232
     11 N          -2.9907    2.6414    0.4241 N.1     1  LIG1       -0.1908
     12 C          -2.0295    1.9954    0.3377 C.1     1  LIG1        0.1026
     13 C          -2.3876   -1.0485   -0.1067 C.ar    1  LIG1        0.0815
     14 C          -2.6620   -2.3595   -0.4657 C.ar    1  LIG1        0.0694
     15 C          -4.0916   -2.5050   -0.4663 C.ar    1  LIG1        0.0944
     16 C          -4.6334   -1.2813   -0.0988 C.ar    1  LIG1        0.0834
     17 N          -3.5859   -0.4339    0.1132 N.ar    1  LIG1       -0.3498
     18 H          -3.6868    0.4899    0.5079 H       1  LIG1        0.1661
     19 C          -1.6996   -3.3487   -0.7932 C.1     1  LIG1       -0.0662
     20 C          -0.8659   -4.1766   -1.0620 C.1     1  LIG1       -0.1138
     21 H          -0.1632   -4.9385   -1.3142 H       1  LIG1        0.1232
     22 N          -5.3334   -4.6485   -1.1727 N.1     1  LIG1       -0.1908
     23 C          -4.7913   -3.6797   -0.8474 C.1     1  LIG1        0.1026
     24 C          -5.9529   -0.7072    0.0462 C.ar    1  LIG1        0.0815
     25 C          -7.1634   -1.1572    0.5348 C.ar    1  LIG1        0.0694
     26 C          -8.0335   -0.0144    0.6073 C.ar    1  LIG1        0.0944
     27 C          -7.3275    1.0904    0.1571 C.ar    1  LIG1        0.0834
     28 N          -6.0737    0.6516   -0.1659 N.ar    1  LIG1       -0.3498
     29 H          -5.4315    1.1910   -0.7285 H       1  LIG1        0.1661
     30 C          -7.4675   -2.4722    0.9661 C.1     1  LIG1       -0.0662
     31 C          -7.7222   -3.5893    1.3312 C.1     1  LIG1       -0.1138
     32 H          -7.9474   -4.5855    1.6368 H       1  LIG1        0.1232
     33 N         -10.3952   -0.0789    1.6355 N.1     1  LIG1       -0.1908
     34 C          -9.3412   -0.0340    1.1609 C.1     1  LIG1        0.1026
     35 C          -7.6255    2.5018    0.0379 C.ar    1  LIG1        0.0810
     36 C          -8.7752    3.1848   -0.3207 C.ar    1  LIG1        0.0687
     37 C          -8.4389    4.5786   -0.3159 C.ar    1  LIG1        0.0850
     38 C          -7.1116    4.6879    0.0308 C.ar    1  LIG1        0.0209
     39 N          -6.6278    3.4375    0.2338 N.ar    1  LIG1       -0.3573
     40 H          -5.6902    3.2365    0.5574 H       1  LIG1        0.1655
     41 H          -6.4958    5.5654    0.1492 H       1  LIG1        0.0820
     42 C         -10.0265    2.6257   -0.6808 C.1     1  LIG1       -0.0662
     43 C         -11.0894    2.1588   -0.9946 C.1     1  LIG1       -0.1138
     44 H         -12.0345    1.7361   -1.2485 H       1  LIG1        0.1232
     45 N         -10.0024    6.5474   -0.8874 N.1     1  LIG1       -0.1908
     46 C          -9.3060    5.6602   -0.6305 C.1     1  LIG1        0.1019
@<TRIPOS>BOND
     1    21    20    1
     2    44    43    1
     3    22    23    3
     4    20    19    3
     5    43    42    3
     6    45    46    3
     7    23    15    1
     8    19    14    1
     9    29    28    1
    10    42    36    1
    11    46    37    1
    12    15    14   ar
    13    15    16   ar
    14    14    13   ar
    15    36    37   ar
    16    36    35   ar
    17    37    38   ar
    18     6     5    1
    19    28    24   ar
    20    28    27   ar
    21    13     4    1
    22    13    17   ar
    23    16    24    1
    24    16    17   ar
    25     5     4   ar
    26     5     1   ar
    27     7     1    1
    28     4     3   ar
    29    38    41    1
    30    38    39   ar
    31    35    27    1
    32    35    39   ar
    33    24    25   ar
    34     1     2   ar
    35    17    18    1
    36    27    26   ar
    37     3     2   ar
    38     3    12    1
    39    39    40    1
    40     2     8    1
    41    12    11    3
    42     8     9    3
    43    25    26   ar
    44    25    30    1
    45     9    10    1
    46    26    34    1
    47    30    31    3
    48    34    33    3
    49    31    32    1
