@<TRIPOS>MOLECULE
mol_data/opt/cam/geoms/mol2/13ed13ed-.out
 24 25 0 0 0
SMALL
GASTEIGER

@<TRIPOS>ATOM
      1 C           1.1897   -0.3042   -0.0003 C.ar    1  LIG1        0.0190
      2 C           0.8168    1.0195   -0.0001 C.ar    1  LIG1        0.0600
      3 C          -0.6165    1.0308    0.0003 C.ar    1  LIG1        0.0937
      4 C          -1.0536   -0.2887    0.0003 C.ar    1  LIG1        0.0829
      5 N           0.0622   -1.0719   -0.0001 N.ar    1  LIG1       -0.3573
      6 H           0.0270   -2.0831   -0.0002 H       1  LIG1        0.1655
      7 H           2.1749   -0.7419   -0.0006 H       1  LIG1        0.0820
      8 C           1.6736    2.1515   -0.0003 C.1     1  LIG1       -0.0669
      9 C           2.3903    3.1178   -0.0004 C.1     1  LIG1       -0.1138
     10 H           3.0214    3.9767   -0.0005 H       1  LIG1        0.1232
     11 N          -2.2613    3.0093    0.0010 N.1     1  LIG1       -0.1908
     12 C          -1.4768    2.1554    0.0007 C.1     1  LIG1        0.1026
     13 C          -2.3880   -0.8449    0.0006 C.ar    1  LIG1        0.0810
     14 C          -2.8043   -2.1693    0.0005 C.ar    1  LIG1        0.0687
     15 C          -4.2371   -2.1513    0.0010 C.ar    1  LIG1        0.0850
     16 C          -4.6301   -0.8327    0.0012 C.ar    1  LIG1        0.0209
     17 N          -3.5141   -0.0616    0.0010 N.ar    1  LIG1       -0.3573
     18 H          -3.5056    0.9506    0.0010 H       1  LIG1        0.1655
     19 H          -5.6198   -0.4046    0.0015 H       1  LIG1        0.0820
     20 C          -1.9756   -3.3208    0.0002 C.1     1  LIG1       -0.0662
     21 C          -1.2683   -4.2971   -0.0001 C.1     1  LIG1       -0.1138
     22 H          -0.6782   -5.1855   -0.0004 H       1  LIG1        0.1232
     23 N          -5.7927   -4.2066    0.0013 N.1     1  LIG1       -0.1908
     24 C          -5.0953   -3.2835    0.0012 C.1     1  LIG1        0.1019
@<TRIPOS>BOND
     1     7     1    1
     2    10     9    1
     3     9     8    3
     4    22    21    1
     5     1     2   ar
     6     1     5   ar
     7     8     2    1
     8     6     5    1
     9     2     3   ar
    10     5     4   ar
    11    21    20    3
    12    20    14    1
    13     4     3   ar
    14     4    13    1
    15     3    12    1
    16    14    13   ar
    17    14    15   ar
    18    13    17   ar
    19    12    11    3
    20    17    18    1
    21    17    16   ar
    22    15    16   ar
    23    15    24    1
    24    16    19    1
    25    24    23    3
