@<TRIPOS>MOLECULE
mol_data/opt/cam/geoms/mol2/13ed13ed13ed-13ed-.out
 46 49 0 0 0
SMALL
GASTEIGER

@<TRIPOS>ATOM
      1 C           1.1236   -0.0397   -0.9932 C.ar    1  LIG1        0.0190
      2 C           0.8859    1.0657   -0.2117 C.ar    1  LIG1        0.0600
      3 C          -0.4886    0.9922    0.1951 C.ar    1  LIG1        0.0937
      4 C          -1.0318   -0.1525   -0.3609 C.ar    1  LIG1        0.0829
      5 N          -0.0290   -0.7674   -1.0666 N.ar    1  LIG1       -0.3573
      6 H          -0.1672   -1.5669   -1.6646 H       1  LIG1        0.1655
      7 H           2.0259   -0.3481   -1.4967 H       1  LIG1        0.0820
      8 C           1.8206    2.0759    0.1389 C.1     1  LIG1       -0.0669
      9 C           2.6059    2.9356    0.4405 C.1     1  LIG1       -0.1138
     10 H           3.2955    3.7015    0.7124 H       1  LIG1        0.1232
     11 N          -1.6658    2.6404    1.7887 N.1     1  LIG1       -0.1908
     12 C          -1.1461    1.9000    1.0676 C.1     1  LIG1        0.1026
     13 C          -2.3604   -0.7270   -0.2772 C.ar    1  LIG1        0.0815
     14 C          -3.6104   -0.1496   -0.4184 C.ar    1  LIG1        0.0694
     15 C          -4.5620   -1.2070   -0.2700 C.ar    1  LIG1        0.0944
     16 C          -3.8644   -2.3901   -0.0542 C.ar    1  LIG1        0.0834
     17 N          -2.5401   -2.0756   -0.0708 N.ar    1  LIG1       -0.3498
     18 H          -1.8144   -2.7380    0.1746 H       1  LIG1        0.1661
     19 C          -3.9037    1.2086   -0.6965 C.1     1  LIG1       -0.0662
     20 C          -4.1646    2.3583   -0.9340 C.1     1  LIG1       -0.1138
     21 H          -4.3877    3.3836   -1.1231 H       1  LIG1        0.1232
     22 N          -7.1324   -1.1960   -0.3482 N.1     1  LIG1       -0.1908
     23 C          -5.9750   -1.1293   -0.3244 C.1     1  LIG1        0.1026
     24 C          -4.3404   -3.7329    0.1722 C.ar    1  LIG1        0.0815
     25 C          -3.6483   -4.8874    0.5061 C.ar    1  LIG1        0.0694
     26 C          -4.6153   -5.9362    0.6258 C.ar    1  LIG1        0.0944
     27 C          -5.8597   -5.3913    0.3485 C.ar    1  LIG1        0.0834
     28 N          -5.6672   -4.0637    0.0853 N.ar    1  LIG1       -0.3498
     29 H          -6.3893   -3.4311   -0.2357 H       1  LIG1        0.1661
     30 C          -2.2504   -5.0007    0.7206 C.1     1  LIG1       -0.0662
     31 C          -1.0618   -5.0911    0.9011 C.1     1  LIG1       -0.1138
     32 H          -0.0186   -5.2152    1.0865 H       1  LIG1        0.1232
     33 N          -4.0453   -8.3267    1.3978 N.1     1  LIG1       -0.1908
     34 C          -4.3229   -7.2622    1.0403 C.1     1  LIG1        0.1026
     35 C          -7.1925   -5.9575    0.3309 C.ar    1  LIG1        0.0810
     36 C          -7.6681   -7.1707   -0.1367 C.ar    1  LIG1        0.0687
     37 C          -9.0885   -7.1545    0.0594 C.ar    1  LIG1        0.0850
     38 C          -9.4198   -5.9440    0.6227 C.ar    1  LIG1        0.0209
     39 N          -8.2764   -5.2293    0.7738 N.ar    1  LIG1       -0.3573
     40 H          -8.2188   -4.3324    1.2318 H       1  LIG1        0.1655
     41 H         -10.3811   -5.5585    0.9235 H       1  LIG1        0.0820
     42 C          -6.9188   -8.2088   -0.7447 C.1     1  LIG1       -0.0662
     43 C          -6.2949   -9.0943   -1.2673 C.1     1  LIG1       -0.1138
     44 H          -5.7351   -9.8866   -1.7089 H       1  LIG1        0.1232
     45 N         -10.7504   -9.0265   -0.5581 N.1     1  LIG1       -0.1908
     46 C         -10.0010   -8.1899   -0.2817 C.1     1  LIG1        0.1019
@<TRIPOS>BOND
     1    44    43    1
     2     6     5    1
     3     7     1    1
     4    43    42    3
     5    21    20    1
     6     5     1   ar
     7     5     4   ar
     8     1     2   ar
     9    20    19    3
    10    42    36    1
    11    19    14    1
    12    45    46    3
    13    14    13   ar
    14    14    15   ar
    15     4    13    1
    16     4     3   ar
    17    22    23    3
    18    23    15    1
    19    46    37    1
    20    13    17   ar
    21    15    16   ar
    22    29    28    1
    23     2     8    1
    24     2     3   ar
    25    36    37   ar
    26    36    35   ar
    27    17    16   ar
    28    17    18    1
    29    16    24    1
    30    37    38   ar
    31    28    24   ar
    32    28    27   ar
    33     8     9    3
    34    24    25   ar
    35     3    12    1
    36    35    27    1
    37    35    39   ar
    38    27    26   ar
    39     9    10    1
    40    25    26   ar
    41    25    30    1
    42    38    39   ar
    43    38    41    1
    44    26    34    1
    45    30    31    3
    46    39    40    1
    47    31    32    1
    48    34    33    3
    49    12    11    3
