@<TRIPOS>MOLECULE
mol_data/opt/cam/geoms/mol2/13ed13ed13ed13ed.out
 46 49 0 0 0
SMALL
GASTEIGER

@<TRIPOS>ATOM
      1 C           0.1771    0.4709   -2.3595 C.ar    1  LIG1        0.0190
      2 C           0.6391    1.0079   -1.1812 C.ar    1  LIG1        0.0600
      3 C          -0.3197    0.6610   -0.1714 C.ar    1  LIG1        0.0937
      4 C          -1.3256   -0.0687   -0.7766 C.ar    1  LIG1        0.0829
      5 N          -0.9946   -0.1810   -2.1029 N.ar    1  LIG1       -0.3573
      6 H          -1.6060   -0.5634   -2.8072 H       1  LIG1        0.1655
      7 H           0.6011    0.5131   -3.3501 H       1  LIG1        0.0820
      8 C           1.8368    1.7482   -0.9956 C.1     1  LIG1       -0.0669
      9 C           2.8496    2.3755   -0.8297 C.1     1  LIG1       -0.1138
     10 H           3.7444    2.9336   -0.6749 H       1  LIG1        0.1232
     11 N          -0.1392    1.1940    2.3440 N.1     1  LIG1       -0.1908
     12 C          -0.2272    0.9610    1.2144 C.1     1  LIG1        0.1026
     13 C          -2.5292   -0.6708   -0.2277 C.ar    1  LIG1        0.0815
     14 C          -3.5671   -0.1133    0.4967 C.ar    1  LIG1        0.0694
     15 C          -4.5030   -1.1659    0.7537 C.ar    1  LIG1        0.0944
     16 C          -4.0128   -2.3238    0.1783 C.ar    1  LIG1        0.0834
     17 N          -2.8194   -2.0023   -0.4086 N.ar    1  LIG1       -0.3498
     18 H          -2.2353   -2.6527   -0.9113 H       1  LIG1        0.1661
     19 C          -3.6882    1.2417    0.8981 C.1     1  LIG1       -0.0662
     20 C          -3.7973    2.3883    1.2432 C.1     1  LIG1       -0.1138
     21 H          -3.8875    3.4011    1.5635 H       1  LIG1        0.1232
     22 N          -6.6872   -0.9600    2.1069 N.1     1  LIG1       -0.1908
     23 C          -5.7102   -1.0534    1.4952 C.1     1  LIG1        0.1026
     24 C          -4.5451   -3.6769    0.1555 C.ar    1  LIG1        0.0815
     25 C          -5.7453   -4.1636   -0.3267 C.ar    1  LIG1        0.0694
     26 C          -5.7308   -5.5803   -0.1188 C.ar    1  LIG1        0.0944
     27 C          -4.5268   -5.9118    0.4771 C.ar    1  LIG1        0.0834
     28 N          -3.8258   -4.7474    0.6325 N.ar    1  LIG1       -0.3498
     29 H          -2.9086   -4.6849    1.0469 H       1  LIG1        0.1661
     30 C          -6.7867   -3.4058   -0.9214 C.1     1  LIG1       -0.0662
     31 C          -7.6740   -2.7693   -1.4250 C.1     1  LIG1       -0.1138
     32 H          -8.4714   -2.2067   -1.8541 H       1  LIG1        0.1232
     33 N          -7.6470   -7.2018   -0.7037 N.1     1  LIG1       -0.1908
     34 C          -6.7823   -6.4801   -0.4411 C.1     1  LIG1        0.1026
     35 C          -3.9957   -7.1890    0.9215 C.ar    1  LIG1        0.0810
     36 C          -3.8358   -8.3828    0.2439 C.ar    1  LIG1        0.0687
     37 C          -3.2264   -9.2977    1.1656 C.ar    1  LIG1        0.0850
     38 C          -3.0410   -8.6315    2.3545 C.ar    1  LIG1        0.0209
     39 N          -3.4943   -7.3610    2.1940 N.ar    1  LIG1       -0.3573
     40 H          -3.5966   -6.6906    2.9401 H       1  LIG1        0.1655
     41 H          -2.6274   -8.9805    3.2875 H       1  LIG1        0.0820
     42 C          -4.1757   -8.6433   -1.1083 C.1     1  LIG1       -0.0662
     43 C          -4.4619   -8.8721   -2.2536 C.1     1  LIG1       -0.1138
     44 H          -4.7361   -9.0856   -3.2614 H       1  LIG1        0.1232
     45 N          -2.5472  -11.7399    0.6939 N.1     1  LIG1       -0.1908
     46 C          -2.8568  -10.6451    0.9022 C.1     1  LIG1        0.1019
@<TRIPOS>BOND
     1     7     1    1
     2    44    43    1
     3     6     5    1
     4     1     5   ar
     5     1     2   ar
     6    43    42    3
     7     5     4   ar
     8    32    31    1
     9    31    30    3
    10     2     8    1
    11     2     3   ar
    12    42    36    1
    13     8     9    3
    14    30    25    1
    15    18    17    1
    16     9    10    1
    17     4    13    1
    18     4     3   ar
    19    33    34    3
    20    34    26    1
    21    17    13   ar
    22    17    16   ar
    23    25    26   ar
    24    25    24   ar
    25    13    14   ar
    26     3    12    1
    27    26    27   ar
    28    24    16    1
    29    24    28   ar
    30    16    15   ar
    31    36    35   ar
    32    36    37   ar
    33    27    28   ar
    34    27    35    1
    35    14    15   ar
    36    14    19    1
    37    28    29    1
    38    45    46    3
    39    15    23    1
    40    19    20    3
    41    46    37    1
    42    35    39   ar
    43    37    38   ar
    44    12    11    3
    45    20    21    1
    46    23    22    3
    47    39    38   ar
    48    39    40    1
    49    38    41    1
