@<TRIPOS>MOLECULE
mol_data/opt/cam/geoms/mol2/13ed13ed-13ed-13ed.out
 46 49 0 0 0
SMALL
GASTEIGER

@<TRIPOS>ATOM
      1 C           1.3194   -0.4647   -0.2376 C.ar    1  LIG1        0.0190
      2 C           0.9755    0.8464   -0.4683 C.ar    1  LIG1        0.0600
      3 C          -0.4543    0.9040   -0.3835 C.ar    1  LIG1        0.0937
      4 C          -0.9190   -0.3773   -0.1082 C.ar    1  LIG1        0.0829
      5 N           0.1785   -1.1816   -0.0265 N.ar    1  LIG1       -0.3573
      6 H           0.1255   -2.1682    0.1914 H       1  LIG1        0.1655
      7 H           2.2932   -0.9266   -0.2115 H       1  LIG1        0.0820
      8 C           1.8525    1.9311   -0.7315 C.1     1  LIG1       -0.0669
      9 C           2.5859    2.8580   -0.9554 C.1     1  LIG1       -0.1138
     10 H           3.2327    3.6817   -1.1539 H       1  LIG1        0.1232
     11 N          -2.0158    2.9361   -0.5970 N.1     1  LIG1       -0.1908
     12 C          -1.2781    2.0461   -0.5112 C.1     1  LIG1        0.1026
     13 C          -2.2581   -0.8838    0.0841 C.ar    1  LIG1        0.0815
     14 C          -2.6780   -2.1260    0.5342 C.ar    1  LIG1        0.0694
     15 C          -4.1078   -2.1053    0.5509 C.ar    1  LIG1        0.0944
     16 C          -4.5162   -0.8621    0.0923 C.ar    1  LIG1        0.0834
     17 N          -3.3820   -0.1407   -0.1727 N.ar    1  LIG1       -0.3498
     18 H          -3.3691    0.7829   -0.5851 H       1  LIG1        0.1661
     19 C          -1.8532   -3.2114    0.9276 C.1     1  LIG1       -0.0662
     20 C          -1.1526   -4.1365    1.2533 C.1     1  LIG1       -0.1138
     21 H          -0.5668   -4.9726    1.5623 H       1  LIG1        0.1232
     22 N          -5.5374   -4.0287    1.4950 N.1     1  LIG1       -0.1908
     23 C          -4.9178   -3.1570    1.0539 C.1     1  LIG1        0.1026
     24 C          -5.8406   -0.3070   -0.0932 C.ar    1  LIG1        0.0815
     25 C          -7.0117   -0.9009   -0.5371 C.ar    1  LIG1        0.0694
     26 C          -8.0145    0.1168   -0.5163 C.ar    1  LIG1        0.0944
     27 C          -7.4242    1.2974   -0.0814 C.ar    1  LIG1        0.0834
     28 N          -6.1143    1.0182    0.1607 N.ar    1  LIG1       -0.3498
     29 H          -5.4706    1.7059    0.5348 H       1  LIG1        0.1661
     30 C          -7.1964   -2.2296   -0.9926 C.1     1  LIG1       -0.0662
     31 C          -7.3746   -3.3488   -1.3952 C.1     1  LIG1       -0.1138
     32 H          -7.5275   -4.3503   -1.7270 H       1  LIG1        0.1232
     33 N         -10.5107   -0.0185   -1.1255 N.1     1  LIG1       -0.1908
     34 C          -9.3798   -0.0100   -0.8715 C.1     1  LIG1        0.1026
     35 C          -7.9868    2.6109    0.1283 C.ar    1  LIG1        0.0810
     36 C          -7.3540    3.8112    0.4203 C.ar    1  LIG1        0.0687
     37 C          -8.3818    4.8004    0.5334 C.ar    1  LIG1        0.0850
     38 C          -9.5848    4.1700    0.3041 C.ar    1  LIG1        0.0209
     39 N          -9.3356    2.8598    0.0639 N.ar    1  LIG1       -0.3573
     40 H         -10.0372    2.1643   -0.1546 H       1  LIG1        0.1655
     41 H         -10.5859    4.5711    0.2975 H       1  LIG1        0.0820
     42 C          -5.9534    4.0061    0.5279 C.1     1  LIG1       -0.0662
     43 C          -4.7568    4.1423    0.5894 C.1     1  LIG1       -0.1138
     44 H          -3.6938    4.2537    0.5617 H       1  LIG1        0.1232
     45 N          -8.0589    7.3034    1.0590 N.1     1  LIG1       -0.1908
     46 C          -8.2018    6.1800    0.8226 C.1     1  LIG1        0.1019
@<TRIPOS>BOND
     1    32    31    1
     2    31    30    3
     3    10     9    1
     4    33    34    3
     5    30    25    1
     6     9     8    3
     7    34    26    1
     8     8     2    1
     9    11    12    3
    10    18    17    1
    11    25    26   ar
    12    25    24   ar
    13    26    27   ar
    14    12     3    1
    15     2     3   ar
    16     2     1   ar
    17     3     4   ar
    18     1     7    1
    19     1     5   ar
    20    17    13   ar
    21    17    16   ar
    22    40    39    1
    23     4     5   ar
    24     4    13    1
    25    24    16    1
    26    24    28   ar
    27    27    35    1
    28    27    28   ar
    29     5     6    1
    30    39    35   ar
    31    39    38   ar
    32    13    14   ar
    33    16    15   ar
    34    35    36   ar
    35    28    29    1
    36    41    38    1
    37    38    37   ar
    38    36    42    1
    39    36    37   ar
    40    42    43    3
    41    37    46    1
    42    14    15   ar
    43    14    19    1
    44    15    23    1
    45    44    43    1
    46    46    45    3
    47    19    20    3
    48    23    22    3
    49    20    21    1
