@<TRIPOS>MOLECULE
mol_data/opt/cam/geoms/mol2/13ed6ll-6ed12fe-.out
 52 55 0 0 0
SMALL
GASTEIGER

@<TRIPOS>ATOM
      1 C           1.3129   -0.2915   -0.7935 C.ar    1  LIG1        0.0189
      2 C           1.0270    0.9856   -0.3694 C.ar    1  LIG1        0.0599
      3 C          -0.3702    1.0017   -0.0520 C.ar    1  LIG1        0.0924
      4 C          -0.8816   -0.2729   -0.2971 C.ar    1  LIG1        0.0705
      5 N           0.1688   -1.0228   -0.7436 N.ar    1  LIG1       -0.3583
      6 H           0.0490   -1.9961   -0.9899 H       1  LIG1        0.1654
      7 H           2.2479   -0.7158   -1.1225 H       1  LIG1        0.0820
      8 C           1.9327    2.0742   -0.2653 C.1     1  LIG1       -0.0669
      9 C           2.6937    3.0019   -0.1745 C.1     1  LIG1       -0.1138
     10 H           3.3619    3.8278   -0.0919 H       1  LIG1        0.1232
     11 N          -1.6678    3.0512    0.8172 N.1     1  LIG1       -0.1908
     12 C          -1.0744    2.1359    0.4261 C.1     1  LIG1        0.1025
     13 C          -2.5628   -2.1620   -0.4435 C.ar    1  LIG1        0.2246
     14 C          -2.2298   -0.8224   -0.1511 C.ar    1  LIG1        0.0646
     15 C          -3.2855   -0.0279    0.2945 C.ar    1  LIG1       -0.0036
     16 C          -4.5678   -0.5462    0.4348 C.ar    1  LIG1        0.1469
     17 C          -4.7801   -1.8942    0.1168 C.ar    1  LIG1        0.1190
     18 N          -3.7715   -2.6533   -0.3173 N.ar    1  LIG1       -0.2086
     19 H          -3.1008    1.0069    0.5397 H       1  LIG1        0.0663
     20 O          -1.5811   -2.9979   -0.8828 O.3     1  LIG1       -0.4792
     21 C          -1.9607   -4.3474   -1.1583 C.3     1  LIG1        0.0804
     22 H          -1.0394   -4.8558   -1.4407 H       1  LIG1        0.0660
     23 H          -2.4068   -4.8119   -0.2776 H       1  LIG1        0.0660
     24 H          -2.6829   -4.3862   -1.9760 H       1  LIG1        0.0660
     25 O          -5.6292    0.1766    0.8688 O.3     1  LIG1       -0.4929
     26 C          -5.4096    1.5226    1.2623 C.3     1  LIG1        0.0789
     27 H          -6.3758    1.8956    1.5984 H       1  LIG1        0.0660
     28 H          -4.6881    1.5855    2.0833 H       1  LIG1        0.0660
     29 H          -5.0541    2.1338    0.4263 H       1  LIG1        0.0660
     30 C          -6.2672   -3.8248    0.8039 C.ar    1  LIG1        0.1233
     31 C          -6.1045   -2.5471    0.2289 C.ar    1  LIG1        0.0391
     32 C          -7.2533   -1.9283   -0.2450 C.ar    1  LIG1       -0.0302
     33 C          -8.4822   -2.5806   -0.1966 C.ar    1  LIG1        0.0815
     34 C          -8.5220   -3.8971    0.3061 C.ar    1  LIG1        0.1284
     35 N          -7.4340   -4.4716    0.8175 N.ar    1  LIG1       -0.2332
     36 H          -7.2010   -0.9208   -0.6365 H       1  LIG1        0.0638
     37 C          -5.1897   -4.5100    1.4659 C.1     1  LIG1       -0.0491
     38 C          -4.3390   -5.1062    2.0724 C.1     1  LIG1       -0.1124
     39 H          -3.5909   -5.6342    2.6180 H       1  LIG1        0.1232
     40 N         -10.5787   -1.2209   -0.8695 N.1     1  LIG1       -0.1908
     41 C          -9.6566   -1.8579   -0.5837 C.1     1  LIG1        0.1014
     42 C          -9.7360   -4.6995    0.3114 C.ar    1  LIG1        0.1966
     43 C         -10.7842   -4.8424   -0.5542 C.ar    1  LIG1        0.1799
     44 C         -11.6357   -5.8681   -0.0201 C.ar    1  LIG1        0.1045
     45 C         -11.0226   -6.2786    1.1278 C.ar    1  LIG1        0.1117
     46 O          -9.8883   -5.6048    1.3340 O.2     1  LIG1       -0.4563
     47 H         -11.2907   -7.0185    1.8653 H       1  LIG1        0.1043
     48 O         -10.9544   -4.1949   -1.7164 O.3     1  LIG1       -0.5024
     49 H         -11.8254   -4.4157   -2.0745 H       1  LIG1        0.2923
     50 C         -12.8400   -6.3101   -0.6253 C.1     1  LIG1       -0.0628
     51 C         -13.8506   -6.6340   -1.1951 C.1     1  LIG1       -0.1137
     52 H         -14.7499   -6.9375   -1.6804 H       1  LIG1        0.1232
@<TRIPOS>BOND
     1    49    48    1
     2    24    21    1
     3    48    43    1
     4    52    51    1
     5    22    21    1
     6    51    50    3
     7    21    20    1
     8    21    23    1
     9     7     1    1
    10     6     5    1
    11    20    13    1
    12    40    41    3
    13     1     5   ar
    14     1     2   ar
    15     5     4   ar
    16    36    32    1
    17    50    44    1
    18    41    33    1
    19    43    44   ar
    20    43    42   ar
    21    13    18   ar
    22    13    14   ar
    23     2     8    1
    24     2     3   ar
    25    18    17   ar
    26     4    14    1
    27     4     3   ar
    28     8     9    3
    29    32    33   ar
    30    32    31   ar
    31    33    34   ar
    32     9    10    1
    33    14    15   ar
    34     3    12    1
    35    44    45   ar
    36    17    31    1
    37    17    16   ar
    38    31    30   ar
    39    15    16   ar
    40    15    19    1
    41    34    42    1
    42    34    35   ar
    43    42    46   ar
    44    12    11    3
    45    29    26    1
    46    16    25    1
    47    30    35   ar
    48    30    37    1
    49    25    26    1
    50    45    46   ar
    51    45    47    1
    52    26    27    1
    53    26    28    1
    54    37    38    3
    55    38    39    1
