@<TRIPOS>MOLECULE
mol_data/opt/cam/geoms/mol2/13ed13ed13ed.out
 35 37 0 0 0
SMALL
GASTEIGER

@<TRIPOS>ATOM
      1 C           0.7539    0.0732   -1.5345 C.ar    1  LIG1        0.0190
      2 C           0.8097    0.9751   -0.4986 C.ar    1  LIG1        0.0600
      3 C          -0.4177    0.8344    0.2321 C.ar    1  LIG1        0.0937
      4 C          -1.1705   -0.1434   -0.3907 C.ar    1  LIG1        0.0829
      5 N          -0.4316   -0.5992   -1.4530 N.ar    1  LIG1       -0.3573
      6 H          -0.7848   -1.2286   -2.1566 H       1  LIG1        0.1655
      7 H           1.4713   -0.1278   -2.3140 H       1  LIG1        0.0820
      8 C           1.8781    1.8622   -0.2003 C.1     1  LIG1       -0.0669
      9 C           2.7785    2.6161    0.0596 C.1     1  LIG1       -0.1138
     10 H           3.5710    3.2886    0.2958 H       1  LIG1        0.1232
     11 N          -1.0443    2.0966    2.3903 N.1     1  LIG1       -0.1908
     12 C          -0.7716    1.5333    1.4174 C.1     1  LIG1        0.1026
     13 C          -2.4797   -0.6893   -0.0760 C.ar    1  LIG1        0.0815
     14 C          -3.6987   -0.0643    0.1118 C.ar    1  LIG1        0.0694
     15 C          -4.6591   -1.0969    0.3618 C.ar    1  LIG1        0.0944
     16 C          -4.0016   -2.3129    0.3131 C.ar    1  LIG1        0.0834
     17 N          -2.6866   -2.0432    0.0478 N.ar    1  LIG1       -0.3498
     18 H          -1.9677   -2.7438   -0.0450 H       1  LIG1        0.1661
     19 C          -3.9534    1.3298    0.0545 C.1     1  LIG1       -0.0662
     20 C          -4.1765    2.5105    0.0084 C.1     1  LIG1       -0.1138
     21 H          -4.3724    3.5581   -0.0148 H       1  LIG1        0.1232
     22 N          -7.1594   -0.7338    0.8723 N.1     1  LIG1       -0.1908
     23 C          -6.0390   -0.9028    0.6403 C.1     1  LIG1        0.1026
     24 C          -4.4797   -3.6707    0.5097 C.ar    1  LIG1        0.0810
     25 C          -5.5096   -4.3613   -0.1003 C.ar    1  LIG1        0.0687
     26 C          -5.5062   -5.6815    0.4615 C.ar    1  LIG1        0.0850
     27 C          -4.4849   -5.7419    1.3806 C.ar    1  LIG1        0.0209
     28 N          -3.8654   -4.5328    1.3929 N.ar    1  LIG1       -0.3573
     29 H          -3.1648   -4.2541    2.0621 H       1  LIG1        0.1655
     30 H          -4.1726   -6.5546    2.0172 H       1  LIG1        0.0820
     31 C          -6.3787   -3.8717   -1.1086 C.1     1  LIG1       -0.0662
     32 C          -7.1191   -3.4626   -1.9633 C.1     1  LIG1       -0.1138
     33 H          -7.7909   -3.0950   -2.7050 H       1  LIG1        0.1232
     34 N          -7.0835   -7.6268   -0.1521 N.1     1  LIG1       -0.1908
     35 C          -6.3809   -6.7498    0.1221 C.1     1  LIG1        0.1019
@<TRIPOS>BOND
     1    33    32    1
     2     7     1    1
     3     6     5    1
     4    32    31    3
     5     1     5   ar
     6     1     2   ar
     7     5     4   ar
     8    31    25    1
     9     2     8    1
    10     2     3   ar
    11     4    13    1
    12     4     3   ar
    13     8     9    3
    14    34    35    3
    15    25    26   ar
    16    25    24   ar
    17    13    17   ar
    18    13    14   ar
    19    18    17    1
    20    21    20    1
    21    20    19    3
    22    17    16   ar
    23    19    14    1
    24     9    10    1
    25    14    15   ar
    26    35    26    1
    27     3    12    1
    28    16    15   ar
    29    16    24    1
    30    15    23    1
    31    26    27   ar
    32    24    28   ar
    33    23    22    3
    34    27    28   ar
    35    27    30    1
    36    28    29    1
    37    12    11    3
