@<TRIPOS>MOLECULE
mol_data/opt/cam/geoms/mol2/13ee13ee13ee13ee.out
 50 53 0 0 0
SMALL
GASTEIGER

@<TRIPOS>ATOM
      1 C           0.1582    0.2706   -2.5579 C.ar    1  LIG1        0.0189
      2 C           0.5700    0.9215   -1.4184 C.ar    1  LIG1        0.0580
      3 C          -0.4362    0.6939   -0.4164 C.ar    1  LIG1        0.0667
      4 C          -1.4208   -0.0844   -0.9971 C.ar    1  LIG1        0.0809
      5 N          -1.0301   -0.3421   -2.2916 N.ar    1  LIG1       -0.3574
      6 H          -1.6203   -0.7802   -2.9805 H       1  LIG1        0.1654
      7 H           0.6285    0.2083   -3.5264 H       1  LIG1        0.0820
      8 C           1.7715    1.6633   -1.2615 C.1     1  LIG1       -0.0669
      9 C           2.7897    2.2912   -1.1293 C.1     1  LIG1       -0.1138
     10 H           3.6885    2.8500   -1.0072 H       1  LIG1        0.1232
     11 C          -0.3991    1.1439    0.9291 C.1     1  LIG1       -0.0663
     12 C          -0.3565    1.5209    2.0709 C.1     1  LIG1       -0.1138
     13 H          -0.3277    1.8628    3.0794 H       1  LIG1        0.1232
     14 C          -2.6519   -0.6367   -0.4577 C.ar    1  LIG1        0.0814
     15 C          -3.7278   -0.0355    0.1720 C.ar    1  LIG1        0.0674
     16 C          -4.6848   -1.0656    0.4600 C.ar    1  LIG1        0.0674
     17 C          -4.1642   -2.2566   -0.0139 C.ar    1  LIG1        0.0814
     18 N          -2.9366   -1.9756   -0.5605 N.ar    1  LIG1       -0.3499
     19 H          -2.3297   -2.6573   -0.9878 H       1  LIG1        0.1661
     20 C          -3.8742    1.3472    0.4559 C.1     1  LIG1       -0.0662
     21 C          -4.0085    2.5192    0.6922 C.1     1  LIG1       -0.1138
     22 H          -4.1196    3.5573    0.9041 H       1  LIG1        0.1232
     23 C          -5.9237   -0.8963    1.1314 C.1     1  LIG1       -0.0662
     24 C          -6.9690   -0.7479    1.7084 C.1     1  LIG1       -0.1138
     25 H          -7.8995   -0.6190    2.2108 H       1  LIG1        0.1232
     26 C          -4.6790   -3.6152    0.0313 C.ar    1  LIG1        0.0814
     27 C          -5.8630   -4.1600   -0.4327 C.ar    1  LIG1        0.0674
     28 C          -5.8265   -5.5667   -0.1504 C.ar    1  LIG1        0.0674
     29 C          -4.6160   -5.8322    0.4658 C.ar    1  LIG1        0.0814
     30 N          -3.9405   -4.6415    0.5664 N.ar    1  LIG1       -0.3499
     31 H          -3.0299   -4.5351    0.9847 H       1  LIG1        0.1661
     32 C          -6.9097   -3.4628   -1.0907 C.1     1  LIG1       -0.0662
     33 C          -7.7965   -2.8789   -1.6564 C.1     1  LIG1       -0.1138
     34 H          -8.5837   -2.3566   -2.1487 H       1  LIG1        0.1232
     35 C          -6.8555   -6.5039   -0.4274 C.1     1  LIG1       -0.0662
     36 C          -7.7354   -7.2914   -0.6578 C.1     1  LIG1       -0.1138
     37 H          -8.5088   -7.9941   -0.8645 H       1  LIG1        0.1232
     38 C          -4.0549   -7.0639    0.9947 C.ar    1  LIG1        0.0809
     39 C          -3.8397   -8.2971    0.4070 C.ar    1  LIG1        0.0667
     40 C          -3.2270   -9.1383    1.3996 C.ar    1  LIG1        0.0580
     41 C          -3.0921   -8.3824    2.5407 C.ar    1  LIG1        0.0189
     42 N          -3.5784   -7.1350    2.2841 N.ar    1  LIG1       -0.3574
     43 H          -3.7227   -6.4184    2.9774 H       1  LIG1        0.1654
     44 H          -2.6887   -8.6513    3.5040 H       1  LIG1        0.0820
     45 C          -4.1240   -8.6533   -0.9370 C.1     1  LIG1       -0.0663
     46 C          -4.3537   -8.9594   -2.0777 C.1     1  LIG1       -0.1138
     47 H          -4.5690   -9.2305   -3.0851 H       1  LIG1        0.1232
     48 C          -2.8208  -10.4896    1.2332 C.1     1  LIG1       -0.0669
     49 C          -2.4761  -11.6341    1.0930 C.1     1  LIG1       -0.1138
     50 H          -2.1748  -12.6478    0.9639 H       1  LIG1        0.1232
@<TRIPOS>BOND
     1     7     1    1
     2    47    46    1
     3     6     5    1
     4     1     5   ar
     5     1     2   ar
     6     5     4   ar
     7    34    33    1
     8    46    45    3
     9    33    32    3
    10     2     8    1
    11     2     3   ar
    12     8     9    3
    13     9    10    1
    14    32    27    1
    15     4    14    1
    16     4     3   ar
    17    19    18    1
    18    45    39    1
    19    37    36    1
    20    36    35    3
    21    18    14   ar
    22    18    17   ar
    23    14    15   ar
    24    27    28   ar
    25    27    26   ar
    26    35    28    1
    27     3    11    1
    28    28    29   ar
    29    17    26    1
    30    17    16   ar
    31    26    30   ar
    32    15    20    1
    33    15    16   ar
    34    39    38   ar
    35    39    40   ar
    36    20    21    3
    37    16    23    1
    38    29    30   ar
    39    29    38    1
    40    30    31    1
    41    21    22    1
    42    11    12    3
    43    50    49    1
    44    38    42   ar
    45    49    48    3
    46    23    24    3
    47    48    40    1
    48    40    41   ar
    49    24    25    1
    50    12    13    1
    51    42    41   ar
    52    42    43    1
    53    41    44    1
