@<TRIPOS>MOLECULE
mol_data/opt/cam/geoms/mol2/13ee13ee-13ee-13ee.out
 50 53 0 0 0
SMALL
GASTEIGER

@<TRIPOS>ATOM
      1 C           1.2403   -0.2708   -0.1807 C.ar    1  LIG1        0.0189
      2 C           0.8019    0.9690   -0.5880 C.ar    1  LIG1        0.0580
      3 C          -0.6330    0.9310   -0.5563 C.ar    1  LIG1        0.0667
      4 C          -0.9988   -0.3406   -0.1285 C.ar    1  LIG1        0.0809
      5 N           0.1532   -1.0438    0.0898 N.ar    1  LIG1       -0.3574
      6 H           0.1619   -2.0002    0.4179 H       1  LIG1        0.1654
      7 H           2.2459   -0.6435   -0.0691 H       1  LIG1        0.0820
      8 C           1.6125    2.0726   -0.9647 C.1     1  LIG1       -0.0669
      9 C           2.2971    3.0098   -1.2840 C.1     1  LIG1       -0.1138
     10 H           2.9007    3.8403   -1.5682 H       1  LIG1        0.1232
     11 C          -1.5174    1.9887   -0.8905 C.1     1  LIG1       -0.0663
     12 C          -2.2884    2.8735   -1.1728 C.1     1  LIG1       -0.1138
     13 H          -2.9573    3.6677   -1.4162 H       1  LIG1        0.1232
     14 C          -2.3030   -0.9192    0.0861 C.ar    1  LIG1        0.0814
     15 C          -2.6814   -2.1672    0.5654 C.ar    1  LIG1        0.0674
     16 C          -4.1153   -2.2054    0.5784 C.ar    1  LIG1        0.0674
     17 C          -4.5569   -0.9848    0.0913 C.ar    1  LIG1        0.0814
     18 N          -3.4468   -0.2268   -0.1863 N.ar    1  LIG1       -0.3499
     19 H          -3.4485    0.6828   -0.6299 H       1  LIG1        0.1661
     20 C          -1.8093   -3.2035    0.9875 C.1     1  LIG1       -0.0662
     21 C          -1.0545   -4.0762    1.3393 C.1     1  LIG1       -0.1138
     22 H          -0.4206   -4.8693    1.6637 H       1  LIG1        0.1232
     23 C          -4.9053   -3.2705    1.0803 C.1     1  LIG1       -0.0662
     24 C          -5.5572   -4.1770    1.5288 C.1     1  LIG1       -0.1138
     25 H          -6.1462   -4.9739    1.9198 H       1  LIG1        0.1232
     26 C          -5.8779   -0.4195   -0.0860 C.ar    1  LIG1        0.0814
     27 C          -7.0657   -0.9428   -0.5733 C.ar    1  LIG1        0.0674
     28 C          -8.0280    0.1209   -0.5601 C.ar    1  LIG1        0.0674
     29 C          -7.3866    1.2562   -0.0806 C.ar    1  LIG1        0.0814
     30 N          -6.0960    0.9068    0.1919 N.ar    1  LIG1       -0.3499
     31 H          -5.4368    1.5336    0.6356 H       1  LIG1        0.1661
     32 C          -7.2907   -2.2495   -1.0753 C.1     1  LIG1       -0.0662
     33 C          -7.4964   -3.3469   -1.5240 C.1     1  LIG1       -0.1138
     34 H          -7.6659   -4.3231   -1.9153 H       1  LIG1        0.1232
     35 C          -9.3798    0.0364   -0.9823 C.1     1  LIG1       -0.0662
     36 C         -10.5323   -0.0201   -1.3341 C.1     1  LIG1       -0.1138
     37 H         -11.5437   -0.1087   -1.6586 H       1  LIG1        0.1232
     38 C          -7.8685    2.5991    0.1342 C.ar    1  LIG1        0.0809
     39 C          -7.2013    3.7416    0.5623 C.ar    1  LIG1        0.0667
     40 C          -8.1645    4.8059    0.5940 C.ar    1  LIG1        0.0580
     41 C          -9.3639    4.2671    0.1865 C.ar    1  LIG1        0.0189
     42 N          -9.1726    2.9470   -0.0842 N.ar    1  LIG1       -0.3574
     43 H          -9.8704    2.2930   -0.4125 H       1  LIG1        0.1654
     44 H         -10.3279    4.7372    0.0749 H       1  LIG1        0.0820
     45 C          -5.8256    3.8321    0.8966 C.1     1  LIG1       -0.0663
     46 C          -4.6532    3.8853    1.1790 C.1     1  LIG1       -0.1138
     47 H          -3.6169    3.9496    1.4226 H       1  LIG1        0.1232
     48 C          -7.9258    6.1542    0.9710 C.1     1  LIG1       -0.0669
     49 C          -7.7206    7.2964    1.2905 C.1     1  LIG1       -0.1138
     50 H          -7.5365    8.3064    1.5749 H       1  LIG1        0.1232
@<TRIPOS>BOND
     1    34    33    1
     2    37    36    1
     3    10     9    1
     4    33    32    3
     5    13    12    1
     6    36    35    3
     7     9     8    3
     8    12    11    3
     9    32    27    1
    10    35    28    1
    11     8     2    1
    12    11     3    1
    13    19    18    1
    14     2     3   ar
    15     2     1   ar
    16    27    28   ar
    17    27    26   ar
    18    28    29   ar
    19     3     4   ar
    20    43    42    1
    21    18    14   ar
    22    18    17   ar
    23     1     7    1
    24     1     5   ar
    25     4    14    1
    26     4     5   ar
    27    26    17    1
    28    26    30   ar
    29    42    38   ar
    30    42    41   ar
    31    29    38    1
    32    29    30   ar
    33    44    41    1
    34    14    15   ar
    35     5     6    1
    36    17    16   ar
    37    38    39   ar
    38    41    40   ar
    39    30    31    1
    40    39    40   ar
    41    39    45    1
    42    15    16   ar
    43    15    20    1
    44    16    23    1
    45    40    48    1
    46    45    46    3
    47    48    49    3
    48    20    21    3
    49    23    24    3
    50    46    47    1
    51    49    50    1
    52    21    22    1
    53    24    25    1
