@<TRIPOS>MOLECULE
mol_data/opt/cam/geoms/mol2/13ee13ee-.out
 26 27 0 0 0
SMALL
GASTEIGER

@<TRIPOS>ATOM
      1 C           1.1842   -0.2974   -0.0005 C.ar    1  LIG1        0.0189
      2 C           0.7981    1.0235   -0.0002 C.ar    1  LIG1        0.0580
      3 C          -0.6381    1.0344    0.0003 C.ar    1  LIG1        0.0667
      4 C          -1.0574   -0.2907    0.0004 C.ar    1  LIG1        0.0809
      5 N           0.0647   -1.0718   -0.0001 N.ar    1  LIG1       -0.3574
      6 H           0.0328   -2.0824   -0.0002 H       1  LIG1        0.1654
      7 H           2.1735   -0.7265   -0.0009 H       1  LIG1        0.0820
      8 C           1.6545    2.1564   -0.0005 C.1     1  LIG1       -0.0669
      9 C           2.3785    3.1180   -0.0006 C.1     1  LIG1       -0.1138
     10 H           3.0172    3.9707   -0.0007 H       1  LIG1        0.1232
     11 C          -1.4721    2.1820    0.0007 C.1     1  LIG1       -0.0663
     12 C          -2.1936    3.1490    0.0011 C.1     1  LIG1       -0.1138
     13 H          -2.7975    4.0272    0.0014 H       1  LIG1        0.1232
     14 C          -2.3844   -0.8616    0.0008 C.ar    1  LIG1        0.0809
     15 C          -2.8037   -2.1867    0.0009 C.ar    1  LIG1        0.0667
     16 C          -4.2400   -2.1757    0.0014 C.ar    1  LIG1        0.0580
     17 C          -4.6261   -0.8549    0.0017 C.ar    1  LIG1        0.0189
     18 N          -3.5065   -0.0805    0.0013 N.ar    1  LIG1       -0.3574
     19 H          -3.4747    0.9302    0.0014 H       1  LIG1        0.1654
     20 H          -5.6153   -0.4258    0.0021 H       1  LIG1        0.0820
     21 C          -1.9698   -3.3342    0.0005 C.1     1  LIG1       -0.0663
     22 C          -1.2483   -4.3012    0.0001 C.1     1  LIG1       -0.1138
     23 H          -0.6446   -5.1796   -0.0002 H       1  LIG1        0.1232
     24 C          -5.0964   -3.3087    0.0017 C.1     1  LIG1       -0.0669
     25 C          -5.8204   -4.2703    0.0018 C.1     1  LIG1       -0.1138
     26 H          -6.4591   -5.1229    0.0019 H       1  LIG1        0.1232
@<TRIPOS>BOND
     1     7     1    1
     2    10     9    1
     3     9     8    3
     4     8     2    1
     5     1     2   ar
     6     1     5   ar
     7     2     3   ar
     8    23    22    1
     9     6     5    1
    10     5     4   ar
    11    22    21    3
    12     3     4   ar
    13     3    11    1
    14     4    14    1
    15    21    15    1
    16    11    12    3
    17    14    15   ar
    18    14    18   ar
    19    15    16   ar
    20    12    13    1
    21    18    19    1
    22    18    17   ar
    23    16    24    1
    24    16    17   ar
    25    24    25    3
    26    17    20    1
    27    25    26    1
