@<TRIPOS>MOLECULE
mol_data/opt/cam/geoms/mol2/13ee4eh12de-12fh-.out
 54 57 0 0 0
SMALL
GASTEIGER

@<TRIPOS>ATOM
      1 C           1.1967   -0.1522   -0.6692 C.ar    1  LIG1        0.0190
      2 C           0.9379    1.1200   -0.1950 C.ar    1  LIG1        0.0600
      3 C          -0.4727    1.1688    0.1180 C.ar    1  LIG1        0.0954
      4 C          -1.0132   -0.0833   -0.1932 C.ar    1  LIG1        0.1046
      5 N           0.0234   -0.8578   -0.6606 N.ar    1  LIG1       -0.3560
      6 H          -0.0973   -1.8076   -0.9754 H       1  LIG1        0.1655
      7 H           2.1235   -0.5906   -1.0040 H       1  LIG1        0.0820
      8 C           1.8769    2.1686   -0.0331 C.1     1  LIG1       -0.0669
      9 C           2.6738    3.0678    0.1072 C.1     1  LIG1       -0.1138
     10 H           3.3668    3.8667    0.2348 H       1  LIG1        0.1232
     11 N          -1.6394    3.2030    1.1957 N.1     1  LIG1       -0.1908
     12 C          -1.1350    2.2783    0.6994 C.1     1  LIG1        0.1026
     13 C          -2.3377   -0.6313   -0.1085 C.ar    1  LIG1        0.1955
     14 C          -3.6107   -0.1221   -0.0747 C.ar    1  LIG1        0.1826
     15 C          -4.5146   -1.2432   -0.0626 C.ar    1  LIG1        0.1396
     16 C          -3.7353   -2.3943   -0.1019 C.ar    1  LIG1        0.1604
     17 O          -2.4267   -2.0148   -0.1332 O.2     1  LIG1       -0.4481
     18 O          -3.9388    1.1799   -0.0849 O.3     1  LIG1       -0.5023
     19 H          -4.8987    1.2761    0.0121 H       1  LIG1        0.2923
     20 N          -7.0109   -0.6501    0.1267 N.1     1  LIG1       -0.1906
     21 C          -5.9106   -1.0243    0.0327 C.1     1  LIG1        0.1067
     22 C          -5.2173   -4.3973   -0.4009 C.ar    1  LIG1        0.1316
     23 C          -5.3846   -5.7808   -0.3403 C.ar    1  LIG1       -0.0079
     24 C          -3.9723   -3.8266   -0.0629 C.ar    1  LIG1        0.0638
     25 C          -4.3511   -6.6420    0.0447 C.ar    1  LIG1        0.0308
     26 H          -6.3406   -6.2157   -0.5963 H       1  LIG1        0.0661
     27 C          -2.9250   -4.6892    0.3181 C.ar    1  LIG1       -0.0051
     28 C          -3.0990   -6.0681    0.3775 C.ar    1  LIG1        0.1288
     29 H          -1.9788   -4.2460    0.5949 H       1  LIG1        0.0662
     30 O          -6.1866   -3.5330   -0.7997 O.3     1  LIG1       -0.4944
     31 C          -7.5192   -4.0008   -0.9711 C.3     1  LIG1        0.0788
     32 H          -8.1216   -3.1073   -1.1350 H       1  LIG1        0.0660
     33 H          -7.5983   -4.6670   -1.8387 H       1  LIG1        0.0660
     34 H          -7.8749   -4.5230   -0.0757 H       1  LIG1        0.0660
     35 O          -2.1134   -6.9321    0.7722 O.3     1  LIG1       -0.4945
     36 C          -0.8794   -6.3951    1.2171 C.3     1  LIG1        0.0788
     37 H          -0.2718   -7.2501    1.5168 H       1  LIG1        0.0660
     38 H          -0.3601   -5.8484    0.4186 H       1  LIG1        0.0660
     39 H          -1.0143   -5.7281    2.0781 H       1  LIG1        0.0660
     40 C          -5.7114   -8.6644    0.7164 C.ar    1  LIG1        0.1247
     41 C          -5.9094  -10.0474    0.7187 C.ar    1  LIG1       -0.0193
     42 C          -4.5798   -8.1113    0.0816 C.ar    1  LIG1        0.0274
     43 C          -5.0011  -10.8940    0.0898 C.ar    1  LIG1       -0.0554
     44 H          -6.7808  -10.4612    1.2228 H       1  LIG1        0.0654
     45 C          -3.6847   -8.9961   -0.5392 C.ar    1  LIG1       -0.0475
     46 C          -3.8716  -10.3806   -0.5572 C.ar    1  LIG1       -0.0496
     47 H          -2.8094   -8.5768   -1.0235 H       1  LIG1        0.0627
     48 H          -5.1758  -11.9666    0.1055 H       1  LIG1        0.0621
     49 O          -6.5940   -7.8184    1.3367 O.3     1  LIG1       -0.5062
     50 H          -7.2719   -8.3484    1.7761 H       1  LIG1        0.2922
     51 C          -2.9000  -11.2885   -1.2748 C.3     1  LIG1       -0.0397
     52 H          -1.8980  -10.8512   -1.3118 H       1  LIG1        0.0278
     53 H          -3.2124  -11.4744   -2.3102 H       1  LIG1        0.0278
     54 H          -2.8229  -12.2623   -0.7812 H       1  LIG1        0.0278
@<TRIPOS>BOND
     1    53    51    1
     2    33    31    1
     3    52    51    1
     4    51    54    1
     5    51    46    1
     6    32    31    1
     7    47    45    1
     8     7     1    1
     9     6     5    1
    10    31    30    1
    11    31    34    1
    12    30    22    1
    13     1     5   ar
    14     1     2   ar
    15     5     4   ar
    16    26    23    1
    17    46    45   ar
    18    46    43   ar
    19    45    42   ar
    20    22    23   ar
    21    22    24   ar
    22    23    25   ar
    23     2     8    1
    24     2     3   ar
    25     4    13    1
    26     4     3   ar
    27    17    13   ar
    28    17    16   ar
    29    13    14   ar
    30    16    24    1
    31    16    15   ar
    32    18    14    1
    33    18    19    1
    34    14    15   ar
    35    24    27   ar
    36    15    21    1
    37     8     9    3
    38    21    20    3
    39    25    42    1
    40    25    28   ar
    41    42    40   ar
    42    43    48    1
    43    43    41   ar
    44     9    10    1
    45     3    12    1
    46    27    28   ar
    47    27    29    1
    48    28    35    1
    49    38    36    1
    50    12    11    3
    51    40    41   ar
    52    40    49    1
    53    41    44    1
    54    35    36    1
    55    36    37    1
    56    36    39    1
    57    49    50    1
