@<TRIPOS>MOLECULE
mol_data/opt/cam/geoms/mol2/13ee13ee13ee13ee-.out
 50 53 0 0 0
SMALL
GASTEIGER

@<TRIPOS>ATOM
      1 C           0.2571    0.4601   -2.4201 C.ar    1  LIG1        0.0189
      2 C           0.5800    1.1000   -1.2464 C.ar    1  LIG1        0.0580
      3 C          -0.4661    0.8058   -0.3043 C.ar    1  LIG1        0.0667
      4 C          -1.3846    0.0011   -0.9535 C.ar    1  LIG1        0.0809
      5 N          -0.9158   -0.2084   -2.2308 N.ar    1  LIG1       -0.3574
      6 H          -1.4494   -0.6548   -2.9593 H       1  LIG1        0.1654
      7 H           0.7798    0.4408   -3.3633 H       1  LIG1        0.0820
      8 C           1.7386    1.8875   -1.0095 C.1     1  LIG1       -0.0669
      9 C           2.7205    2.5542   -0.8096 C.1     1  LIG1       -0.1138
     10 H           3.5866    3.1470   -0.6273 H       1  LIG1        0.1232
     11 C          -0.5170    1.2222    1.0515 C.1     1  LIG1       -0.0663
     12 C          -0.5486    1.5702    2.2028 C.1     1  LIG1       -0.1138
     13 H          -0.5867    1.8836    3.2202 H       1  LIG1        0.1232
     14 C          -2.6172   -0.6160   -0.4945 C.ar    1  LIG1        0.0814
     15 C          -3.7453   -0.0801    0.1013 C.ar    1  LIG1        0.0674
     16 C          -4.6738   -1.1556    0.3065 C.ar    1  LIG1        0.0674
     17 C          -4.0844   -2.3076   -0.1858 C.ar    1  LIG1        0.0814
     18 N          -2.8442   -1.9594   -0.6611 N.ar    1  LIG1       -0.3499
     19 H          -2.1828   -2.6055   -1.0623 H       1  LIG1        0.1661
     20 C          -3.9613    1.2846    0.4249 C.1     1  LIG1       -0.0662
     21 C          -4.1549    2.4412    0.6933 C.1     1  LIG1       -0.1138
     22 H          -4.3178    3.4658    0.9353 H       1  LIG1        0.1232
     23 C          -5.9402   -1.0538    0.9379 C.1     1  LIG1       -0.0662
     24 C          -7.0071   -0.9586    1.4860 C.1     1  LIG1       -0.1138
     25 H          -7.9539   -0.8799    1.9677 H       1  LIG1        0.1232
     26 C          -4.5300   -3.6878   -0.2159 C.ar    1  LIG1        0.0814
     27 C          -5.7159   -4.2641   -0.6386 C.ar    1  LIG1        0.0674
     28 C          -5.5727   -5.6826   -0.4807 C.ar    1  LIG1        0.0674
     29 C          -4.2995   -5.9173    0.0235 C.ar    1  LIG1        0.0814
     30 N          -3.6895   -4.7040    0.1656 N.ar    1  LIG1       -0.3499
     31 H          -2.7902   -4.5894    0.6156 H       1  LIG1        0.1661
     32 C          -6.8415   -3.5984   -1.1876 C.1     1  LIG1       -0.0662
     33 C          -7.7972   -3.0472   -1.6677 C.1     1  LIG1       -0.1138
     34 H          -8.6419   -2.5481   -2.0827 H       1  LIG1        0.1232
     35 C          -6.5444   -6.6657   -0.8004 C.1     1  LIG1       -0.0662
     36 C          -7.3609   -7.5125   -1.0672 C.1     1  LIG1       -0.1138
     37 H          -8.1084   -8.2309   -1.3149 H       1  LIG1        0.1232
     38 C          -3.6322   -7.1476    0.3755 C.ar    1  LIG1        0.0809
     39 C          -2.3568   -7.3736    0.8802 C.ar    1  LIG1        0.0667
     40 C          -2.2129   -8.7926    1.0447 C.ar    1  LIG1        0.0580
     41 C          -3.3984   -9.3609    0.6363 C.ar    1  LIG1        0.0189
     42 N          -4.2377   -8.3660    0.2389 N.ar    1  LIG1       -0.3574
     43 H          -5.1794   -8.4780   -0.1117 H       1  LIG1        0.1654
     44 H          -3.6905  -10.3984    0.6056 H       1  LIG1        0.0820
     45 C          -1.3846   -6.3854    1.1824 C.1     1  LIG1       -0.0663
     46 C          -0.5700   -5.5324    1.4372 C.1     1  LIG1       -0.1138
     47 H           0.1721   -4.8080    1.6848 H       1  LIG1        0.1232
     48 C          -1.0693   -9.4777    1.5343 C.1     1  LIG1       -0.0669
     49 C          -0.0987  -10.0561    1.9490 C.1     1  LIG1       -0.1138
     50 H           0.7613  -10.5655    2.3178 H       1  LIG1        0.1232
@<TRIPOS>BOND
     1     7     1    1
     2     6     5    1
     3     1     5   ar
     4     1     2   ar
     5     5     4   ar
     6    34    33    1
     7    33    32    3
     8    37    36    1
     9     2     8    1
    10     2     3   ar
    11    32    27    1
    12    36    35    3
    13    19    18    1
    14     8     9    3
    15     4    14    1
    16     4     3   ar
    17     9    10    1
    18    35    28    1
    19    18    14   ar
    20    18    17   ar
    21    27    28   ar
    22    27    26   ar
    23    14    15   ar
    24    28    29   ar
    25     3    11    1
    26    26    17    1
    27    26    30   ar
    28    17    16   ar
    29    43    42    1
    30    29    30   ar
    31    29    38    1
    32    15    16   ar
    33    15    20    1
    34    30    31    1
    35    42    38   ar
    36    42    41   ar
    37    16    23    1
    38    38    39   ar
    39    20    21    3
    40    44    41    1
    41    41    40   ar
    42    21    22    1
    43    39    40   ar
    44    39    45    1
    45    23    24    3
    46    40    48    1
    47    11    12    3
    48    45    46    3
    49    46    47    1
    50    24    25    1
    51    48    49    3
    52    49    50    1
    53    12    13    1
