@<TRIPOS>MOLECULE
mol_data/opt/cam/geoms/mol2/13ee13ee.out
 26 27 0 0 0
SMALL
GASTEIGER

@<TRIPOS>ATOM
      1 C           1.0577   -0.2284   -0.7666 C.ar    1  LIG1        0.0189
      2 C           0.8183    1.0044   -0.2063 C.ar    1  LIG1        0.0580
      3 C          -0.5547    1.0134    0.2227 C.ar    1  LIG1        0.0667
      4 C          -1.0918   -0.2186   -0.1039 C.ar    1  LIG1        0.0809
      5 N          -0.0900   -0.9602   -0.6880 N.ar    1  LIG1       -0.3574
      6 H          -0.2391   -1.8514   -1.1328 H       1  LIG1        0.1654
      7 H           1.9582   -0.6232   -1.2098 H       1  LIG1        0.0820
      8 C           1.7588    2.0600   -0.0649 C.1     1  LIG1       -0.0669
      9 C           2.5563    2.9535    0.0543 C.1     1  LIG1       -0.1138
     10 H           3.2567    3.7489    0.1616 H       1  LIG1        0.1232
     11 C          -1.2154    2.0717    0.8989 C.1     1  LIG1       -0.0663
     12 C          -1.7661    2.9695    1.4806 C.1     1  LIG1       -0.1138
     13 H          -2.2616    3.7637    1.9888 H       1  LIG1        0.1232
     14 C          -2.4153   -0.7799    0.1048 C.ar    1  LIG1        0.0809
     15 C          -3.6745   -0.3095   -0.2213 C.ar    1  LIG1        0.0667
     16 C          -4.6223   -1.3030    0.2074 C.ar    1  LIG1        0.0580
     17 C          -3.9024   -2.3323    0.7671 C.ar    1  LIG1        0.0189
     18 N          -2.5785   -2.0159    0.6884 N.ar    1  LIG1       -0.3574
     19 H          -1.8341   -2.5285    1.1327 H       1  LIG1        0.1654
     20 H          -4.2445   -3.2543    1.2098 H       1  LIG1        0.0820
     21 C          -3.9761    0.9015   -0.8968 C.1     1  LIG1       -0.0663
     22 C          -4.2387    1.9217   -1.4780 C.1     1  LIG1       -0.1138
     23 H          -4.4654    2.8303   -1.9857 H       1  LIG1        0.1232
     24 C          -6.0349   -1.2451    0.0664 C.1     1  LIG1       -0.0669
     25 C          -7.2316   -1.1973   -0.0526 C.1     1  LIG1       -0.1138
     26 H          -8.2904   -1.1479   -0.1596 H       1  LIG1        0.1232
@<TRIPOS>BOND
     1    23    22    1
     2    22    21    3
     3     7     1    1
     4     6     5    1
     5    21    15    1
     6     1     5   ar
     7     1     2   ar
     8     5     4   ar
     9    15    14   ar
    10    15    16   ar
    11     2     8    1
    12     2     3   ar
    13    26    25    1
    14     4    14    1
    15     4     3   ar
    16     8     9    3
    17    25    24    3
    18     9    10    1
    19    24    16    1
    20    14    18   ar
    21    16    17   ar
    22     3    11    1
    23    18    17   ar
    24    18    19    1
    25    17    20    1
    26    11    12    3
    27    12    13    1
