@<TRIPOS>MOLECULE
mol_data/opt/cam/geoms/mol2/13ee13ee13ee-13ee.out
 50 53 0 0 0
SMALL
GASTEIGER

@<TRIPOS>ATOM
      1 C           0.9180    0.0327   -1.4888 C.ar    1  LIG1        0.0189
      2 C           0.8778    1.0241   -0.5365 C.ar    1  LIG1        0.0580
      3 C          -0.4162    0.9582    0.0877 C.ar    1  LIG1        0.0667
      4 C          -1.1102   -0.0716   -0.5232 C.ar    1  LIG1        0.0809
      5 N          -0.2738   -0.6279   -1.4641 N.ar    1  LIG1       -0.3574
      6 H          -0.5626   -1.3263   -2.1300 H       1  LIG1        0.1654
      7 H           1.7070   -0.2375   -2.1725 H       1  LIG1        0.0820
      8 C           1.9270    1.9287   -0.2206 C.1     1  LIG1       -0.0669
      9 C           2.8164    2.6944    0.0459 C.1     1  LIG1       -0.1138
     10 H           3.5992    3.3759    0.2859 H       1  LIG1        0.1232
     11 C          -0.8641    1.7611    1.1682 C.1     1  LIG1       -0.0663
     12 C          -1.2294    2.4386    2.0930 C.1     1  LIG1       -0.1138
     13 H          -1.5615    3.0384    2.9083 H       1  LIG1        0.1232
     14 C          -2.4373   -0.6126   -0.2975 C.ar    1  LIG1        0.0814
     15 C          -3.6740    0.0002   -0.1822 C.ar    1  LIG1        0.0674
     16 C          -4.6437   -1.0403   -0.0004 C.ar    1  LIG1        0.0674
     17 C          -3.9629   -2.2507   -0.0283 C.ar    1  LIG1        0.0814
     18 N          -2.6382   -1.9672   -0.2172 N.ar    1  LIG1       -0.3499
     19 H          -1.9078   -2.6628   -0.1396 H       1  LIG1        0.1661
     20 C          -3.9521    1.3876   -0.2788 C.1     1  LIG1       -0.0662
     21 C          -4.2031    2.5606   -0.3727 C.1     1  LIG1       -0.1138
     22 H          -4.4129    3.6022   -0.4496 H       1  LIG1        0.1232
     23 C          -6.0357   -0.8648    0.2026 C.1     1  LIG1       -0.0662
     24 C          -7.2174   -0.7242    0.3950 C.1     1  LIG1       -0.1138
     25 H          -8.2562   -0.5959    0.5943 H       1  LIG1        0.1232
     26 C          -4.4310   -3.6083    0.1147 C.ar    1  LIG1        0.0814
     27 C          -3.7157   -4.7818    0.3252 C.ar    1  LIG1        0.0674
     28 C          -4.6672   -5.8477    0.4032 C.ar    1  LIG1        0.0674
     29 C          -5.9270   -5.2859    0.2283 C.ar    1  LIG1        0.0814
     30 N          -5.7555   -3.9411    0.0595 N.ar    1  LIG1       -0.3499
     31 H          -6.5093   -3.2786   -0.0866 H       1  LIG1        0.1661
     32 C          -2.3080   -4.9068    0.4460 C.1     1  LIG1       -0.0662
     33 C          -1.1094   -5.0059    0.5404 C.1     1  LIG1       -0.1138
     34 H          -0.0554   -5.1214    0.6505 H       1  LIG1        0.1232
     35 C          -4.3714   -7.2175    0.6222 C.1     1  LIG1       -0.0662
     36 C          -4.1274   -8.3822    0.8187 C.1     1  LIG1       -0.1138
     37 H          -3.8794   -9.4064    0.9791 H       1  LIG1        0.1232
     38 C          -7.2283   -5.9115    0.2093 C.ar    1  LIG1        0.0809
     39 C          -8.4683   -5.4290   -0.1918 C.ar    1  LIG1        0.0667
     40 C          -9.4176   -6.4874    0.0064 C.ar    1  LIG1        0.0580
     41 C          -8.7170   -7.5605    0.5093 C.ar    1  LIG1        0.0189
     42 N          -7.4102   -7.2025    0.6274 N.ar    1  LIG1       -0.3574
     43 H          -6.6547   -7.7946    0.9429 H       1  LIG1        0.1654
     44 H          -9.0657   -8.5426    0.7865 H       1  LIG1        0.0820
     45 C          -8.7348   -4.1501   -0.7422 C.1     1  LIG1       -0.0663
     46 C          -8.9493   -3.0671   -1.2266 C.1     1  LIG1       -0.1138
     47 H          -9.1368   -2.1219   -1.6812 H       1  LIG1        0.1232
     48 C         -10.8098   -6.4408   -0.2706 C.1     1  LIG1       -0.0669
     49 C         -11.9896   -6.4002   -0.5055 C.1     1  LIG1       -0.1138
     50 H         -13.0334   -6.3610   -0.7149 H       1  LIG1        0.1232
@<TRIPOS>BOND
     1     7     1    1
     2     6     5    1
     3    47    46    1
     4     1     5   ar
     5     1     2   ar
     6     5     4   ar
     7    46    45    3
     8    45    39    1
     9    50    49    1
    10     2     8    1
    11     2     3   ar
    12     4    14    1
    13     4     3   ar
    14    49    48    3
    15    22    21    1
    16    21    20    3
    17    14    18   ar
    18    14    15   ar
    19    20    15    1
    20    48    40    1
    21     8     9    3
    22    18    19    1
    23    18    17   ar
    24    39    40   ar
    25    39    38   ar
    26    15    16   ar
    27    31    30    1
    28    17    16   ar
    29    17    26    1
    30    16    23    1
    31    40    41   ar
    32     9    10    1
    33    30    26   ar
    34    30    29   ar
    35     3    11    1
    36    26    27   ar
    37    23    24    3
    38    38    29    1
    39    38    42   ar
    40    29    28   ar
    41    27    28   ar
    42    27    32    1
    43    24    25    1
    44    28    35    1
    45    32    33    3
    46    41    42   ar
    47    41    44    1
    48    33    34    1
    49    35    36    3
    50    42    43    1
    51    36    37    1
    52    11    12    3
    53    12    13    1
