@<TRIPOS>MOLECULE
mol_data/opt/cam/geoms/mol2/13ee13ee13ee-13ee-.out
 50 53 0 0 0
SMALL
GASTEIGER

@<TRIPOS>ATOM
      1 C           1.1027   -0.0437   -1.0250 C.ar    1  LIG1        0.0189
      2 C           0.8458    1.0838   -0.2807 C.ar    1  LIG1        0.0580
      3 C          -0.5414    1.0345    0.0956 C.ar    1  LIG1        0.0667
      4 C          -1.0689   -0.1240   -0.4476 C.ar    1  LIG1        0.0809
      5 N          -0.0483   -0.7687   -1.1085 N.ar    1  LIG1       -0.3574
      6 H          -0.1783   -1.5837   -1.6863 H       1  LIG1        0.1654
      7 H           2.0176   -0.3683   -1.4947 H       1  LIG1        0.0820
      8 C           1.7826    2.0950    0.0638 C.1     1  LIG1       -0.0669
      9 C           2.5769    2.9510    0.3547 C.1     1  LIG1       -0.1138
     10 H           3.2755    3.7122    0.6145 H       1  LIG1        0.1232
     11 C          -1.2163    1.9702    0.9214 C.1     1  LIG1       -0.0663
     12 C          -1.7751    2.7633    1.6331 C.1     1  LIG1       -0.1138
     13 H          -2.2755    3.4656    2.2584 H       1  LIG1        0.1232
     14 C          -2.3951   -0.7078   -0.3818 C.ar    1  LIG1        0.0814
     15 C          -3.6512   -0.1666   -0.6004 C.ar    1  LIG1        0.0674
     16 C          -4.6001   -1.2291   -0.4360 C.ar    1  LIG1        0.0674
     17 C          -3.8845   -2.3811   -0.1325 C.ar    1  LIG1        0.0814
     18 N          -2.5615   -2.0434   -0.1141 N.ar    1  LIG1       -0.3499
     19 H          -1.8327   -2.6813    0.1789 H       1  LIG1        0.1661
     20 C          -3.9541    1.1660   -0.9795 C.1     1  LIG1       -0.0662
     21 C          -4.2244    2.2898   -1.3139 C.1     1  LIG1       -0.1138
     22 H          -4.4513    3.2894   -1.6039 H       1  LIG1        0.1232
     23 C          -6.0074   -1.1290   -0.5854 C.1     1  LIG1       -0.0662
     24 C          -7.2051   -1.0591   -0.7123 C.1     1  LIG1       -0.1138
     25 H          -8.2580   -0.9566   -0.8435 H       1  LIG1        0.1232
     26 C          -4.3319   -3.7251    0.1376 C.ar    1  LIG1        0.0814
     27 C          -3.6163   -4.8771    0.4411 C.ar    1  LIG1        0.0674
     28 C          -4.5652   -5.9396    0.6055 C.ar    1  LIG1        0.0674
     29 C          -5.8213   -5.3984    0.3869 C.ar    1  LIG1        0.0814
     30 N          -5.6549   -4.0628    0.1192 N.ar    1  LIG1       -0.3499
     31 H          -6.3837   -3.4249   -0.1738 H       1  LIG1        0.1661
     32 C          -2.2090   -4.9772    0.5905 C.1     1  LIG1       -0.0662
     33 C          -1.0113   -5.0471    0.7175 C.1     1  LIG1       -0.1138
     34 H           0.0415   -5.1495    0.8497 H       1  LIG1        0.1232
     35 C          -4.2623   -7.2722    0.9846 C.1     1  LIG1       -0.0662
     36 C          -3.9920   -8.3960    1.3190 C.1     1  LIG1       -0.1138
     37 H          -3.7650   -9.3957    1.6085 H       1  LIG1        0.1232
     38 C          -7.1475   -5.9822    0.4527 C.ar    1  LIG1        0.0809
     39 C          -7.6750   -7.1408   -0.0905 C.ar    1  LIG1        0.0667
     40 C          -9.0621   -7.1901    0.2857 C.ar    1  LIG1        0.0580
     41 C          -9.3191   -6.0625    1.0300 C.ar    1  LIG1        0.0189
     42 N          -8.1681   -5.3375    1.1136 N.ar    1  LIG1       -0.3574
     43 H          -8.0381   -4.5225    1.6914 H       1  LIG1        0.1654
     44 H         -10.2340   -5.7379    1.4998 H       1  LIG1        0.0820
     45 C          -7.0001   -8.0764   -0.9163 C.1     1  LIG1       -0.0663
     46 C          -6.4413   -8.8695   -1.6280 C.1     1  LIG1       -0.1138
     47 H          -5.9400   -9.5711   -2.2533 H       1  LIG1        0.1232
     48 C          -9.9990   -8.2012   -0.0587 C.1     1  LIG1       -0.0669
     49 C         -10.7933   -9.0572   -0.3496 C.1     1  LIG1       -0.1138
     50 H         -11.4918   -9.8184   -0.6095 H       1  LIG1        0.1232
@<TRIPOS>BOND
     1    47    46    1
     2     6     5    1
     3    46    45    3
     4    22    21    1
     5     7     1    1
     6    21    20    3
     7     5     1   ar
     8     5     4   ar
     9     1     2   ar
    10    20    15    1
    11    45    39    1
    12    25    24    1
    13    24    23    3
    14    50    49    1
    15    15    16   ar
    16    15    14   ar
    17    23    16    1
    18     4    14    1
    19     4     3   ar
    20    16    17   ar
    21    14    18   ar
    22    49    48    3
    23     2     8    1
    24     2     3   ar
    25    31    30    1
    26    17    18   ar
    27    17    26    1
    28    18    19    1
    29    39    40   ar
    30    39    38   ar
    31    48    40    1
    32     8     9    3
    33     3    11    1
    34    30    26   ar
    35    30    29   ar
    36    26    27   ar
    37    40    41   ar
    38     9    10    1
    39    29    38    1
    40    29    28   ar
    41    27    32    1
    42    27    28   ar
    43    38    42   ar
    44    32    33    3
    45    28    35    1
    46    33    34    1
    47    11    12    3
    48    35    36    3
    49    41    42   ar
    50    41    44    1
    51    42    43    1
    52    36    37    1
    53    12    13    1
