@<TRIPOS>MOLECULE
mol_data/opt/cam/geoms/mol2/13ee13ee13ee.out
 38 40 0 0 0
SMALL
GASTEIGER

@<TRIPOS>ATOM
      1 C           0.7491   -0.0331   -1.6108 C.ar    1  LIG1        0.0189
      2 C           0.7775    0.9512   -0.6506 C.ar    1  LIG1        0.0580
      3 C          -0.4808    0.8988    0.0438 C.ar    1  LIG1        0.0667
      4 C          -1.2223   -0.1165   -0.5322 C.ar    1  LIG1        0.0809
      5 N          -0.4487   -0.6781   -1.5228 N.ar    1  LIG1       -0.3574
      6 H          -0.7907   -1.3531   -2.1878 H       1  LIG1        0.1654
      7 H           1.4941   -0.3085   -2.3404 H       1  LIG1        0.0820
      8 C           1.8558    1.8384   -0.3879 C.1     1  LIG1       -0.0669
      9 C           2.7697    2.5893   -0.1658 C.1     1  LIG1       -0.1138
     10 H           3.5740    3.2586    0.0341 H       1  LIG1        0.1232
     11 C          -0.8674    1.7062    1.1451 C.1     1  LIG1       -0.0663
     12 C          -1.1852    2.3875    2.0845 C.1     1  LIG1       -0.1138
     13 H          -1.4752    2.9955    2.9097 H       1  LIG1        0.1232
     14 C          -2.5461   -0.6324   -0.2273 C.ar    1  LIG1        0.0814
     15 C          -3.7770   -0.0060   -0.1421 C.ar    1  LIG1        0.0674
     16 C          -4.7518   -1.0166    0.1563 C.ar    1  LIG1        0.0674
     17 C          -4.0828   -2.2257    0.2308 C.ar    1  LIG1        0.0814
     18 N          -2.7541   -1.9704   -0.0014 N.ar    1  LIG1       -0.3499
     19 H          -2.0295   -2.6705   -0.0055 H       1  LIG1        0.1661
     20 C          -4.0357    1.3752   -0.3406 C.1     1  LIG1       -0.0662
     21 C          -4.2630    2.5435   -0.5159 C.1     1  LIG1       -0.1138
     22 H          -4.4574    3.5801   -0.6659 H       1  LIG1        0.1232
     23 C          -6.1399   -0.8069    0.3641 C.1     1  LIG1       -0.0662
     24 C          -7.3143   -0.6209    0.5473 C.1     1  LIG1       -0.1138
     25 H          -8.3560   -0.4627    0.7036 H       1  LIG1        0.1232
     26 C          -4.5511   -3.5682    0.5308 C.ar    1  LIG1        0.0809
     27 C          -5.5436   -4.3410   -0.0438 C.ar    1  LIG1        0.0667
     28 C          -5.5485   -5.6043    0.6436 C.ar    1  LIG1        0.0580
     29 C          -4.5602   -5.5474    1.5983 C.ar    1  LIG1        0.0189
     30 N          -3.9574   -4.3275    1.5137 N.ar    1  LIG1       -0.3574
     31 H          -3.2906   -3.9663    2.1768 H       1  LIG1        0.1654
     32 H          -4.2551   -6.2866    2.3219 H       1  LIG1        0.0820
     33 C          -6.3702   -3.9763   -1.1382 C.1     1  LIG1       -0.0663
     34 C          -7.0677   -3.6769   -2.0718 C.1     1  LIG1       -0.1138
     35 H          -7.6906   -3.4034   -2.8915 H       1  LIG1        0.1232
     36 C          -6.3996   -6.7110    0.3796 C.1     1  LIG1       -0.0669
     37 C          -7.1198   -7.6490    0.1564 C.1     1  LIG1       -0.1138
     38 H          -7.7613   -8.4755   -0.0443 H       1  LIG1        0.1232
@<TRIPOS>BOND
     1    35    34    1
     2     7     1    1
     3     6     5    1
     4    34    33    3
     5     1     5   ar
     6     1     2   ar
     7     5     4   ar
     8    33    27    1
     9    22    21    1
    10     2     8    1
    11     2     3   ar
    12     4    14    1
    13     4     3   ar
    14    21    20    3
    15     8     9    3
    16    20    15    1
    17    14    15   ar
    18    14    18   ar
    19     9    10    1
    20    15    16   ar
    21    38    37    1
    22    27    26   ar
    23    27    28   ar
    24    19    18    1
    25    18    17   ar
    26     3    11    1
    27    16    17   ar
    28    16    23    1
    29    37    36    3
    30    17    26    1
    31    23    24    3
    32    36    28    1
    33    26    30   ar
    34    24    25    1
    35    28    29   ar
    36    11    12    3
    37    30    29   ar
    38    30    31    1
    39    29    32    1
    40    12    13    1
