@<TRIPOS>MOLECULE
mol_data/opt/cam/geoms/mol2/13ee6ee-13he12lf-12hf-6hf-13da6al-.out
 95 102 0 0 0
SMALL
GASTEIGER

@<TRIPOS>ATOM
      1 C           1.3588   -0.7820   -0.0649 C.ar    1  LIG1        0.0188
      2 C           1.1095    0.5156    0.3243 C.ar    1  LIG1        0.0579
      3 C          -0.3149    0.6527    0.4389 C.ar    1  LIG1        0.0653
      4 C          -0.8774   -0.5782    0.1133 C.ar    1  LIG1        0.0660
      5 N           0.1652   -1.4178   -0.1860 N.ar    1  LIG1       -0.3585
      6 H           0.0551   -2.3877   -0.4345 H       1  LIG1        0.1654
      7 H           2.2833   -1.3046   -0.2645 H       1  LIG1        0.0820
      8 C           2.0788    1.5244    0.5710 C.1     1  LIG1       -0.0669
      9 C           2.8995    2.3802    0.7795 C.1     1  LIG1       -0.1138
     10 H           3.6224    3.1397    0.9666 H       1  LIG1        0.1232
     11 C          -0.9897    1.8343    0.8430 C.1     1  LIG1       -0.0663
     12 C          -1.5450    2.8466    1.1867 C.1     1  LIG1       -0.1138
     13 H          -2.0287    3.7416    1.5032 H       1  LIG1        0.1232
     14 C          -2.7440   -2.3077    0.1771 C.ar    1  LIG1        0.1231
     15 C          -2.2793   -0.9842    0.0321 C.ar    1  LIG1        0.0345
     16 C          -3.2637   -0.0387   -0.2603 C.ar    1  LIG1       -0.0324
     17 C          -4.6084   -0.3797   -0.3586 C.ar    1  LIG1        0.0528
     18 C          -4.9834   -1.7245   -0.1080 C.ar    1  LIG1        0.1057
     19 N          -4.0310   -2.6447    0.1062 N.ar    1  LIG1       -0.2350
     20 H          -2.9742    0.9867   -0.4494 H       1  LIG1        0.0638
     21 C          -1.8687   -3.4216    0.4475 C.1     1  LIG1       -0.0491
     22 C          -1.1815   -4.3831    0.6882 C.1     1  LIG1       -0.1124
     23 H          -0.6320   -5.2715    0.9167 H       1  LIG1        0.1232
     24 C          -5.5113    0.6174   -0.8390 C.1     1  LIG1       -0.0674
     25 C          -6.2149    1.4879   -1.2866 C.1     1  LIG1       -0.1138
     26 H          -6.8311    2.2484   -1.7094 H       1  LIG1        0.1232
     27 C          -6.3308   -2.2605   -0.1011 C.ar    1  LIG1        0.0889
     28 C          -7.6189   -1.7841    0.1625 C.ar    1  LIG1        0.0680
     29 C          -8.5066   -2.9050    0.1086 C.ar    1  LIG1        0.0743
     30 C          -7.7311   -4.0353   -0.1623 C.ar    1  LIG1        0.1038
     31 N          -6.4511   -3.6278   -0.2791 N.ar    1  LIG1       -0.3480
     32 H          -5.6440   -4.2238   -0.3742 H       1  LIG1        0.1661
     33 N          -8.0350   -0.5327    0.5483 N.pl3   1  LIG1       -0.3553
     34 H          -7.5312    0.2545    0.1677 H       1  LIG1        0.1424
     35 H          -9.0397   -0.4253    0.5484 H       1  LIG1        0.1424
     36 C          -9.8961   -2.7996    0.3630 C.1     1  LIG1       -0.0656
     37 C         -11.0614   -2.6047    0.6077 C.1     1  LIG1       -0.1138
     38 H         -12.0972   -2.4620    0.8107 H       1  LIG1        0.1232
     39 C          -8.0291   -5.4368   -0.2999 C.ar    1  LIG1        0.1984
     40 C          -9.1526   -6.1906   -0.5172 C.ar    1  LIG1        0.2099
     41 C          -8.7250   -7.5562   -0.5961 C.ar    1  LIG1        0.2093
     42 C          -7.3635   -7.5364   -0.4353 C.ar    1  LIG1        0.2176
     43 O          -6.9335   -6.2495   -0.2649 O.2     1  LIG1       -0.4425
     44 O         -10.4001   -5.7197   -0.7218 O.3     1  LIG1       -0.4884
     45 C         -11.3841   -6.1997    0.1905 C.3     1  LIG1        0.0791
     46 H         -12.3376   -5.7987   -0.1526 H       1  LIG1        0.0660
     47 H         -11.4213   -7.2923    0.1881 H       1  LIG1        0.0660
     48 H         -11.1805   -5.8321    1.2015 H       1  LIG1        0.0660
     49 O          -9.5388   -8.5983   -0.8023 O.3     1  LIG1       -0.5007
     50 H          -8.9885   -9.4202   -0.8746 H       1  LIG1        0.2924
     51 C          -6.3720   -8.5642   -0.4533 C.ar    1  LIG1        0.1986
     52 C          -6.4304   -9.9119   -0.6812 C.ar    1  LIG1        0.1170
     53 C          -5.0836  -10.3797   -0.6124 C.ar    1  LIG1        0.1847
     54 C          -4.2832   -9.3047   -0.3339 C.ar    1  LIG1        0.1823
     55 O          -5.0927   -8.1916   -0.2393 O.2     1  LIG1       -0.4458
     56 N          -7.6225  -10.6440   -0.9563 N.pl3   1  LIG1       -0.3521
     57 H          -7.5719  -11.0872   -1.8707 H       1  LIG1        0.1425
     58 H          -7.7525  -11.3907   -0.2780 H       1  LIG1        0.1425
     59 O          -4.7615  -11.6781   -0.8213 O.3     1  LIG1       -0.5020
     60 H          -3.8152  -11.7540   -0.9982 H       1  LIG1        0.2924
     61 C          -2.1813   -7.8972   -0.3552 C.ar    1  LIG1        0.1280
     62 C          -2.8591   -9.1355   -0.1218 C.ar    1  LIG1        0.0639
     63 C          -2.0800  -10.1885    0.3221 C.ar    1  LIG1       -0.0039
     64 C          -0.6989  -10.0732    0.5124 C.ar    1  LIG1        0.1450
     65 C          -0.1291   -8.8178    0.3011 C.ar    1  LIG1        0.1317
     66 N          -0.8872   -7.7753   -0.1136 N.ar    1  LIG1       -0.2265
     67 H          -2.5251  -11.1457    0.5731 H       1  LIG1        0.0663
     68 N          -2.8250   -6.8065   -0.8776 N.pl3   1  LIG1       -0.3426
     69 H          -2.3268   -5.9328   -0.7931 H       1  LIG1        0.1437
     70 H          -3.8221   -6.7507   -0.7460 H       1  LIG1        0.1437
     71 O          -0.0619  -11.2271    0.8300 O.3     1  LIG1       -0.5045
     72 H           0.7175  -11.1112    1.3914 H       1  LIG1        0.2922
     73 C           1.2879   -8.4510    0.4377 C.ar    1  LIG1        0.0866
     74 C           2.4414   -8.9972    1.0069 C.ar    1  LIG1        0.0792
     75 C           3.5166   -8.0938    0.7756 C.ar    1  LIG1       -0.0183
     76 C           3.0067   -7.0194    0.0889 C.ar    1  LIG1        0.0498
     77 N           1.6694   -7.2607   -0.0968 N.ar    1  LIG1       -0.3518
     78 H           0.9977   -6.6979   -0.6008 H       1  LIG1        0.1660
     79 N           2.5853  -11.1490    2.4146 N.1     1  LIG1       -0.1908
     80 C           2.5349  -10.1820    1.7754 C.1     1  LIG1        0.1014
     81 H           4.5288   -8.2126    1.1308 H       1  LIG1        0.0652
     82 C           2.9240   -4.5825   -0.3886 C.ar    1  LIG1        0.0369
     83 C           3.6386   -5.7774   -0.3558 C.ar    1  LIG1        0.0199
     84 C           4.9835   -5.7516   -0.7404 C.ar    1  LIG1       -0.0079
     85 C           5.5390   -4.5432   -1.1346 C.ar    1  LIG1        0.1387
     86 C           4.7248   -3.4020   -1.1458 C.ar    1  LIG1        0.0692
     87 N           3.4528   -3.4223   -0.7815 N.ar    1  LIG1       -0.2590
     88 H           5.5576   -6.6696   -0.7420 H       1  LIG1        0.0662
     89 H           5.1523   -2.4556   -1.4643 H       1  LIG1        0.0867
     90 H           1.8886   -4.5516   -0.0584 H       1  LIG1        0.0836
     91 O           6.8169   -4.3603   -1.5320 O.3     1  LIG1       -0.4936
     92 C           7.6812   -5.4799   -1.5350 C.3     1  LIG1        0.0789
     93 H           8.6497   -5.1135   -1.8722 H       1  LIG1        0.0660
     94 H           7.7862   -5.9072   -0.5314 H       1  LIG1        0.0660
     95 H           7.3293   -6.2561   -2.2239 H       1  LIG1        0.0660
@<TRIPOS>BOND
     1    95    92    1
     2    93    92    1
     3    57    56    1
     4    26    25    1
     5    92    91    1
     6    92    94    1
     7    91    85    1
     8    89    86    1
     9    25    24    3
    10    86    85   ar
    11    86    87   ar
    12    85    84   ar
    13    60    59    1
    14    56    52    1
    15    56    58    1
    16    68    69    1
    17    68    70    1
    18    68    61    1
    19    50    49    1
    20    24    17    1
    21    59    53    1
    22    49    41    1
    23    87    82   ar
    24    88    84    1
    25    84    83   ar
    26    44    40    1
    27    44    45    1
    28    52    53   ar
    29    52    51   ar
    30    53    54   ar
    31    78    77    1
    32    41    40   ar
    33    41    42   ar
    34    40    39   ar
    35    51    42    1
    36    51    55   ar
    37    20    16    1
    38    42    43   ar
    39     6     5    1
    40    82    83   ar
    41    82    90    1
    42    32    31    1
    43    17    16   ar
    44    17    18   ar
    45    83    76    1
    46    61    62   ar
    47    61    66   ar
    48    54    55   ar
    49    54    62    1
    50    39    43   ar
    51    39    30    1
    52    31    30   ar
    53    31    27   ar
    54     7     1    1
    55    16    15   ar
    56     5     1   ar
    57     5     4   ar
    58    30    29   ar
    59    46    45    1
    60    62    63   ar
    61    66    65   ar
    62    18    27    1
    63    18    19   ar
    64    27    28   ar
    65    77    76   ar
    66    77    73   ar
    67     1     2   ar
    68    15     4    1
    69    15    14   ar
    70    76    75   ar
    71    19    14   ar
    72    29    28   ar
    73    29    36    1
    74     4     3   ar
    75    28    33    1
    76    34    33    1
    77    14    21    1
    78    47    45    1
    79    45    48    1
    80    65    73    1
    81    65    64   ar
    82    63    64   ar
    83    63    67    1
    84     2     3   ar
    85     2     8    1
    86    36    37    3
    87    73    74   ar
    88     3    11    1
    89    21    22    3
    90    64    71    1
    91    33    35    1
    92     8     9    3
    93    37    38    1
    94    22    23    1
    95    75    74   ar
    96    75    81    1
    97     9    10    1
    98    71    72    1
    99    11    12    3
   100    74    80    1
   101    12    13    1
   102    80    79    3
