@<TRIPOS>MOLECULE
mol_data/opt/cam/geoms/mol2/13ee12ld-12ea6ld-.out
 49 52 0 0 0
SMALL
GASTEIGER

@<TRIPOS>ATOM
      1 C           1.4035   -0.1068    0.8265 C.ar    1  LIG1        0.0189
      2 C           1.0104    1.2048    0.9626 C.ar    1  LIG1        0.0580
      3 C          -0.3974    1.2582    0.6748 C.ar    1  LIG1        0.0684
      4 C          -0.7911   -0.0356    0.3639 C.ar    1  LIG1        0.1026
      5 N           0.3157   -0.8397    0.4674 N.ar    1  LIG1       -0.3560
      6 H           0.2941   -1.8347    0.3103 H       1  LIG1        0.1655
      7 H           2.3750   -0.5546    0.9623 H       1  LIG1        0.0820
      8 C           1.8402    2.2972    1.3311 C.1     1  LIG1       -0.0669
      9 C           2.5446    3.2218    1.6431 C.1     1  LIG1       -0.1138
     10 H           3.1641    4.0435    1.9187 H       1  LIG1        0.1232
     11 C          -1.1989    2.4251    0.7609 C.1     1  LIG1       -0.0662
     12 C          -1.8345    3.4417    0.8725 C.1     1  LIG1       -0.1138
     13 H          -2.3872    4.3483    0.9596 H       1  LIG1        0.1232
     14 C          -2.0565   -0.6267    0.0099 C.ar    1  LIG1        0.1958
     15 C          -3.2283   -0.1851   -0.5328 C.ar    1  LIG1        0.1853
     16 C          -4.0786   -1.3398   -0.6739 C.ar    1  LIG1        0.1428
     17 C          -3.3518   -2.4104   -0.2148 C.ar    1  LIG1        0.1929
     18 O          -2.1345   -1.9844    0.1909 O.2     1  LIG1       -0.4450
     19 O          -3.4828    1.0606   -0.9683 O.3     1  LIG1       -0.4901
     20 C          -4.5668    1.7381   -0.3319 C.3     1  LIG1        0.0790
     21 H          -4.6549    2.6999   -0.8352 H       1  LIG1        0.0660
     22 H          -5.5027    1.1840   -0.4446 H       1  LIG1        0.0660
     23 H          -4.3444    1.8994    0.7265 H       1  LIG1        0.0660
     24 N          -6.3765   -1.2937   -1.8353 N.1     1  LIG1       -0.1906
     25 C          -5.3504   -1.3433   -1.3027 C.1     1  LIG1        0.1068
     26 C          -3.6047   -3.8205   -0.0860 C.ar    1  LIG1        0.1873
     27 C          -4.7384   -4.5721    0.1168 C.ar    1  LIG1        0.0741
     28 C          -4.2946   -5.9313    0.1582 C.ar    1  LIG1        0.0005
     29 C          -2.9445   -5.9103   -0.0042 C.ar    1  LIG1        0.1422
     30 O          -2.5170   -4.6287   -0.1517 O.2     1  LIG1       -0.4502
     31 C          -6.0659   -4.1089    0.2991 C.1     1  LIG1       -0.0657
     32 C          -7.1944   -3.7267    0.4646 C.1     1  LIG1       -0.1138
     33 H          -8.1905   -3.3674    0.5873 H       1  LIG1        0.1232
     34 H          -4.9216   -6.8009    0.2814 H       1  LIG1        0.0668
     35 C          -0.8300   -7.0049   -0.8662 C.ar    1  LIG1        0.2255
     36 C          -1.9564   -6.9861   -0.0044 C.ar    1  LIG1        0.0799
     37 C          -2.1164   -8.0764    0.8303 C.ar    1  LIG1       -0.0271
     38 C          -1.1931   -9.1292    0.7972 C.ar    1  LIG1        0.0707
     39 C          -0.1206   -9.0289   -0.0817 C.ar    1  LIG1        0.0488
     40 N           0.0533   -7.9891   -0.8928 N.ar    1  LIG1       -0.2194
     41 H          -2.9517   -8.1091    1.5206 H       1  LIG1        0.0640
     42 H           0.6240   -9.8181   -0.1322 H       1  LIG1        0.0844
     43 O          -0.6764   -5.9737   -1.6961 O.3     1  LIG1       -0.4792
     44 C           0.4309   -6.0098   -2.5964 C.3     1  LIG1        0.0804
     45 H           0.3551   -5.0934   -3.1793 H       1  LIG1        0.0660
     46 H           1.3754   -6.0417   -2.0500 H       1  LIG1        0.0660
     47 H           0.3738   -6.8837   -3.2478 H       1  LIG1        0.0660
     48 N          -1.4490  -11.1905    2.3405 N.1     1  LIG1       -0.1908
     49 C          -1.3348  -10.2687    1.6512 C.1     1  LIG1        0.1007
@<TRIPOS>BOND
     1    47    44    1
     2    45    44    1
     3    44    46    1
     4    44    43    1
     5    24    25    3
     6    43    35    1
     7    25    16    1
     8    19    15    1
     9    19    20    1
    10    40    35   ar
    11    40    39   ar
    12    35    36   ar
    13    21    20    1
    14    16    15   ar
    15    16    17   ar
    16    15    14   ar
    17    22    20    1
    18    20    23    1
    19    17    26    1
    20    17    18   ar
    21    30    26   ar
    22    30    29   ar
    23    42    39    1
    24    26    27   ar
    25    39    38   ar
    26    36    29    1
    27    36    37   ar
    28    29    28   ar
    29    14    18   ar
    30    14     4    1
    31    27    28   ar
    32    27    31    1
    33    28    34    1
    34    31    32    3
    35     6     5    1
    36     4     5   ar
    37     4     3   ar
    38    32    33    1
    39     5     1   ar
    40     3    11    1
    41     3     2   ar
    42    11    12    3
    43    38    37   ar
    44    38    49    1
    45     1     7    1
    46     1     2   ar
    47    37    41    1
    48    12    13    1
    49     2     8    1
    50     8     9    3
    51     9    10    1
    52    49    48    3
