@<TRIPOS>MOLECULE
mol_data/opt/cam/geoms/mol2/13ee13ee-13ee-13ee-.out
 50 53 0 0 0
SMALL
GASTEIGER

@<TRIPOS>ATOM
      1 C           1.1723   -0.1332   -0.5868 C.ar    1  LIG1        0.0189
      2 C           0.6578    1.0735   -1.0041 C.ar    1  LIG1        0.0580
      3 C          -0.7671    0.9911   -0.8489 C.ar    1  LIG1        0.0667
      4 C          -1.0507   -0.2713   -0.3403 C.ar    1  LIG1        0.0809
      5 N           0.1397   -0.9275   -0.1927 N.ar    1  LIG1       -0.3574
      6 H           0.2091   -1.8716    0.1627 H       1  LIG1        0.1654
      7 H           2.1961   -0.4691   -0.5477 H       1  LIG1        0.0820
      8 C           1.3944    2.1847   -1.4938 C.1     1  LIG1       -0.0669
      9 C           2.0164    3.1279   -1.9087 C.1     1  LIG1       -0.1138
     10 H           2.5644    3.9639   -2.2774 H       1  LIG1        0.1232
     11 C          -1.7108    2.0032   -1.1620 C.1     1  LIG1       -0.0663
     12 C          -2.5266    2.8520   -1.4262 C.1     1  LIG1       -0.1138
     13 H          -3.2172    3.6232   -1.6820 H       1  LIG1        0.1232
     14 C          -2.3107   -0.8839    0.0060 C.ar    1  LIG1        0.0814
     15 C          -2.6029   -2.1436    0.5140 C.ar    1  LIG1        0.0674
     16 C          -4.0272   -2.2255    0.6628 C.ar    1  LIG1        0.0674
     17 C          -4.5496   -1.0180    0.2312 C.ar    1  LIG1        0.0814
     18 N          -3.4959   -0.2234   -0.1468 N.ar    1  LIG1       -0.3499
     19 H          -3.5690    0.6779   -0.6015 H       1  LIG1        0.1661
     20 C          -1.6643   -3.1549    0.8445 C.1     1  LIG1       -0.0662
     21 C          -0.8548   -4.0056    1.1204 C.1     1  LIG1       -0.1138
     22 H          -0.1705   -4.7819    1.3760 H       1  LIG1        0.1232
     23 C          -4.7440   -3.3192    1.2120 C.1     1  LIG1       -0.0662
     24 C          -5.3387   -4.2484    1.6923 C.1     1  LIG1       -0.1138
     25 H          -5.8761   -5.0691    2.1076 H       1  LIG1        0.1232
     26 C          -5.9092   -0.5140    0.1898 C.ar    1  LIG1        0.0814
     27 C          -7.0821   -1.0558   -0.3078 C.ar    1  LIG1        0.0674
     28 C          -8.1183   -0.0813   -0.1137 C.ar    1  LIG1        0.0674
     29 C          -7.5385    1.0255    0.4811 C.ar    1  LIG1        0.0814
     30 N          -6.2072    0.7421    0.6576 N.ar    1  LIG1       -0.3499
     31 H          -5.5360    1.3769    1.0605 H       1  LIG1        0.1661
     32 C          -7.2338   -2.3196   -0.9345 C.1     1  LIG1       -0.0662
     33 C          -7.3710   -3.3838   -1.4787 C.1     1  LIG1       -0.1138
     34 H          -7.4871   -4.3286   -1.9568 H       1  LIG1        0.1232
     35 C          -9.4887   -0.2402   -0.4456 C.1     1  LIG1       -0.0662
     36 C         -10.6508   -0.3853   -0.7211 C.1     1  LIG1       -0.1138
     37 H         -11.6798   -0.5052   -0.9691 H       1  LIG1        0.1232
     38 C          -8.1053    2.2853    0.9308 C.ar    1  LIG1        0.0809
     39 C          -8.8654    3.2347    0.2723 C.ar    1  LIG1        0.0667
     40 C          -9.1209    4.2965    1.2080 C.ar    1  LIG1        0.0580
     41 C          -8.5036    3.9515    2.3876 C.ar    1  LIG1        0.0189
     42 N          -7.8847    2.7502    2.2077 N.ar    1  LIG1       -0.3574
     43 H          -7.4665    2.2012    2.9414 H       1  LIG1        0.1654
     44 H          -8.4684    4.4770    3.3287 H       1  LIG1        0.0820
     45 C          -9.2743    3.1959   -1.0861 C.1     1  LIG1       -0.0663
     46 C          -9.6154    3.1743   -2.2398 C.1     1  LIG1       -0.1138
     47 H          -9.9231    3.1453   -3.2592 H       1  LIG1        0.1232
     48 C          -9.8562    5.4869    0.9609 C.1     1  LIG1       -0.0669
     49 C         -10.4787    6.4956    0.7524 C.1     1  LIG1       -0.1138
     50 H         -11.0325    7.3856    0.5622 H       1  LIG1        0.1232
@<TRIPOS>BOND
     1    47    46    1
     2    10     9    1
     3    46    45    3
     4    34    33    1
     5     9     8    3
     6    13    12    1
     7     8     2    1
     8    33    32    3
     9    12    11    3
    10    11     3    1
    11    45    39    1
    12     2     3   ar
    13     2     1   ar
    14    37    36    1
    15    32    27    1
    16     3     4   ar
    17    36    35    3
    18    19    18    1
    19     1     7    1
    20     1     5   ar
    21    35    28    1
    22     4     5   ar
    23     4    14    1
    24    27    28   ar
    25    27    26   ar
    26     5     6    1
    27    18    14   ar
    28    18    17   ar
    29    28    29   ar
    30    14    15   ar
    31    26    17    1
    32    26    30   ar
    33    17    16   ar
    34    39    38   ar
    35    39    40   ar
    36    29    30   ar
    37    29    38    1
    38    15    16   ar
    39    15    20    1
    40    50    49    1
    41    30    31    1
    42    16    23    1
    43    49    48    3
    44    20    21    3
    45    38    42   ar
    46    48    40    1
    47    21    22    1
    48    40    41   ar
    49    23    24    3
    50    24    25    1
    51    42    41   ar
    52    42    43    1
    53    41    44    1
