@<TRIPOS>MOLECULE
mol_data/opt/cam/geoms/mol2/13ee13de-4la6hi.out
 48 51 0 0 0
SMALL
GASTEIGER

@<TRIPOS>ATOM
      1 C           0.9809    0.4485    1.1840 C.ar    1  LIG1        0.0188
      2 C           0.8289    1.2514    0.0669 C.ar    1  LIG1        0.0579
      3 C          -0.5124    1.0335   -0.4303 C.ar    1  LIG1        0.0653
      4 C          -1.1189    0.1041    0.4150 C.ar    1  LIG1        0.0645
      5 N          -0.1822   -0.2455    1.3664 N.ar    1  LIG1       -0.3585
      6 H          -0.3889   -0.8385    2.1549 H       1  LIG1        0.1654
      7 H           1.8231    0.3387    1.8491 H       1  LIG1        0.0820
      8 C           1.8104    2.1105   -0.4880 C.1     1  LIG1       -0.0669
      9 C           2.6488    2.8437   -0.9614 C.1     1  LIG1       -0.1138
     10 H           3.3810    3.4927   -1.3817 H       1  LIG1        0.1232
     11 C          -1.0559    1.6019   -1.6078 C.1     1  LIG1       -0.0663
     12 C          -1.4928    2.0837   -2.6280 C.1     1  LIG1       -0.1138
     13 H          -1.8903    2.5141   -3.5171 H       1  LIG1        0.1232
     14 C          -3.6542    0.1638    0.3465 C.ar    1  LIG1        0.0346
     15 C          -4.8496   -0.5625    0.3344 C.ar    1  LIG1       -0.0332
     16 C          -2.4303   -0.5577    0.3908 C.ar    1  LIG1        0.0167
     17 C          -4.9008   -1.9646    0.3864 C.ar    1  LIG1        0.0404
     18 H          -5.7756   -0.0025    0.2916 H       1  LIG1        0.0638
     19 C          -2.4737   -1.9512    0.4459 C.ar    1  LIG1       -0.0300
     20 C          -3.6710   -2.6880    0.4453 C.ar    1  LIG1        0.0361
     21 H          -1.5361   -2.5013    0.4529 H       1  LIG1        0.0643
     22 C          -3.7098    1.5893    0.3668 C.1     1  LIG1       -0.0690
     23 C          -3.8061    2.7945    0.4087 C.1     1  LIG1       -0.1139
     24 H          -3.8683    3.8575    0.4304 H       1  LIG1        0.1232
     25 N          -3.6057   -4.0612    0.5535 N.pl3   1  LIG1       -0.3574
     26 H          -4.3972   -4.6040    0.2455 H       1  LIG1        0.1423
     27 H          -2.7055   -4.4780    0.3721 H       1  LIG1        0.1423
     28 C          -6.2012   -2.6174    0.3938 C.ar    1  LIG1        0.1562
     29 C          -7.4805   -2.2162    0.7338 C.ar    1  LIG1        0.1135
     30 C          -8.3653   -3.3470    0.5241 C.ar    1  LIG1        0.0916
     31 C          -7.5609   -4.3668    0.0576 C.ar    1  LIG1        0.1909
     32 O          -6.2656   -3.9207   -0.0207 O.2     1  LIG1       -0.4489
     33 N          -8.2486    0.0632    1.6708 N.1     1  LIG1       -0.1907
     34 C          -7.8908   -0.9613    1.2483 C.1     1  LIG1        0.1042
     35 C          -9.7483   -3.3753    0.8114 C.1     1  LIG1       -0.0644
     36 C         -10.9269   -3.3639    1.0821 C.1     1  LIG1       -0.1138
     37 H         -11.9665   -3.3581    1.3138 H       1  LIG1        0.1232
     38 C          -7.7767   -5.7241   -0.3423 C.ar    1  LIG1        0.2140
     39 C          -8.8634   -6.4627   -0.7525 C.ar    1  LIG1        0.1870
     40 C          -8.3969   -7.7912   -1.0232 C.ar    1  LIG1        0.1057
     41 C          -7.0543   -7.7789   -0.7757 C.ar    1  LIG1        0.1171
     42 O          -6.6592   -6.5471   -0.3666 O.2     1  LIG1       -0.4541
     43 H          -6.2799   -8.5274   -0.8480 H       1  LIG1        0.1050
     44 O         -10.1381   -6.0742   -0.9281 O.3     1  LIG1       -0.5019
     45 H         -10.5906   -6.8546   -1.2994 H       1  LIG1        0.2924
     46 N          -9.3039   -8.7817   -1.4918 N.pl3   1  LIG1       -0.3527
     47 H          -8.9703   -9.2494   -2.3286 H       1  LIG1        0.1425
     48 H          -9.4999   -9.4897   -0.7897 H       1  LIG1        0.1425
@<TRIPOS>BOND
     1    13    12    1
     2    12    11    3
     3    47    46    1
     4    11     3    1
     5    46    40    1
     6    46    48    1
     7    10     9    1
     8    45    44    1
     9    40    41   ar
    10    40    39   ar
    11     9     8    3
    12    44    39    1
    13    43    41    1
    14    41    42   ar
    15    39    38   ar
    16     8     2    1
    17     3     2   ar
    18     3     4   ar
    19    42    38   ar
    20    38    31    1
    21    32    31   ar
    22    32    28   ar
    23    31    30   ar
    24     2     1   ar
    25    26    25    1
    26    18    15    1
    27    15    14   ar
    28    15    17   ar
    29    14    22    1
    30    14    16   ar
    31    22    23    3
    32    27    25    1
    33    17    28    1
    34    17    20   ar
    35    16     4    1
    36    16    19   ar
    37    28    29   ar
    38    23    24    1
    39     4     5   ar
    40    20    19   ar
    41    20    25    1
    42    19    21    1
    43    30    29   ar
    44    30    35    1
    45    29    34    1
    46    35    36    3
    47    36    37    1
    48     1     5   ar
    49     1     7    1
    50    34    33    3
    51     5     6    1
