@<TRIPOS>MOLECULE
mol_data/opt/cam/geoms/mol2/13ee13ee-4ee13ee.out
 52 55 0 0 0
SMALL
GASTEIGER

@<TRIPOS>ATOM
      1 C           1.3630   -0.3956   -0.1170 C.ar    1  LIG1        0.0189
      2 C           0.9918    0.9061   -0.3670 C.ar    1  LIG1        0.0580
      3 C          -0.4431    0.9411   -0.3333 C.ar    1  LIG1        0.0667
      4 C          -0.8778   -0.3509   -0.0596 C.ar    1  LIG1        0.0809
      5 N           0.2363   -1.1358    0.0650 N.ar    1  LIG1       -0.3574
      6 H           0.1948   -2.1275    0.2571 H       1  LIG1        0.1654
      7 H           2.3470   -0.8327   -0.0587 H       1  LIG1        0.0820
      8 C           1.8610    2.0020   -0.6134 C.1     1  LIG1       -0.0669
      9 C           2.5965    2.9318   -0.8219 C.1     1  LIG1       -0.1138
     10 H           3.2449    3.7563   -1.0076 H       1  LIG1        0.1232
     11 C          -1.2627    2.0764   -0.5545 C.1     1  LIG1       -0.0663
     12 C          -1.9699    3.0347   -0.7454 C.1     1  LIG1       -0.1138
     13 H          -2.5842    3.8849   -0.9331 H       1  LIG1        0.1232
     14 C          -2.2077   -0.8936    0.0884 C.ar    1  LIG1        0.0813
     15 C          -2.6282   -2.2030    0.2961 C.ar    1  LIG1        0.0673
     16 C          -4.0570   -2.1824    0.3643 C.ar    1  LIG1        0.0659
     17 C          -4.4598   -0.8609    0.2003 C.ar    1  LIG1        0.0650
     18 N          -3.3242   -0.1141    0.0380 N.ar    1  LIG1       -0.3510
     19 H          -3.3009    0.8912   -0.0784 H       1  LIG1        0.1660
     20 C          -1.8016   -3.3485    0.4244 C.1     1  LIG1       -0.0662
     21 C          -1.0892   -4.3159    0.5347 C.1     1  LIG1       -0.1138
     22 H          -0.4913   -5.1928    0.6322 H       1  LIG1        0.1232
     23 C          -4.8715   -3.3215    0.5959 C.1     1  LIG1       -0.0663
     24 C          -5.5393   -4.3041    0.7934 C.1     1  LIG1       -0.1138
     25 H          -6.1288   -5.1723    0.9772 H       1  LIG1        0.1232
     26 C          -6.1167    1.0158    0.6102 C.ar    1  LIG1        0.0345
     27 C          -7.4274    1.4854    0.5334 C.ar    1  LIG1       -0.0354
     28 C          -5.8068   -0.2874    0.1614 C.ar    1  LIG1        0.0161
     29 C          -8.4756    0.7234    0.0184 C.ar    1  LIG1        0.0161
     30 H          -7.6310    2.4823    0.8989 H       1  LIG1        0.0637
     31 C          -6.8527   -1.0541   -0.3460 C.ar    1  LIG1       -0.0354
     32 C          -8.1643   -0.5846   -0.4223 C.ar    1  LIG1        0.0345
     33 H          -6.6478   -2.0539   -0.7050 H       1  LIG1        0.0637
     34 C          -5.1362    1.8854    1.1874 C.1     1  LIG1       -0.0690
     35 C          -4.3336    2.6404    1.6738 C.1     1  LIG1       -0.1139
     36 H          -3.6083    3.2885    2.1101 H       1  LIG1        0.1232
     37 C          -9.1301   -1.4809   -0.9883 C.1     1  LIG1       -0.0690
     38 C          -9.9037   -2.2764   -1.4592 C.1     1  LIG1       -0.1139
     39 H         -10.5748   -2.9756   -1.9040 H       1  LIG1        0.1232
     40 C          -9.8210    1.3017   -0.0220 C.ar    1  LIG1        0.0645
     41 C         -10.2395    2.6311   -0.0278 C.ar    1  LIG1        0.0653
     42 C         -11.6740    2.6287   -0.0419 C.ar    1  LIG1        0.0579
     43 C         -12.0701    1.3106   -0.0448 C.ar    1  LIG1        0.0188
     44 N         -10.9576    0.5338   -0.0311 N.ar    1  LIG1       -0.3585
     45 H         -10.9475   -0.4736   -0.0813 H       1  LIG1        0.1654
     46 H         -13.0617    0.8868   -0.0563 H       1  LIG1        0.0820
     47 C          -9.4444    3.8069   -0.0513 C.1     1  LIG1       -0.0663
     48 C          -8.7996    4.8241   -0.0729 C.1     1  LIG1       -0.1138
     49 H          -8.2334    5.7261   -0.0995 H       1  LIG1        0.1232
     50 C         -12.5252    3.7657   -0.0570 C.1     1  LIG1       -0.0669
     51 C         -13.2481    4.7281   -0.0694 C.1     1  LIG1       -0.1138
     52 H         -13.8836    5.5829   -0.0809 H       1  LIG1        0.1232
@<TRIPOS>BOND
     1    39    38    1
     2    38    37    3
     3    10     9    1
     4    37    32    1
     5    13    12    1
     6     9     8    3
     7    12    11    3
     8    33    31    1
     9     8     2    1
    10    11     3    1
    11    32    31   ar
    12    32    29   ar
    13     2     3   ar
    14     2     1   ar
    15    31    28   ar
    16     3     4   ar
    17     1     7    1
    18     1     5   ar
    19    49    48    1
    20    45    44    1
    21    52    51    1
    22    19    18    1
    23    48    47    3
    24    51    50    3
    25     4     5   ar
    26     4    14    1
    27    50    42    1
    28    46    43    1
    29    47    41    1
    30    43    42   ar
    31    43    44   ar
    32    42    41   ar
    33    44    40   ar
    34    41    40   ar
    35    40    29    1
    36    29    27   ar
    37    18    14   ar
    38    18    17   ar
    39     5     6    1
    40    14    15   ar
    41    28    17    1
    42    28    26   ar
    43    17    16   ar
    44    15    16   ar
    45    15    20    1
    46    16    23    1
    47    20    21    3
    48    27    26   ar
    49    27    30    1
    50    21    22    1
    51    23    24    3
    52    26    34    1
    53    24    25    1
    54    34    35    3
    55    35    36    1
