@<TRIPOS>MOLECULE
mol_data/opt/cam/geoms/mol2/13ee13ee-13ee.out
 38 40 0 0 0
SMALL
GASTEIGER

@<TRIPOS>ATOM
      1 C           1.2443   -0.3143    0.2871 C.ar    1  LIG1        0.0189
      2 C           0.8936    0.9823   -0.0140 C.ar    1  LIG1        0.0580
      3 C          -0.5335    1.0003   -0.1696 C.ar    1  LIG1        0.0667
      4 C          -0.9853   -0.2950    0.0529 C.ar    1  LIG1        0.0809
      5 N           0.1120   -1.0670    0.3259 N.ar    1  LIG1       -0.3574
      6 H           0.0614   -2.0620    0.4943 H       1  LIG1        0.1654
      7 H           2.2175   -0.7397    0.4737 H       1  LIG1        0.0820
      8 C           1.7757    2.0869   -0.1522 C.1     1  LIG1       -0.0669
      9 C           2.5224    3.0236   -0.2692 C.1     1  LIG1       -0.1138
     10 H           3.1803    3.8549   -0.3744 H       1  LIG1        0.1232
     11 C          -1.3279    2.1166   -0.5332 C.1     1  LIG1       -0.0663
     12 C          -2.0093    3.0558   -0.8604 C.1     1  LIG1       -0.1138
     13 H          -2.6061    3.8797   -1.1769 H       1  LIG1        0.1232
     14 C          -2.3164   -0.8543    0.0269 C.ar    1  LIG1        0.0814
     15 C          -2.7284   -2.1819    0.0205 C.ar    1  LIG1        0.0674
     16 C          -4.1592   -2.1795   -0.0180 C.ar    1  LIG1        0.0674
     17 C          -4.5667   -0.8505   -0.0241 C.ar    1  LIG1        0.0814
     18 N          -3.4402   -0.0774    0.0015 N.ar    1  LIG1       -0.3499
     19 H          -3.4385    0.9366    0.0016 H       1  LIG1        0.1661
     20 C          -1.8955   -3.3295    0.0495 C.1     1  LIG1       -0.0662
     21 C          -1.1814   -4.3011    0.0855 C.1     1  LIG1       -0.1138
     22 H          -0.5766   -5.1786    0.1006 H       1  LIG1        0.1232
     23 C          -4.9959   -3.3243   -0.0473 C.1     1  LIG1       -0.0662
     24 C          -5.7133   -4.2934   -0.0834 C.1     1  LIG1       -0.1138
     25 H          -6.3210   -5.1689   -0.0991 H       1  LIG1        0.1232
     26 C          -5.8958   -0.2867   -0.0499 C.ar    1  LIG1        0.0809
     27 C          -6.3433    1.0100    0.1729 C.ar    1  LIG1        0.0667
     28 C          -7.7705    0.9969    0.0172 C.ar    1  LIG1        0.0580
     29 C          -8.1255   -0.2985   -0.2841 C.ar    1  LIG1        0.0189
     30 N          -6.9958   -1.0550   -0.3231 N.ar    1  LIG1       -0.3574
     31 H          -6.9485   -2.0501   -0.4917 H       1  LIG1        0.1654
     32 H          -9.1001   -0.7205   -0.4709 H       1  LIG1        0.0820
     33 C          -5.5451    2.1236    0.5368 C.1     1  LIG1       -0.0663
     34 C          -4.8605    3.0605    0.8640 C.1     1  LIG1       -0.1138
     35 H          -4.2613    3.8820    1.1818 H       1  LIG1        0.1232
     36 C          -8.6488    2.1044    0.1556 C.1     1  LIG1       -0.0669
     37 C          -9.3924    3.0437    0.2728 C.1     1  LIG1       -0.1138
     38 H         -10.0473    3.8772    0.3782 H       1  LIG1        0.1232
@<TRIPOS>BOND
     1    13    12    1
     2    12    11    3
     3    11     3    1
     4    31    30    1
     5    32    29    1
     6    10     9    1
     7    30    29   ar
     8    30    26   ar
     9    29    28   ar
    10     9     8    3
    11     3     2   ar
    12     3     4   ar
    13     8     2    1
    14    25    24    1
    15    24    23    3
    16    26    17    1
    17    26    27   ar
    18    23    16    1
    19    17    16   ar
    20    17    18   ar
    21    16    15   ar
    22     2     1   ar
    23    18    19    1
    24    18    14   ar
    25    28    36    1
    26    28    27   ar
    27    15    14   ar
    28    15    20    1
    29    14     4    1
    30    20    21    3
    31     4     5   ar
    32    21    22    1
    33    36    37    3
    34    27    33    1
    35    37    38    1
    36     1     5   ar
    37     1     7    1
    38     5     6    1
    39    33    34    3
    40    34    35    1
