@<TRIPOS>MOLECULE
mol_data/opt/cam/geoms/mol2/13ee13ee-13ee13ee-.out
 50 53 0 0 0
SMALL
GASTEIGER

@<TRIPOS>ATOM
      1 C           1.3094   -0.2713   -0.0441 C.ar    1  LIG1        0.0189
      2 C           0.9080    0.9872   -0.4316 C.ar    1  LIG1        0.0580
      3 C          -0.5276    0.9857   -0.4206 C.ar    1  LIG1        0.0667
      4 C          -0.9322   -0.2822   -0.0194 C.ar    1  LIG1        0.0809
      5 N           0.2001   -1.0195    0.2003 N.ar    1  LIG1       -0.3574
      6 H           0.1826   -1.9901    0.4815 H       1  LIG1        0.1654
      7 H           2.3036   -0.6728    0.0705 H       1  LIG1        0.0820
      8 C           1.7521    2.0748   -0.7803 C.1     1  LIG1       -0.0669
      9 C           2.4665    2.9974   -1.0759 C.1     1  LIG1       -0.1138
     10 H           3.0960    3.8154   -1.3396 H       1  LIG1        0.1232
     11 C          -1.3747    2.0620   -0.7864 C.1     1  LIG1       -0.0663
     12 C          -2.1048    2.9663   -1.1078 C.1     1  LIG1       -0.1138
     13 H          -2.7451    3.7602   -1.4159 H       1  LIG1        0.1232
     14 C          -2.2498   -0.8423    0.1668 C.ar    1  LIG1        0.0814
     15 C          -2.6412   -2.1540    0.4142 C.ar    1  LIG1        0.0674
     16 C          -4.0689   -2.1584    0.5082 C.ar    1  LIG1        0.0674
     17 C          -4.4950   -0.8496    0.3167 C.ar    1  LIG1        0.0814
     18 N          -3.3817   -0.0812    0.1150 N.ar    1  LIG1       -0.3499
     19 H          -3.3894    0.9199   -0.0432 H       1  LIG1        0.1661
     20 C          -1.7913   -3.2805    0.5571 C.1     1  LIG1       -0.0662
     21 C          -1.0611   -4.2322    0.6845 C.1     1  LIG1       -0.1138
     22 H          -0.4453   -5.0954    0.7925 H       1  LIG1        0.1232
     23 C          -4.8900   -3.2805    0.7841 C.1     1  LIG1       -0.0662
     24 C          -5.5963   -4.2270    1.0251 C.1     1  LIG1       -0.1138
     25 H          -6.2226   -5.0557    1.2628 H       1  LIG1        0.1232
     26 C          -5.8260   -0.2911    0.3184 C.ar    1  LIG1        0.0814
     27 C          -6.2515    1.0181    0.5090 C.ar    1  LIG1        0.0674
     28 C          -7.6795    1.0135    0.4197 C.ar    1  LIG1        0.0674
     29 C          -8.0718   -0.2987    0.1759 C.ar    1  LIG1        0.0814
     30 N          -6.9400   -1.0599    0.1217 N.ar    1  LIG1       -0.3499
     31 H          -6.9328   -2.0612   -0.0348 H       1  LIG1        0.1661
     32 C          -5.4296    2.1406    0.7803 C.1     1  LIG1       -0.0662
     33 C          -4.7226    3.0876    1.0174 C.1     1  LIG1       -0.1138
     34 H          -4.0954    3.9166    1.2518 H       1  LIG1        0.1232
     35 C          -8.5290    2.1401    0.5635 C.1     1  LIG1       -0.0662
     36 C          -9.2589    3.0920    0.6915 C.1     1  LIG1       -0.1138
     37 H          -9.8748    3.9551    0.7999 H       1  LIG1        0.1232
     38 C          -9.3899   -0.8591   -0.0050 C.ar    1  LIG1        0.0809
     39 C          -9.7958   -2.1278   -0.4027 C.ar    1  LIG1        0.0667
     40 C         -11.2314   -2.1293   -0.4089 C.ar    1  LIG1        0.0580
     41 C         -11.6316   -0.8702   -0.0224 C.ar    1  LIG1        0.0189
     42 N         -10.5215   -0.1215    0.2170 N.ar    1  LIG1       -0.3574
     43 H         -10.5031    0.8497    0.4965 H       1  LIG1        0.1654
     44 H         -12.6254   -0.4684    0.0947 H       1  LIG1        0.0820
     45 C          -8.9498   -3.2046   -0.7693 C.1     1  LIG1       -0.0663
     46 C          -8.2207   -4.1095   -1.0914 C.1     1  LIG1       -0.1138
     47 H          -7.5814   -4.9041   -1.3997 H       1  LIG1        0.1232
     48 C         -12.0767   -3.2175   -0.7530 C.1     1  LIG1       -0.0669
     49 C         -12.7920   -4.1407   -1.0445 C.1     1  LIG1       -0.1138
     50 H         -13.4223   -4.9593   -1.3043 H       1  LIG1        0.1232
@<TRIPOS>BOND
     1    13    12    1
     2    47    46    1
     3    10     9    1
     4    50    49    1
     5    12    11    3
     6    46    45    3
     7     9     8    3
     8    49    48    3
     9    11     3    1
    10     8     2    1
    11    45    39    1
    12    48    40    1
    13     2     3   ar
    14     2     1   ar
    15     3     4   ar
    16    40    39   ar
    17    40    41   ar
    18    39    38   ar
    19     1     7    1
    20     1     5   ar
    21    19    18    1
    22    31    30    1
    23    41    44    1
    24    41    42   ar
    25     4    14    1
    26     4     5   ar
    27    38    29    1
    28    38    42   ar
    29    18    14   ar
    30    18    17   ar
    31    30    29   ar
    32    30    26   ar
    33    14    15   ar
    34    29    28   ar
    35     5     6    1
    36    42    43    1
    37    17    26    1
    38    17    16   ar
    39    26    27   ar
    40    15    16   ar
    41    15    20    1
    42    28    27   ar
    43    28    35    1
    44    16    23    1
    45    27    32    1
    46    20    21    3
    47    35    36    3
    48    21    22    1
    49    36    37    1
    50    32    33    3
    51    23    24    3
    52    33    34    1
    53    24    25    1
