@<TRIPOS>MOLECULE
mol_data/opt/cam/geoms/mol2/13ee4ad-4ea-12he-.out
 48 51 0 0 0
SMALL
GASTEIGER

@<TRIPOS>ATOM
      1 C           1.1969    0.1778    0.9255 C.ar    1  LIG1        0.0188
      2 C           0.9666    1.1772    0.0099 C.ar    1  LIG1        0.0579
      3 C          -0.3922    1.0306   -0.4361 C.ar    1  LIG1        0.0652
      4 C          -0.9304   -0.0609    0.2297 C.ar    1  LIG1        0.0633
      5 N           0.0579   -0.5606    1.0407 N.ar    1  LIG1       -0.3585
      6 H          -0.0794   -1.3043    1.7055 H       1  LIG1        0.1654
      7 H           2.0833   -0.0464    1.4973 H       1  LIG1        0.0820
      8 C           1.8984    2.1609   -0.4170 C.1     1  LIG1       -0.0669
      9 C           2.6877    2.9947   -0.7777 C.1     1  LIG1       -0.1138
     10 H           3.3835    3.7340   -1.1006 H       1  LIG1        0.1232
     11 C          -1.0279    1.8448   -1.4102 C.1     1  LIG1       -0.0663
     12 C          -1.5520    2.5473   -2.2362 C.1     1  LIG1       -0.1138
     13 H          -2.0042    3.1674   -2.9752 H       1  LIG1        0.1232
     14 C          -3.3954    0.0618   -0.1456 C.ar    1  LIG1       -0.0519
     15 C          -4.6429   -0.5354   -0.1857 C.ar    1  LIG1       -0.0521
     16 C          -2.2527   -0.6841    0.1669 C.ar    1  LIG1        0.0008
     17 C          -4.8214   -1.8934    0.0876 C.ar    1  LIG1        0.0007
     18 H          -5.5107    0.0645   -0.4327 H       1  LIG1        0.0624
     19 C          -2.4120   -2.0429    0.4313 C.ar    1  LIG1       -0.0346
     20 C          -3.6734   -2.6408    0.4017 C.ar    1  LIG1        0.0601
     21 H          -1.5525   -2.6694    0.6435 H       1  LIG1        0.0637
     22 H          -3.2976    1.1184   -0.3614 H       1  LIG1        0.0624
     23 N          -3.7535   -5.1660    0.9870 N.1     1  LIG1       -0.1908
     24 C          -3.7476   -4.0403    0.7207 C.1     1  LIG1        0.0998
     25 C          -7.2668   -1.9907    0.7236 C.ar    1  LIG1        0.0331
     26 C          -8.5249   -2.5846    0.5979 C.ar    1  LIG1       -0.0350
     27 C          -6.1683   -2.5105    0.0108 C.ar    1  LIG1       -0.0012
     28 C          -8.7295   -3.6867   -0.2351 C.ar    1  LIG1        0.0203
     29 H          -9.3384   -2.1991    1.2006 H       1  LIG1        0.0637
     30 C          -6.3814   -3.6277   -0.7997 C.ar    1  LIG1       -0.0522
     31 C          -7.6302   -4.2075   -0.9282 C.ar    1  LIG1       -0.0504
     32 H          -5.5481   -4.0418   -1.3564 H       1  LIG1        0.0624
     33 C          -7.1347   -0.8797    1.6212 C.1     1  LIG1       -0.0690
     34 C          -7.0673    0.0471    2.3864 C.1     1  LIG1       -0.1139
     35 H          -6.9952    0.8639    3.0672 H       1  LIG1        0.1232
     36 H          -7.7647   -5.0684   -1.5719 H       1  LIG1        0.0625
     37 C         -10.0457   -4.2822   -0.3718 C.ar    1  LIG1        0.1566
     38 C         -11.3132   -3.8576   -0.0772 C.ar    1  LIG1        0.0865
     39 C         -12.1983   -4.9306   -0.4552 C.ar    1  LIG1        0.0836
     40 C         -11.3983   -5.9136   -0.9555 C.ar    1  LIG1        0.1098
     41 O         -10.1123   -5.5431   -0.9234 O.2     1  LIG1       -0.4598
     42 H         -11.6165   -6.8907   -1.3560 H       1  LIG1        0.1043
     43 N         -11.7292   -2.6618    0.4909 N.pl3   1  LIG1       -0.3541
     44 H         -11.2238   -1.8462    0.1722 H       1  LIG1        0.1425
     45 H         -12.7298   -2.5274    0.4225 H       1  LIG1        0.1425
     46 C         -13.6122   -4.9126   -0.3319 C.1     1  LIG1       -0.0646
     47 C         -14.8090   -4.8456   -0.2142 C.1     1  LIG1       -0.1138
     48 H         -15.8692   -4.8092   -0.1112 H       1  LIG1        0.1232
@<TRIPOS>BOND
     1    13    12    1
     2    12    11    3
     3    36    31    1
     4    11     3    1
     5    32    30    1
     6    42    40    1
     7    10     9    1
     8    40    41   ar
     9    40    39   ar
    10    31    30   ar
    11    31    28   ar
    12    41    37   ar
    13    30    27   ar
    14     9     8    3
    15    39    46    1
    16    39    38   ar
    17     3     2   ar
    18     3     4   ar
    19    18    15    1
    20     8     2    1
    21    37    28    1
    22    37    38   ar
    23    22    14    1
    24    46    47    3
    25    28    26   ar
    26    47    48    1
    27    15    14   ar
    28    15    17   ar
    29    14    16   ar
    30    38    43    1
    31     2     1   ar
    32    27    17    1
    33    27    25   ar
    34    17    20   ar
    35    16     4    1
    36    16    19   ar
    37    44    43    1
    38     4     5   ar
    39    20    19   ar
    40    20    24    1
    41    45    43    1
    42    19    21    1
    43    26    25   ar
    44    26    29    1
    45    24    23    3
    46    25    33    1
    47     1     5   ar
    48     1     7    1
    49     5     6    1
    50    33    34    3
    51    34    35    1
