@<TRIPOS>MOLECULE
mol_data/opt/cam/geoms/mol2/13ef13ef-.out
 24 25 0 0 0
SMALL
GASTEIGER

@<TRIPOS>ATOM
      1 C           1.1706   -0.3247    0.0274 C.ar    1  LIG1        0.0213
      2 C           0.7437    0.9933    0.0296 C.ar    1  LIG1        0.0840
      3 C          -0.6783    0.9503    0.0156 C.ar    1  LIG1        0.1589
      4 C          -1.0778   -0.3659    0.0052 C.ar    1  LIG1        0.1074
      5 N           0.0774   -1.1238    0.0128 N.ar    1  LIG1       -0.3554
      6 H           0.0742   -2.1331    0.0075 H       1  LIG1        0.1655
      7 H           2.1721   -0.7240    0.0353 H       1  LIG1        0.0820
      8 C           1.5043    2.1904    0.0430 C.1     1  LIG1       -0.0645
      9 C           2.0806    3.2495    0.0539 C.1     1  LIG1       -0.1137
     10 H           2.6161    4.1707    0.0640 H       1  LIG1        0.1232
     11 O          -1.5347    2.0085    0.0125 O.3     1  LIG1       -0.5035
     12 H          -1.0119    2.8218    0.0215 H       1  LIG1        0.2923
     13 C          -2.4035   -0.9257   -0.0105 C.ar    1  LIG1        0.0857
     14 C          -2.8375   -2.2510   -0.0215 C.ar    1  LIG1        0.0928
     15 C          -4.2667   -2.2127   -0.0352 C.ar    1  LIG1        0.1501
     16 C          -4.6572   -0.9025   -0.0324 C.ar    1  LIG1        0.0454
     17 N          -3.5069   -0.1365   -0.0173 N.ar    1  LIG1       -0.3554
     18 H          -3.4564    0.8712   -0.0118 H       1  LIG1        0.1655
     19 H          -5.6409   -0.4646   -0.0398 H       1  LIG1        0.0845
     20 C          -2.0492   -3.4266   -0.0198 C.1     1  LIG1       -0.0638
     21 C          -1.4066   -4.4505   -0.0186 C.1     1  LIG1       -0.1137
     22 H          -0.8472   -5.3575   -0.0175 H       1  LIG1        0.1232
     23 O          -5.0952   -3.2863   -0.0486 O.3     1  LIG1       -0.5040
     24 H          -4.5502   -4.0837   -0.0478 H       1  LIG1        0.2923
@<TRIPOS>BOND
     1    23    24    1
     2    23    15    1
     3    19    16    1
     4    15    16   ar
     5    15    14   ar
     6    16    17   ar
     7    14    20    1
     8    14    13   ar
     9    20    21    3
    10    21    22    1
    11    17    18    1
    12    17    13   ar
    13    13     4    1
    14     4     5   ar
    15     4     3   ar
    16     6     5    1
    17    11     3    1
    18    11    12    1
    19     5     1   ar
    20     3     2   ar
    21     1     2   ar
    22     1     7    1
    23     2     8    1
    24     8     9    3
    25     9    10    1
