@<TRIPOS>MOLECULE
mol_data/opt/cam/geoms/mol2/13ef13ef-13ef-13ef.out
 46 49 0 0 0
SMALL
GASTEIGER

@<TRIPOS>ATOM
      1 C           1.2442   -0.2037   -0.0798 C.ar    1  LIG1        0.0213
      2 C           0.7492    1.0495   -0.4026 C.ar    1  LIG1        0.0840
      3 C          -0.6678    0.9358   -0.3739 C.ar    1  LIG1        0.1589
      4 C          -0.9978   -0.3597   -0.0445 C.ar    1  LIG1        0.1074
      5 N           0.1955   -1.0334    0.1323 N.ar    1  LIG1       -0.3554
      6 H           0.2469   -2.0084    0.3878 H       1  LIG1        0.1655
      7 H           2.2656   -0.5380    0.0075 H       1  LIG1        0.0820
      8 C           1.4467    2.2447   -0.7147 C.1     1  LIG1       -0.0645
      9 C           1.9675    3.2959   -0.9928 C.1     1  LIG1       -0.1137
     10 H           2.4534    4.2135   -1.2326 H       1  LIG1        0.1232
     11 O          -1.5795    1.9162   -0.6221 O.3     1  LIG1       -0.5035
     12 H          -1.1071    2.7017   -0.9306 H       1  LIG1        0.2923
     13 C          -2.2932   -0.9635    0.0990 C.ar    1  LIG1        0.0862
     14 C          -2.6736   -2.2621    0.4369 C.ar    1  LIG1        0.0935
     15 C          -4.0996   -2.2957    0.4053 C.ar    1  LIG1        0.1596
     16 C          -4.5556   -1.0458    0.0484 C.ar    1  LIG1        0.1079
     17 N          -3.4260   -0.2518   -0.1207 N.ar    1  LIG1       -0.3478
     18 H          -3.4143    0.6867   -0.4951 H       1  LIG1        0.1661
     19 C          -1.8382   -3.3541    0.7747 C.1     1  LIG1       -0.0638
     20 C          -1.1535   -4.3061    1.0665 C.1     1  LIG1       -0.1137
     21 H          -0.5569   -5.1498    1.3275 H       1  LIG1        0.1232
     22 O          -4.8796   -3.3537    0.7129 O.3     1  LIG1       -0.5034
     23 H          -4.3065   -4.0950    0.9482 H       1  LIG1        0.2923
     24 C          -5.8732   -0.4721   -0.0602 C.ar    1  LIG1        0.0862
     25 C          -7.1162   -1.0059   -0.4074 C.ar    1  LIG1        0.0935
     26 C          -8.0418    0.0741   -0.3712 C.ar    1  LIG1        0.1596
     27 C          -7.3729    1.2235   -0.0258 C.ar    1  LIG1        0.1079
     28 N          -6.0521    0.8612    0.1557 N.ar    1  LIG1       -0.3478
     29 H          -5.3646    1.4984    0.5334 H       1  LIG1        0.1661
     30 C          -7.4872   -2.3132   -0.8064 C.1     1  LIG1       -0.0638
     31 C          -7.9159   -3.3803   -1.1709 C.1     1  LIG1       -0.1137
     32 H          -8.2513   -4.3421   -1.4824 H       1  LIG1        0.1232
     33 O          -9.3716    0.0141   -0.6507 O.3     1  LIG1       -0.5034
     34 H          -9.5820   -0.8983   -0.8959 H       1  LIG1        0.2923
     35 C          -7.8431    2.5718    0.1314 C.ar    1  LIG1        0.0857
     36 C          -7.1470    3.7426    0.4361 C.ar    1  LIG1        0.0928
     37 C          -8.1158    4.7901    0.4623 C.ar    1  LIG1        0.1501
     38 C          -9.3418    4.2479    0.1809 C.ar    1  LIG1        0.0454
     39 N          -9.1536    2.8924   -0.0166 N.ar    1  LIG1       -0.3554
     40 H          -9.8603    2.2123   -0.2519 H       1  LIG1        0.1655
     41 H         -10.3163    4.7035    0.1063 H       1  LIG1        0.0845
     42 C          -5.7500    3.8420    0.6565 C.1     1  LIG1       -0.0638
     43 C          -4.5557    3.8691    0.8362 C.1     1  LIG1       -0.1137
     44 H          -3.5005    3.9034    0.9811 H       1  LIG1        0.1232
     45 O          -7.7837    6.0798    0.7301 O.3     1  LIG1       -0.5040
     46 H          -8.5793    6.6224    0.7002 H       1  LIG1        0.2923
@<TRIPOS>BOND
     1    32    31    1
     2    10     9    1
     3    31    30    3
     4     9     8    3
     5    12    11    1
     6    34    33    1
     7    30    25    1
     8     8     2    1
     9    33    26    1
    10    11     3    1
    11    18    17    1
    12    25    26   ar
    13    25    24   ar
    14     2     3   ar
    15     2     1   ar
    16     3     4   ar
    17    26    27   ar
    18    40    39    1
    19    17    16   ar
    20    17    13   ar
    21     1     7    1
    22     1     5   ar
    23    24    16    1
    24    24    28   ar
    25     4    13    1
    26     4     5   ar
    27    27    35    1
    28    27    28   ar
    29    39    35   ar
    30    39    38   ar
    31    16    15   ar
    32    13    14   ar
    33    41    38    1
    34    35    36   ar
    35     5     6    1
    36    28    29    1
    37    38    37   ar
    38    15    14   ar
    39    15    22    1
    40    36    37   ar
    41    36    42    1
    42    14    19    1
    43    37    45    1
    44    42    43    3
    45    46    45    1
    46    22    23    1
    47    19    20    3
    48    43    44    1
    49    20    21    1
