@<TRIPOS>MOLECULE
mol_data/opt/cam/geoms/mol2/13ef13ef-4ef13ef.out
 48 51 0 0 0
SMALL
GASTEIGER

@<TRIPOS>ATOM
      1 C           1.4064   -0.4995    0.0632 C.ar    1  LIG1        0.0213
      2 C           1.0418    0.8307    0.1905 C.ar    1  LIG1        0.0840
      3 C          -0.3803    0.8584    0.1676 C.ar    1  LIG1        0.1589
      4 C          -0.8421   -0.4316    0.0295 C.ar    1  LIG1        0.1074
      5 N           0.2788   -1.2405   -0.0327 N.ar    1  LIG1       -0.3554
      6 H           0.2321   -2.2439   -0.1300 H       1  LIG1        0.1655
      7 H           2.3882   -0.9445    0.0363 H       1  LIG1        0.0820
      8 C           1.8570    1.9836    0.3253 C.1     1  LIG1       -0.0645
      9 C           2.4814    3.0081    0.4453 C.1     1  LIG1       -0.1137
     10 H           3.0585    3.8978    0.5491 H       1  LIG1        0.1232
     11 O          -1.1766    1.9531    0.2663 O.3     1  LIG1       -0.5035
     12 H          -0.6116    2.7248    0.4089 H       1  LIG1        0.2923
     13 C          -2.1854   -0.9405   -0.0334 C.ar    1  LIG1        0.0862
     14 C          -2.6450   -2.2571   -0.1239 C.ar    1  LIG1        0.0934
     15 C          -4.0624   -2.1883   -0.1453 C.ar    1  LIG1        0.1581
     16 C          -4.4508   -0.8612   -0.0742 C.ar    1  LIG1        0.0915
     17 N          -3.2684   -0.1331   -0.0053 N.ar    1  LIG1       -0.3490
     18 H          -3.2238    0.8775    0.0381 H       1  LIG1        0.1661
     19 C          -1.8963   -3.4564   -0.1859 C.1     1  LIG1       -0.0638
     20 C          -1.2990   -4.5057   -0.2434 C.1     1  LIG1       -0.1137
     21 H          -0.7739   -5.4319   -0.2918 H       1  LIG1        0.1232
     22 O          -4.8881   -3.2634   -0.2257 O.3     1  LIG1       -0.5035
     23 H          -4.3369   -4.0553   -0.2892 H       1  LIG1        0.2923
     24 C          -6.0630    1.1043   -0.1854 C.ar    1  LIG1        0.0347
     25 C          -7.3831    1.5581   -0.1395 C.ar    1  LIG1       -0.0330
     26 C          -5.7840   -0.2760   -0.0513 C.ar    1  LIG1        0.0208
     27 C          -8.4828    0.7183    0.0288 C.ar    1  LIG1        0.0422
     28 H          -7.5523    2.6206   -0.2461 H       1  LIG1        0.0638
     29 C          -6.8847   -1.1233    0.1167 C.ar    1  LIG1       -0.0091
     30 C          -8.1840   -0.6526    0.1502 C.ar    1  LIG1        0.1267
     31 H          -6.7138   -2.1883    0.2236 H       1  LIG1        0.0661
     32 C          -5.0520    2.0976   -0.3947 C.1     1  LIG1       -0.0690
     33 C          -4.2361    2.9664   -0.5758 C.1     1  LIG1       -0.1139
     34 H          -3.5048    3.7209   -0.7495 H       1  LIG1        0.1232
     35 O          -9.2152   -1.5419    0.3147 O.3     1  LIG1       -0.5061
     36 H          -8.8557   -2.4348    0.3719 H       1  LIG1        0.2922
     37 C          -9.8437    1.2584    0.0673 C.ar    1  LIG1        0.0692
     38 C         -10.3149    2.5775   -0.0014 C.ar    1  LIG1        0.0913
     39 C         -11.7344    2.5103    0.0817 C.ar    1  LIG1        0.1500
     40 C         -12.0966    1.1939    0.1965 C.ar    1  LIG1        0.0454
     41 N         -10.9394    0.4561    0.1855 N.ar    1  LIG1       -0.3565
     42 H         -10.8660   -0.5457    0.2606 H       1  LIG1        0.1655
     43 H         -13.0666    0.7302    0.2843 H       1  LIG1        0.0845
     44 C          -9.5972    3.7951   -0.1239 C.1     1  LIG1       -0.0639
     45 C          -9.0295    4.8536   -0.2270 C.1     1  LIG1       -0.1137
     46 H          -8.5300    5.7898   -0.3167 H       1  LIG1        0.1232
     47 O         -12.5181    3.6194    0.0459 O.3     1  LIG1       -0.5040
     48 H         -13.4412    3.3533    0.1174 H       1  LIG1        0.2923
@<TRIPOS>BOND
     1    34    33    1
     2    33    32    3
     3    32    24    1
     4    46    45    1
     5    21    20    1
     6    23    22    1
     7    28    25    1
     8    20    19    3
     9    45    44    3
    10    22    15    1
    11    19    14    1
    12    24    25   ar
    13    24    26   ar
    14    15    14   ar
    15    15    16   ar
    16    25    27   ar
    17     6     5    1
    18    14    13   ar
    19    44    38    1
    20    16    26    1
    21    16    17   ar
    22    26    29   ar
    23    13    17   ar
    24    13     4    1
    25     5     4   ar
    26     5     1   ar
    27    17    18    1
    28    38    37   ar
    29    38    39   ar
    30    27    37    1
    31    27    30   ar
    32     4     3   ar
    33     7     1    1
    34    47    39    1
    35    47    48    1
    36     1     2   ar
    37    37    41   ar
    38    39    40   ar
    39    29    30   ar
    40    29    31    1
    41    30    35    1
    42     3     2   ar
    43     3    11    1
    44    41    40   ar
    45    41    42    1
    46     2     8    1
    47    40    43    1
    48    11    12    1
    49    35    36    1
    50     8     9    3
    51     9    10    1
