@<TRIPOS>MOLECULE
mol_data/opt/cam/geoms/mol2/13ef13ef-13ef.out
 35 37 0 0 0
SMALL
GASTEIGER

@<TRIPOS>ATOM
      1 C           1.2506   -0.3724    0.0120 C.ar    1  LIG1        0.0213
      2 C           0.8472    0.9529    0.0169 C.ar    1  LIG1        0.0840
      3 C          -0.5754    0.9365    0.0129 C.ar    1  LIG1        0.1589
      4 C          -0.9986   -0.3736    0.0059 C.ar    1  LIG1        0.1074
      5 N           0.1447   -1.1523    0.0055 N.ar    1  LIG1       -0.3554
      6 H           0.1269   -2.1612    0.0009 H       1  LIG1        0.1655
      7 H           2.2451   -0.7889    0.0128 H       1  LIG1        0.0820
      8 C           1.6302    2.1355    0.0243 C.1     1  LIG1       -0.0645
      9 C           2.2276    3.1828    0.0306 C.1     1  LIG1       -0.1137
     10 H           2.7804    4.0938    0.0361 H       1  LIG1        0.1232
     11 O          -1.4090    2.0075    0.0155 O.3     1  LIG1       -0.5035
     12 H          -0.8721    2.8114    0.0205 H       1  LIG1        0.2923
     13 C          -2.3298   -0.9155   -0.0001 C.ar    1  LIG1        0.0862
     14 C          -2.7655   -2.2448   -0.0073 C.ar    1  LIG1        0.0935
     15 C          -4.1855   -2.1986   -0.0109 C.ar    1  LIG1        0.1596
     16 C          -4.5850   -0.8827   -0.0060 C.ar    1  LIG1        0.1079
     17 N          -3.4296   -0.1219    0.0005 N.ar    1  LIG1       -0.3478
     18 H          -3.4098    0.8913    0.0051 H       1  LIG1        0.1661
     19 C          -1.9884   -3.4276   -0.0105 C.1     1  LIG1       -0.0638
     20 C          -1.3602   -4.4602   -0.0135 C.1     1  LIG1       -0.1137
     21 H          -0.8102   -5.3731   -0.0160 H       1  LIG1        0.1232
     22 O          -5.0430   -3.2577   -0.0180 O.3     1  LIG1       -0.5034
     23 H          -4.5249   -4.0729   -0.0204 H       1  LIG1        0.2923
     24 C          -5.9151   -0.3336   -0.0071 C.ar    1  LIG1        0.0857
     25 C          -6.3636    0.9866   -0.0023 C.ar    1  LIG1        0.0928
     26 C          -7.7892    0.9272   -0.0064 C.ar    1  LIG1        0.1501
     27 C          -8.1644   -0.3901   -0.0134 C.ar    1  LIG1        0.0454
     28 N          -7.0069   -1.1436   -0.0138 N.ar    1  LIG1       -0.3554
     29 H          -6.9424   -2.1499   -0.0181 H       1  LIG1        0.1655
     30 H          -9.1408   -0.8479   -0.0181 H       1  LIG1        0.0845
     31 C          -5.5556    2.1505    0.0051 C.1     1  LIG1       -0.0638
     32 C          -4.8469    3.1269    0.0114 C.1     1  LIG1       -0.1137
     33 H          -4.2420    4.0032    0.0168 H       1  LIG1        0.1232
     34 O          -8.5622    2.0442   -0.0034 O.3     1  LIG1       -0.5040
     35 H          -9.4900    1.7846   -0.0080 H       1  LIG1        0.2923
@<TRIPOS>BOND
     1    23    22    1
     2    30    27    1
     3    29    28    1
     4    22    15    1
     5    21    20    1
     6    28    27   ar
     7    28    24   ar
     8    20    19    3
     9    27    26   ar
    10    15    14   ar
    11    15    16   ar
    12    19    14    1
    13    35    34    1
    14    14    13   ar
    15    24    16    1
    16    24    25   ar
    17    26    34    1
    18    26    25   ar
    19    16    17   ar
    20    25    31    1
    21    13    17   ar
    22    13     4    1
    23    17    18    1
    24     6     5    1
    25    31    32    3
    26     5     4   ar
    27     5     1   ar
    28     4     3   ar
    29    32    33    1
    30     1     7    1
    31     1     2   ar
    32     3    11    1
    33     3     2   ar
    34    11    12    1
    35     2     8    1
    36     8     9    3
    37     9    10    1
