@<TRIPOS>MOLECULE
mol_data/opt/cam/geoms/mol2/13ef13ef13ef.out
 35 37 0 0 0
SMALL
GASTEIGER

@<TRIPOS>ATOM
      1 C           1.0386   -0.1178   -1.0176 C.ar    1  LIG1        0.0213
      2 C           0.8510    0.9820   -0.2087 C.ar    1  LIG1        0.0840
      3 C          -0.5060    0.9346    0.2420 C.ar    1  LIG1        0.1589
      4 C          -1.0947   -0.1936   -0.2974 C.ar    1  LIG1        0.1074
      5 N          -0.1155   -0.8376   -1.0503 N.ar    1  LIG1       -0.3554
      6 H          -0.3255   -1.5170   -1.7638 H       1  LIG1        0.1655
      7 H           1.9123   -0.4175   -1.5747 H       1  LIG1        0.0820
      8 C           1.8182    1.9675    0.1239 C.1     1  LIG1       -0.0645
      9 C           2.6420    2.8003    0.4010 C.1     1  LIG1       -0.1137
     10 H           3.3635    3.5430    0.6507 H       1  LIG1        0.1232
     11 O          -1.0159    1.8350    1.1013 O.3     1  LIG1       -0.5035
     12 H          -1.9823    1.8783    1.0060 H       1  LIG1        0.2923
     13 C          -2.3997   -0.7764   -0.0980 C.ar    1  LIG1        0.0862
     14 C          -3.6408   -0.1785    0.1045 C.ar    1  LIG1        0.0935
     15 C          -4.6025   -1.2249    0.2287 C.ar    1  LIG1        0.1596
     16 C          -3.9412   -2.4310    0.0994 C.ar    1  LIG1        0.1079
     17 N          -2.5970   -2.1249   -0.0986 N.ar    1  LIG1       -0.3478
     18 H          -1.8697   -2.8064   -0.2367 H       1  LIG1        0.1661
     19 C          -3.8938    1.2144    0.1491 C.1     1  LIG1       -0.0638
     20 C          -4.0705    2.4073    0.2004 C.1     1  LIG1       -0.1137
     21 H          -4.2555    3.4569    0.2098 H       1  LIG1        0.1232
     22 O          -5.9032   -0.9846    0.4718 O.3     1  LIG1       -0.5034
     23 H          -6.4461   -1.7274    0.1580 H       1  LIG1        0.2923
     24 C          -4.3991   -3.7932    0.2276 C.ar    1  LIG1        0.0857
     25 C          -5.6199   -4.3715   -0.1019 C.ar    1  LIG1        0.0928
     26 C          -5.5439   -5.7476    0.2792 C.ar    1  LIG1        0.1501
     27 C          -4.3048   -5.9759    0.8078 C.ar    1  LIG1        0.0454
     28 N          -3.6072   -4.7775    0.7504 N.ar    1  LIG1       -0.3554
     29 H          -2.7818   -4.5878    1.2949 H       1  LIG1        0.1655
     30 H          -3.8536   -6.8762    1.1937 H       1  LIG1        0.0845
     31 C          -6.7090   -3.7180   -0.7282 C.1     1  LIG1       -0.0638
     32 C          -7.6266   -3.1256   -1.2423 C.1     1  LIG1       -0.1137
     33 H          -8.4335   -2.6310   -1.7326 H       1  LIG1        0.1232
     34 O          -6.5722   -6.6068    0.0782 O.3     1  LIG1       -0.5040
     35 H          -6.3300   -7.4790    0.4089 H       1  LIG1        0.2923
@<TRIPOS>BOND
     1     6     5    1
     2    33    32    1
     3     7     1    1
     4    32    31    3
     5     5     1   ar
     6     5     4   ar
     7     1     2   ar
     8    31    25    1
     9     4    13    1
    10     4     3   ar
    11    18    17    1
    12     2     8    1
    13     2     3   ar
    14    25    24   ar
    15    25    26   ar
    16    17    13   ar
    17    17    16   ar
    18    13    14   ar
    19    34    26    1
    20    34    35    1
    21    16    24    1
    22    16    15   ar
    23    14    19    1
    24    14    15   ar
    25     8     9    3
    26    19    20    3
    27    23    22    1
    28    20    21    1
    29    24    28   ar
    30    15    22    1
    31     3    11    1
    32    26    27   ar
    33     9    10    1
    34    28    27   ar
    35    28    29    1
    36    27    30    1
    37    12    11    1
