@<TRIPOS>MOLECULE
mol_data/opt/cam/geoms/mol2/13ef13ef-13ef-13ef-.out
 46 49 0 0 0
SMALL
GASTEIGER

@<TRIPOS>ATOM
      1 C           1.2491   -0.2208   -0.4386 C.ar    1  LIG1        0.0213
      2 C           0.7239    0.9943   -0.8478 C.ar    1  LIG1        0.0840
      3 C          -0.6848    0.8926   -0.6837 C.ar    1  LIG1        0.1589
      4 C          -0.9805   -0.3573   -0.1890 C.ar    1  LIG1        0.1074
      5 N           0.2258   -1.0167   -0.0483 N.ar    1  LIG1       -0.3554
      6 H           0.3020   -1.9621    0.2967 H       1  LIG1        0.1655
      7 H           2.2751   -0.5506   -0.4066 H       1  LIG1        0.0820
      8 C           1.3873    2.1466   -1.3419 C.1     1  LIG1       -0.0645
      9 C           1.8783    3.1610   -1.7703 C.1     1  LIG1       -0.1137
     10 H           2.3389    4.0456   -2.1459 H       1  LIG1        0.1232
     11 O          -1.6186    1.8431   -0.9588 O.3     1  LIG1       -0.5035
     12 H          -1.1692    2.6127   -1.3344 H       1  LIG1        0.2923
     13 C          -2.2563   -0.9354    0.1308 C.ar    1  LIG1        0.0862
     14 C          -2.5971   -2.2024    0.6021 C.ar    1  LIG1        0.0935
     15 C          -4.0203   -2.2365    0.7004 C.ar    1  LIG1        0.1596
     16 C          -4.5133   -1.0185    0.2924 C.ar    1  LIG1        0.1079
     17 N          -3.4083   -0.2367   -0.0337 N.ar    1  LIG1       -0.3478
     18 H          -3.4357    0.6581   -0.5018 H       1  LIG1        0.1661
     19 C          -1.7291   -3.2666    0.9466 C.1     1  LIG1       -0.0638
     20 C          -1.0173   -4.1951    1.2488 C.1     1  LIG1       -0.1137
     21 H          -0.3967   -5.0186    1.5182 H       1  LIG1        0.1232
     22 O          -4.7651   -3.2652    1.1578 O.3     1  LIG1       -0.5034
     23 H          -4.1734   -3.9994    1.3676 H       1  LIG1        0.2923
     24 C          -5.8584   -0.4948    0.2414 C.ar    1  LIG1        0.0862
     25 C          -7.0561   -1.0767   -0.1622 C.ar    1  LIG1        0.0935
     26 C          -8.0689   -0.0803   -0.0372 C.ar    1  LIG1        0.1596
     27 C          -7.4898    1.0797    0.4210 C.ar    1  LIG1        0.1079
     28 N          -6.1384    0.7946    0.5888 N.ar    1  LIG1       -0.3478
     29 H          -5.4562    1.4609    0.9116 H       1  LIG1        0.1661
     30 C          -7.3109   -2.3793   -0.6575 C.1     1  LIG1       -0.0638
     31 C          -7.6283   -3.4559   -1.0988 C.1     1  LIG1       -0.1137
     32 H          -7.8728   -4.4197   -1.4809 H       1  LIG1        0.1232
     33 O          -9.3801   -0.2489   -0.3085 O.3     1  LIG1       -0.5034
     34 H          -9.4989   -1.1548   -0.6271 H       1  LIG1        0.2923
     35 C          -8.0455    2.3735    0.7515 C.ar    1  LIG1        0.0857
     36 C          -8.9681    3.1701    0.0869 C.ar    1  LIG1        0.0928
     37 C          -9.1417    4.3521    0.8737 C.ar    1  LIG1        0.1501
     38 C          -8.3337    4.2603    1.9710 C.ar    1  LIG1        0.0454
     39 N          -7.6575    3.0562    1.8721 N.ar    1  LIG1       -0.3554
     40 H          -7.1543    2.6277    2.6313 H       1  LIG1        0.1655
     41 H          -8.1769    4.9436    2.7887 H       1  LIG1        0.0845
     42 C          -9.6108    2.9634   -1.1588 C.1     1  LIG1       -0.0638
     43 C         -10.1967    2.8837   -2.2100 C.1     1  LIG1       -0.1137
     44 H         -10.7033    2.7726   -3.1404 H       1  LIG1        0.1232
     45 O          -9.9505    5.3931    0.5621 O.3     1  LIG1       -0.5040
     46 H         -10.3899    5.1779   -0.2724 H       1  LIG1        0.2923
@<TRIPOS>BOND
     1    44    43    1
     2    43    42    3
     3    10     9    1
     4     9     8    3
     5    32    31    1
     6     8     2    1
     7    12    11    1
     8    42    36    1
     9    31    30    3
    10    11     3    1
    11     2     3   ar
    12     2     1   ar
    13     3     4   ar
    14    30    25    1
    15    34    33    1
    16    18    17    1
    17     1     7    1
    18     1     5   ar
    19    33    26    1
    20    46    45    1
    21     4     5   ar
    22     4    13    1
    23    25    26   ar
    24    25    24   ar
    25     5     6    1
    26    26    27   ar
    27    17    13   ar
    28    17    16   ar
    29    36    35   ar
    30    36    37   ar
    31    13    14   ar
    32    24    16    1
    33    24    28   ar
    34    16    15   ar
    35    27    28   ar
    36    27    35    1
    37    45    37    1
    38    28    29    1
    39    14    15   ar
    40    14    19    1
    41    15    22    1
    42    35    39   ar
    43    37    38   ar
    44    19    20    3
    45    22    23    1
    46    20    21    1
    47    39    38   ar
    48    39    40    1
    49    38    41    1
