@<TRIPOS>MOLECULE
mol_data/opt/cam/geoms/mol2/13ef4hf4af-4ll.out
 54 57 0 0 0
SMALL
GASTEIGER

@<TRIPOS>ATOM
      1 C           1.3837   -0.1971    0.3774 C.ar    1  LIG1        0.0213
      2 C           1.0263    1.1445    0.4098 C.ar    1  LIG1        0.0839
      3 C          -0.3975    1.1895    0.2498 C.ar    1  LIG1        0.1575
      4 C          -0.8698   -0.1201    0.1315 C.ar    1  LIG1        0.0933
      5 N           0.2556   -0.9430    0.2354 N.ar    1  LIG1       -0.3565
      6 H           0.2514   -1.9232    0.0030 H       1  LIG1        0.1655
      7 H           2.3626   -0.6481    0.4316 H       1  LIG1        0.0820
      8 C           1.8945    2.2518    0.5788 C.1     1  LIG1       -0.0645
      9 C           2.6404    3.1943    0.7202 C.1     1  LIG1       -0.1137
     10 H           3.2899    4.0287    0.8462 H       1  LIG1        0.1232
     11 O          -1.0905    2.3470    0.2907 O.3     1  LIG1       -0.5035
     12 H          -1.9455    2.1966   -0.1488 H       1  LIG1        0.2923
     13 C          -3.3100   -0.0650   -0.5569 C.ar    1  LIG1        0.1268
     14 C          -4.5626   -0.6546   -0.6274 C.ar    1  LIG1       -0.0091
     15 C          -2.2036   -0.7006    0.0580 C.ar    1  LIG1        0.0446
     16 C          -4.8248   -1.9356   -0.1048 C.ar    1  LIG1        0.0227
     17 H          -5.3716   -0.1285   -1.1231 H       1  LIG1        0.0661
     18 C          -2.4650   -1.9715    0.5850 C.ar    1  LIG1       -0.0310
     19 C          -3.7222   -2.5917    0.5096 C.ar    1  LIG1        0.0618
     20 H          -1.6735   -2.4980    1.1069 H       1  LIG1        0.0638
     21 O          -3.0950    1.1706   -1.1212 O.3     1  LIG1       -0.5061
     22 H          -3.9090    1.4838   -1.5386 H       1  LIG1        0.2922
     23 N          -3.9332   -4.9545    1.5615 N.1     1  LIG1       -0.1908
     24 C          -3.8377   -3.8888    1.0985 C.1     1  LIG1        0.0998
     25 C          -6.1670   -2.4906   -0.2253 C.ar    1  LIG1        0.0908
     26 C          -7.3805   -1.8596   -0.5318 C.ar    1  LIG1        0.1487
     27 C          -8.4269   -2.8162   -0.5419 C.ar    1  LIG1        0.0171
     28 C          -7.8331   -4.0399   -0.2354 C.ar    1  LIG1        0.0537
     29 N          -6.4860   -3.8266   -0.0671 N.ar    1  LIG1       -0.3510
     30 H          -5.8447   -4.5406    0.2485 H       1  LIG1        0.1660
     31 O          -7.5365   -0.5281   -0.8387 O.3     1  LIG1       -0.4927
     32 C          -8.0853    0.2600    0.2240 C.3     1  LIG1        0.0789
     33 H          -8.1811    1.2776   -0.1604 H       1  LIG1        0.0660
     34 H          -9.0740   -0.1059    0.5228 H       1  LIG1        0.0660
     35 H          -7.4239    0.2569    1.0987 H       1  LIG1        0.0660
     36 C          -9.8485   -2.5451   -0.9323 C.3     1  LIG1       -0.0342
     37 H         -10.3183   -3.4345   -1.3617 H       1  LIG1        0.0279
     38 H          -9.8870   -1.7470   -1.6798 H       1  LIG1        0.0279
     39 H         -10.4668   -2.2251   -0.0840 H       1  LIG1        0.0279
     40 C          -9.4618   -5.7767    0.6429 C.ar    1  LIG1       -0.0413
     41 C          -9.9109   -7.1051    0.6130 C.ar    1  LIG1       -0.0570
     42 C          -8.3778   -5.4105   -0.1914 C.ar    1  LIG1        0.0028
     43 C          -9.3191   -8.0673   -0.1946 C.ar    1  LIG1       -0.0441
     44 H         -10.7373   -7.3920    1.2571 H       1  LIG1        0.0621
     45 C          -7.7729   -6.3860   -0.9987 C.ar    1  LIG1       -0.0350
     46 C          -8.2317   -7.7087   -1.0065 C.ar    1  LIG1        0.0524
     47 H          -6.9474   -6.1067   -1.6447 H       1  LIG1        0.0637
     48 H          -9.6818   -9.0894   -0.1962 H       1  LIG1        0.0630
     49 C         -10.1224   -4.7995    1.5838 C.3     1  LIG1       -0.0391
     50 H         -10.5310   -5.3204    2.4539 H       1  LIG1        0.0278
     51 H         -10.9542   -4.2751    1.0995 H       1  LIG1        0.0278
     52 H          -9.4185   -4.0394    1.9309 H       1  LIG1        0.0278
     53 N          -7.0945   -9.4754   -2.5335 N.1     1  LIG1       -0.1909
     54 C          -7.6022   -8.6836   -1.8488 C.1     1  LIG1        0.0992
@<TRIPOS>BOND
     1    53    54    3
     2    54    46    1
     3    38    36    1
     4    47    45    1
     5    22    21    1
     6    37    36    1
     7    17    14    1
     8    21    13    1
     9    46    45   ar
    10    46    43   ar
    11    45    42   ar
    12    36    27    1
    13    36    39    1
    14    31    26    1
    15    31    32    1
    16    14    13   ar
    17    14    16   ar
    18    13    15   ar
    19    27    26   ar
    20    27    28   ar
    21    26    25   ar
    22    28    42    1
    23    28    29   ar
    24    25    16    1
    25    25    29   ar
    26    48    43    1
    27    43    41   ar
    28    42    40   ar
    29    33    32    1
    30    12    11    1
    31    16    19   ar
    32    29    30    1
    33     6     5    1
    34    15     4    1
    35    15    18   ar
    36     4     5   ar
    37     4     3   ar
    38    32    34    1
    39    32    35    1
    40     5     1   ar
    41     3    11    1
    42     3     2   ar
    43     1     2   ar
    44     1     7    1
    45     2     8    1
    46    19    18   ar
    47    19    24    1
    48     8     9    3
    49    18    20    1
    50    41    40   ar
    51    41    44    1
    52    40    49    1
    53     9    10    1
    54    24    23    3
    55    51    49    1
    56    49    52    1
    57    49    50    1
