@<TRIPOS>MOLECULE
mol_data/opt/cam/geoms/mol2/13ef13le12ae4la-.out
 55 58 0 0 0
SMALL
GASTEIGER

@<TRIPOS>ATOM
      1 C         -10.3435    0.4694   12.2074 C.ar    1  LIG1        0.0213
      2 C         -10.9865    1.6338   11.8073 C.ar    1  LIG1        0.0839
      3 C         -11.1727    1.5313   10.3868 C.ar    1  LIG1        0.1574
      4 C         -10.6343    0.3121    9.9629 C.ar    1  LIG1        0.0916
      5 N         -10.1594   -0.3210   11.1149 N.ar    1  LIG1       -0.3565
      6 H          -9.5695   -1.1372   11.0940 H       1  LIG1        0.1655
      7 H         -10.0042    0.1756   13.1889 H       1  LIG1        0.0820
      8 C         -11.3922    2.7070   12.6393 C.1     1  LIG1       -0.0645
      9 C         -11.7322    3.6234   13.3536 C.1     1  LIG1       -0.1137
     10 H         -12.0394    4.4326   13.9736 H       1  LIG1        0.1232
     11 O         -11.8214    2.4631    9.6638 O.3     1  LIG1       -0.5035
     12 H         -11.5488    2.3478    8.7200 H       1  LIG1        0.2923
     13 C         -10.5396    0.3310    7.4488 C.ar    1  LIG1        0.0347
     14 C         -10.5936   -0.3655    6.2450 C.ar    1  LIG1       -0.0292
     15 C         -10.6474   -0.3677    8.6725 C.ar    1  LIG1        0.0260
     16 C         -10.7327   -1.7604    6.1648 C.ar    1  LIG1        0.0254
     17 H         -10.4838    0.1895    5.3173 H       1  LIG1        0.0643
     18 C         -10.7567   -1.7683    8.6013 C.ar    1  LIG1       -0.0086
     19 C         -10.7976   -2.4567    7.3905 C.ar    1  LIG1        0.1253
     20 H         -10.8840   -2.3306    9.5243 H       1  LIG1        0.0661
     21 N         -10.3886    1.7538    7.4682 N.pl3   1  LIG1       -0.3574
     22 H          -9.5611    2.0307    7.9950 H       1  LIG1        0.1423
     23 H         -10.3170    2.1364    6.5310 H       1  LIG1        0.1423
     24 O         -10.9408   -3.8212    7.3641 O.3     1  LIG1       -0.5061
     25 H         -11.0884   -4.1339    8.2661 H       1  LIG1        0.2922
     26 C         -11.4972   -1.7955    3.7800 C.ar    1  LIG1       -0.0531
     27 C         -11.5390   -2.3813    2.5200 C.ar    1  LIG1       -0.0498
     28 C         -10.8128   -2.4184    4.8376 C.ar    1  LIG1       -0.0109
     29 C         -10.9186   -3.6077    2.2424 C.ar    1  LIG1        0.0272
     30 H         -12.0764   -1.8842    1.7205 H       1  LIG1        0.0625
     31 C         -10.1881   -3.6454    4.5753 C.ar    1  LIG1       -0.0117
     32 C         -10.2388   -4.2312    3.3093 C.ar    1  LIG1        0.1252
     33 H          -9.6505   -4.1543    5.3693 H       1  LIG1        0.0660
     34 H         -12.0262   -0.8642    3.9540 H       1  LIG1        0.0624
     35 O          -9.6097   -5.4239    3.0676 O.3     1  LIG1       -0.5061
     36 H          -9.1926   -5.7204    3.8871 H       1  LIG1        0.2922
     37 C         -10.7124   -3.5025   -0.2846 C.ar    1  LIG1        0.1281
     38 C         -10.8361   -4.1137   -1.5308 C.ar    1  LIG1       -0.0159
     39 C         -11.0112   -4.2330    0.8943 C.ar    1  LIG1        0.0307
     40 C         -11.2530   -5.4460   -1.6433 C.ar    1  LIG1       -0.0165
     41 H         -10.6077   -3.5658   -2.4367 H       1  LIG1        0.0655
     42 C         -11.4199   -5.5593    0.7603 C.ar    1  LIG1       -0.0086
     43 C         -11.5452   -6.1737   -0.4919 C.ar    1  LIG1        0.1209
     44 H         -11.6468   -6.1453    1.6426 H       1  LIG1        0.0661
     45 H         -11.3389   -5.8876   -2.6289 H       1  LIG1        0.0655
     46 O         -10.2972   -2.2055   -0.1136 O.3     1  LIG1       -0.4945
     47 C          -9.9324   -1.4616   -1.2611 C.3     1  LIG1        0.0788
     48 H          -9.6173   -0.4821   -0.8975 H       1  LIG1        0.0660
     49 H          -9.0992   -1.9296   -1.8020 H       1  LIG1        0.0660
     50 H         -10.7764   -1.3333   -1.9521 H       1  LIG1        0.0660
     51 O         -11.9624   -7.4801   -0.4716 O.3     1  LIG1       -0.4951
     52 C         -12.1092   -8.1445   -1.7129 C.3     1  LIG1        0.0788
     53 H         -12.4435   -9.1565   -1.4786 H       1  LIG1        0.0660
     54 H         -12.8593   -7.6573   -2.3506 H       1  LIG1        0.0660
     55 H         -11.1592   -8.1983   -2.2617 H       1  LIG1        0.0660
@<TRIPOS>BOND
     1    45    40    1
     2    41    38    1
     3    54    52    1
     4    55    52    1
     5    50    47    1
     6    49    47    1
     7    52    53    1
     8    52    51    1
     9    40    38   ar
    10    40    43   ar
    11    38    37   ar
    12    47    48    1
    13    47    46    1
    14    43    51    1
    15    43    42   ar
    16    37    46    1
    17    37    39   ar
    18    42    39   ar
    19    42    44    1
    20    39    29    1
    21    30    27    1
    22    29    27   ar
    23    29    32   ar
    24    27    26   ar
    25    35    32    1
    26    35    36    1
    27    32    31   ar
    28    26    34    1
    29    26    28   ar
    30    31    28   ar
    31    31    33    1
    32    28    16    1
    33    17    14    1
    34    16    14   ar
    35    16    19   ar
    36    14    13   ar
    37    23    21    1
    38    24    19    1
    39    24    25    1
    40    19    18   ar
    41    13    21    1
    42    13    15   ar
    43    21    22    1
    44    18    15   ar
    45    18    20    1
    46    15     4    1
    47    12    11    1
    48    11     3    1
    49     4     3   ar
    50     4     5   ar
    51     3     2   ar
    52     6     5    1
    53     5     1   ar
    54     2     1   ar
    55     2     8    1
    56     1     7    1
    57     8     9    3
    58     9    10    1
