@<TRIPOS>MOLECULE
mol_data/opt/cam/geoms/mol2/13ef4fd13li-4id-.out
 53 56 0 0 0
SMALL
GASTEIGER

@<TRIPOS>ATOM
      1 C           0.3341    0.2622    2.2946 C.ar    1  LIG1        0.0189
      2 C           0.6324    1.1014    1.2359 C.ar    1  LIG1        0.0580
      3 C          -0.4395    0.9673    0.2743 C.ar    1  LIG1        0.0667
      4 C          -1.3492    0.0508    0.8009 C.ar    1  LIG1        0.0810
      5 N          -0.8426   -0.3780    2.0163 N.ar    1  LIG1       -0.3574
      6 H          -1.3703   -0.9187    2.6841 H       1  LIG1        0.1654
      7 H           0.8749    0.0872    3.2116 H       1  LIG1        0.0820
      8 C           1.7827    1.9206    1.1128 C.1     1  LIG1       -0.0669
      9 C           2.7644    2.6195    1.0073 C.1     1  LIG1       -0.1138
     10 H           3.6240    3.2407    0.9092 H       1  LIG1        0.1232
     11 C          -0.5156    1.6047   -0.9866 C.1     1  LIG1       -0.0663
     12 C          -0.5699    2.1467   -2.0665 C.1     1  LIG1       -0.1138
     13 H          -0.6425    2.6420   -3.0067 H       1  LIG1        0.1232
     14 C          -2.5803   -0.4979    0.2689 C.ar    1  LIG1        0.0834
     15 C          -3.6897    0.0955   -0.3319 C.ar    1  LIG1        0.0944
     16 C          -4.6445   -0.9442   -0.6281 C.ar    1  LIG1        0.0680
     17 C          -4.0915   -2.1461   -0.1870 C.ar    1  LIG1        0.0673
     18 N          -2.8563   -1.8440    0.3458 N.ar    1  LIG1       -0.3509
     19 H          -2.2067   -2.5395    0.6804 H       1  LIG1        0.1660
     20 N          -4.0934    2.6132   -0.7374 N.1     1  LIG1       -0.1908
     21 C          -3.8924    1.4808   -0.5573 C.1     1  LIG1        0.1026
     22 C          -5.8790   -0.7534   -1.2949 C.1     1  LIG1       -0.0662
     23 C          -6.9165   -0.5540   -1.8846 C.1     1  LIG1       -0.1138
     24 H          -7.8244   -0.3673   -2.4092 H       1  LIG1        0.1232
     25 C          -5.8417   -3.9320    0.1345 C.ar    1  LIG1        0.1298
     26 C          -6.2371   -5.2676    0.0270 C.ar    1  LIG1       -0.0115
     27 C          -4.5429   -3.5401   -0.2721 C.ar    1  LIG1        0.0412
     28 C          -5.3587   -6.2551   -0.4538 C.ar    1  LIG1       -0.0111
     29 H          -7.2399   -5.5594    0.3128 H       1  LIG1        0.0660
     30 C          -3.6767   -4.5358   -0.7440 C.ar    1  LIG1       -0.0485
     31 C          -4.0636   -5.8703   -0.8349 C.ar    1  LIG1       -0.0531
     32 H          -2.6822   -4.2489   -1.0755 H       1  LIG1        0.0625
     33 O          -6.6297   -2.9480    0.6366 O.3     1  LIG1       -0.4944
     34 C          -7.9817   -3.2406    0.9579 C.3     1  LIG1        0.0788
     35 H          -8.4188   -2.2963    1.2827 H       1  LIG1        0.0660
     36 H          -8.5302   -3.6129    0.0844 H       1  LIG1        0.0660
     37 H          -8.0545   -3.9739    1.7709 H       1  LIG1        0.0660
     38 H          -3.3631   -6.6133   -1.1991 H       1  LIG1        0.0624
     39 C          -5.5777   -8.5118   -1.6373 C.ar    1  LIG1        0.1239
     40 C          -5.8039   -7.6719   -0.5091 C.ar    1  LIG1        0.0220
     41 C          -6.4918   -8.2408    0.5636 C.ar    1  LIG1       -0.0464
     42 C          -6.9207   -9.5733    0.5437 C.ar    1  LIG1       -0.0316
     43 C          -6.6239  -10.2897   -0.6157 C.ar    1  LIG1        0.0326
     44 N          -5.9860   -9.7862   -1.6765 N.ar    1  LIG1       -0.2398
     45 H          -6.6733   -7.6319    1.4463 H       1  LIG1        0.0628
     46 H          -6.9235  -11.3343   -0.6993 H       1  LIG1        0.0833
     47 N          -4.8994   -8.0704   -2.7608 N.pl3   1  LIG1       -0.3427
     48 H          -5.0285   -8.6775   -3.5588 H       1  LIG1        0.1437
     49 H          -4.9449   -7.0823   -2.9653 H       1  LIG1        0.1437
     50 C          -7.6492  -10.2002    1.7058 C.3     1  LIG1       -0.0383
     51 H          -7.9080  -11.2410    1.4910 H       1  LIG1        0.0278
     52 H          -8.5803   -9.6690    1.9355 H       1  LIG1        0.0278
     53 H          -7.0404  -10.1927    2.6175 H       1  LIG1        0.0278
@<TRIPOS>BOND
     1    48    47    1
     2    13    12    1
     3    49    47    1
     4    47    39    1
     5    24    23    1
     6    12    11    3
     7    23    22    3
     8    44    39   ar
     9    44    43   ar
    10    39    40   ar
    11    22    16    1
    12    38    31    1
    13    32    30    1
    14    11     3    1
    15    31    30   ar
    16    31    28   ar
    17    30    27   ar
    18    20    21    3
    19    46    43    1
    20    16    15   ar
    21    16    17   ar
    22    43    42   ar
    23    21    15    1
    24    40    28    1
    25    40    41   ar
    26    28    26   ar
    27    15    14   ar
    28    27    17    1
    29    27    25   ar
    30    17    18   ar
    31    26    25   ar
    32    26    29    1
    33    36    34    1
    34    25    33    1
    35    14    18   ar
    36    14     4    1
    37     3     4   ar
    38     3     2   ar
    39    18    19    1
    40    42    41   ar
    41    42    50    1
    42    41    45    1
    43    33    34    1
    44     4     5   ar
    45    10     9    1
    46    34    35    1
    47    34    37    1
    48     9     8    3
    49     8     2    1
    50     2     1   ar
    51    51    50    1
    52    50    52    1
    53    50    53    1
    54     5     1   ar
    55     5     6    1
    56     1     7    1
