@<TRIPOS>MOLECULE
mol_data/opt/cam/geoms/mol2/13ef13ef13ef-13ef.out
 46 49 0 0 0
SMALL
GASTEIGER

@<TRIPOS>ATOM
      1 C           1.2312   -0.1731   -0.5625 C.ar    1  LIG1        0.0213
      2 C           0.9192    1.0189    0.0581 C.ar    1  LIG1        0.0840
      3 C          -0.4921    1.0087    0.2788 C.ar    1  LIG1        0.1589
      4 C          -0.9919   -0.1870   -0.2062 C.ar    1  LIG1        0.1074
      5 N           0.0940   -0.9015   -0.7014 N.ar    1  LIG1       -0.3554
      6 H           0.0056   -1.7073   -1.2989 H       1  LIG1        0.1655
      7 H           2.1846   -0.5304   -0.9188 H       1  LIG1        0.0820
      8 C           1.8241    2.0529    0.4172 C.1     1  LIG1       -0.0645
      9 C           2.5957    2.9266    0.7177 C.1     1  LIG1       -0.1137
     10 H           3.2714    3.7046    0.9871 H       1  LIG1        0.1232
     11 O          -1.1285    2.0080    0.9189 O.3     1  LIG1       -0.5035
     12 H          -2.0757    1.9936    0.7136 H       1  LIG1        0.2923
     13 C          -2.3136   -0.7598   -0.1735 C.ar    1  LIG1        0.0862
     14 C          -3.5717   -0.1536   -0.1992 C.ar    1  LIG1        0.0935
     15 C          -4.5341   -1.2000   -0.1367 C.ar    1  LIG1        0.1596
     16 C          -3.8713   -2.4029   -0.0883 C.ar    1  LIG1        0.1079
     17 N          -2.5162   -2.1045   -0.1188 N.ar    1  LIG1       -0.3478
     18 H          -1.7998   -2.7941    0.0567 H       1  LIG1        0.1661
     19 C          -3.8745    1.2238   -0.3108 C.1     1  LIG1       -0.0638
     20 C          -4.1626    2.3949   -0.3861 C.1     1  LIG1       -0.1137
     21 H          -4.4062    3.4278   -0.4898 H       1  LIG1        0.1232
     22 O          -5.8845   -1.0771   -0.1458 O.3     1  LIG1       -0.5034
     23 H          -6.1132   -0.1393   -0.1809 H       1  LIG1        0.2923
     24 C          -4.3799   -3.7430   -0.0191 C.ar    1  LIG1        0.0862
     25 C          -3.6974   -4.9626    0.0576 C.ar    1  LIG1        0.0935
     26 C          -4.6937   -5.9742    0.1096 C.ar    1  LIG1        0.1596
     27 C          -5.9320   -5.3775    0.0651 C.ar    1  LIG1        0.1079
     28 N          -5.7091   -4.0145   -0.0136 N.ar    1  LIG1       -0.3478
     29 H          -6.4422   -3.3166   -0.0586 H       1  LIG1        0.1661
     30 C          -2.3012   -5.1907    0.0944 C.1     1  LIG1       -0.0638
     31 C          -1.1163   -5.4276    0.1315 C.1     1  LIG1       -0.1137
     32 H          -0.0740   -5.6454    0.1769 H       1  LIG1        0.1232
     33 O          -4.4976   -7.3200    0.1904 O.3     1  LIG1       -0.5034
     34 H          -3.5478   -7.4923    0.2246 H       1  LIG1        0.2923
     35 C          -7.2375   -5.9821    0.0903 C.ar    1  LIG1        0.0857
     36 C          -8.5114   -5.4174    0.0441 C.ar    1  LIG1        0.0928
     37 C          -9.4352   -6.5032    0.1027 C.ar    1  LIG1        0.1501
     38 C          -8.7220   -7.6700    0.1808 C.ar    1  LIG1        0.0454
     39 N          -7.3833   -7.3312    0.1719 N.ar    1  LIG1       -0.3554
     40 H          -6.6006   -7.9652    0.2184 H       1  LIG1        0.1655
     41 H          -9.0483   -8.6961    0.2412 H       1  LIG1        0.0845
     42 C          -8.8182   -4.0369   -0.0442 C.1     1  LIG1       -0.0638
     43 C          -9.0552   -2.8562   -0.1197 C.1     1  LIG1       -0.1137
     44 H          -9.2920   -1.8203   -0.1862 H       1  LIG1        0.1232
     45 O         -10.7799   -6.3139    0.0789 O.3     1  LIG1       -0.5040
     46 H         -11.2193   -7.1697    0.1302 H       1  LIG1        0.2923
@<TRIPOS>BOND
     1     6     5    1
     2     7     1    1
     3     5     1   ar
     4     5     4   ar
     5     1     2   ar
     6    21    20    1
     7    20    19    3
     8    19    14    1
     9     4    13    1
    10     4     3   ar
    11    14    13   ar
    12    14    15   ar
    13    44    43    1
    14    23    22    1
    15    13    17   ar
    16    22    15    1
    17    15    16   ar
    18    43    42    3
    19    17    16   ar
    20    17    18    1
    21    16    24    1
    22    29    28    1
    23    42    36    1
    24    24    28   ar
    25    24    25   ar
    26    28    27   ar
    27    36    35   ar
    28    36    37   ar
    29    25    30    1
    30    25    26   ar
    31     2     3   ar
    32     2     8    1
    33    27    35    1
    34    27    26   ar
    35    45    37    1
    36    45    46    1
    37    35    39   ar
    38    30    31    3
    39    37    38   ar
    40    26    33    1
    41    31    32    1
    42    39    38   ar
    43    39    40    1
    44    38    41    1
    45    33    34    1
    46     3    11    1
    47     8     9    3
    48    12    11    1
    49     9    10    1
