@<TRIPOS>MOLECULE
mol_data/opt/cam/geoms/mol2/13ef13ef.out
 24 25 0 0 0
SMALL
GASTEIGER

@<TRIPOS>ATOM
      1 C           1.1409   -0.2866   -0.4826 C.ar    1  LIG1        0.0213
      2 C           0.8077    0.9579    0.0086 C.ar    1  LIG1        0.0840
      3 C          -0.6037    0.9445    0.2398 C.ar    1  LIG1        0.1589
      4 C          -1.0804   -0.3050   -0.1095 C.ar    1  LIG1        0.1074
      5 N           0.0169   -1.0494   -0.5316 N.ar    1  LIG1       -0.3554
      6 H          -0.0638   -1.9019   -1.0614 H       1  LIG1        0.1655
      7 H           2.0991   -0.6616   -0.8063 H       1  LIG1        0.0820
      8 C           1.6940    2.0412    0.2493 C.1     1  LIG1       -0.0645
      9 C           2.4504    2.9561    0.4495 C.1     1  LIG1       -0.1137
     10 H           3.1114    3.7716    0.6295 H       1  LIG1        0.1232
     11 O          -1.2612    1.9905    0.7738 O.3     1  LIG1       -0.5035
     12 H          -2.1994    1.9592    0.5224 H       1  LIG1        0.2923
     13 C          -2.3922   -0.8977    0.0016 C.ar    1  LIG1        0.0857
     14 C          -3.6579   -0.3316   -0.1062 C.ar    1  LIG1        0.0928
     15 C          -4.6017   -1.3787    0.1329 C.ar    1  LIG1        0.1501
     16 C          -3.9088   -2.5340    0.3624 C.ar    1  LIG1        0.0454
     17 N          -2.5596   -2.2284    0.2588 N.ar    1  LIG1       -0.3554
     18 H          -1.8194   -2.8190    0.6002 H       1  LIG1        0.1655
     19 H          -4.2496   -3.5369    0.5652 H       1  LIG1        0.0845
     20 C          -3.9433    1.0179   -0.4264 C.1     1  LIG1       -0.0638
     21 C          -4.1522    2.1793   -0.6811 C.1     1  LIG1       -0.1137
     22 H          -4.3571    3.1914   -0.9445 H       1  LIG1        0.1232
     23 O          -5.9397   -1.1655    0.0879 O.3     1  LIG1       -0.5040
     24 H          -6.4009   -1.9903    0.2765 H       1  LIG1        0.2923
@<TRIPOS>BOND
     1     6     5    1
     2    22    21    1
     3     7     1    1
     4    21    20    3
     5     5     1   ar
     6     5     4   ar
     7     1     2   ar
     8    20    14    1
     9     4    13    1
    10     4     3   ar
    11    14    13   ar
    12    14    15   ar
    13    13    17   ar
    14     2     3   ar
    15     2     8    1
    16    23    15    1
    17    23    24    1
    18    15    16   ar
    19     3    11    1
    20     8     9    3
    21    17    16   ar
    22    17    18    1
    23    16    19    1
    24     9    10    1
    25    12    11    1
