@<TRIPOS>MOLECULE
mol_data/opt/cam/geoms/mol2/13ef13ef-13ef13ef-.out
 46 49 0 0 0
SMALL
GASTEIGER

@<TRIPOS>ATOM
      1 C           1.3127   -0.3132   -0.0015 C.ar    1  LIG1        0.0213
      2 C           0.8934    1.0072   -0.0008 C.ar    1  LIG1        0.0840
      3 C          -0.5284    0.9731    0.0000 C.ar    1  LIG1        0.1589
      4 C          -0.9358   -0.3421   -0.0001 C.ar    1  LIG1        0.1074
      5 N           0.2167   -1.1068   -0.0011 N.ar    1  LIG1       -0.3554
      6 H           0.2111   -2.1159   -0.0014 H       1  LIG1        0.1655
      7 H           2.3123   -0.7176   -0.0022 H       1  LIG1        0.0820
      8 C           1.6611    2.1999   -0.0009 C.1     1  LIG1       -0.0645
      9 C           2.2444    3.2551   -0.0009 C.1     1  LIG1       -0.1137
     10 H           2.7863    4.1727   -0.0011 H       1  LIG1        0.1232
     11 O          -1.3750    2.0350    0.0009 O.3     1  LIG1       -0.5035
     12 H          -0.8460    2.8443    0.0009 H       1  LIG1        0.2923
     13 C          -2.2609   -0.8972    0.0005 C.ar    1  LIG1        0.0862
     14 C          -2.6857   -2.2298    0.0003 C.ar    1  LIG1        0.0935
     15 C          -4.1058   -2.1966    0.0012 C.ar    1  LIG1        0.1596
     16 C          -4.5169   -0.8828    0.0019 C.ar    1  LIG1        0.1079
     17 N          -3.3663   -0.1118    0.0015 N.ar    1  LIG1       -0.3478
     18 H          -3.3437    0.9002    0.0018 H       1  LIG1        0.1661
     19 C          -1.8967   -3.4050   -0.0006 C.1     1  LIG1       -0.0638
     20 C          -1.2568   -4.4301   -0.0013 C.1     1  LIG1       -0.1137
     21 H          -0.6974   -5.3373   -0.0014 H       1  LIG1        0.1232
     22 O          -4.9535   -3.2580    0.0014 O.3     1  LIG1       -0.5034
     23 H          -4.4324   -4.0712    0.0007 H       1  LIG1        0.2923
     24 C          -5.8460   -0.3405    0.0029 C.ar    1  LIG1        0.0862
     25 C          -6.2863    0.9870    0.0036 C.ar    1  LIG1        0.0935
     26 C          -7.7055    0.9368    0.0045 C.ar    1  LIG1        0.1596
     27 C          -8.1029   -0.3799    0.0043 C.ar    1  LIG1        0.1079
     28 N          -6.9456   -1.1383    0.0034 N.ar    1  LIG1       -0.3478
     29 H          -6.9151   -2.1499    0.0030 H       1  LIG1        0.1661
     30 C          -5.5157    2.1739    0.0035 C.1     1  LIG1       -0.0638
     31 C          -4.8960    3.2106    0.0034 C.1     1  LIG1       -0.1137
     32 H          -4.3406    4.1196    0.0038 H       1  LIG1        0.1232
     33 O          -8.5646    1.9937    0.0053 O.3     1  LIG1       -0.5034
     34 H          -8.0462    2.8091    0.0052 H       1  LIG1        0.2923
     35 C          -9.4304   -0.9316    0.0050 C.ar    1  LIG1        0.0857
     36 C          -9.8778   -2.2528    0.0049 C.ar    1  LIG1        0.0928
     37 C         -11.3064   -2.2010    0.0057 C.ar    1  LIG1        0.1501
     38 C         -11.6860   -0.8879    0.0063 C.ar    1  LIG1        0.0454
     39 N         -10.5287   -0.1322    0.0058 N.ar    1  LIG1       -0.3554
     40 H         -10.4694    0.8747    0.0061 H       1  LIG1        0.1655
     41 H         -12.6657   -0.4409    0.0070 H       1  LIG1        0.0845
     42 C          -9.1083   -3.4402    0.0041 C.1     1  LIG1       -0.0638
     43 C          -8.4896   -4.4780    0.0035 C.1     1  LIG1       -0.1137
     44 H          -7.9372   -5.3886    0.0031 H       1  LIG1        0.1232
     45 O         -12.1412   -3.2705    0.0060 O.3     1  LIG1       -0.5040
     46 H         -11.5968   -4.0685    0.0054 H       1  LIG1        0.2923
@<TRIPOS>BOND
     1     7     1    1
     2     1     5   ar
     3     1     2   ar
     4     6     5    1
     5    21    20    1
     6    20    19    3
     7    10     9    1
     8     5     4   ar
     9     9     8    3
    10     8     2    1
    11     2     3   ar
    12    19    14    1
    13     4     3   ar
    14     4    13    1
    15     3    11    1
    16    14    13   ar
    17    14    15   ar
    18    13    17   ar
    19    23    22    1
    20    11    12    1
    21    15    22    1
    22    15    16   ar
    23    17    18    1
    24    17    16   ar
    25    16    24    1
    26    24    28   ar
    27    24    25   ar
    28    29    28    1
    29    44    43    1
    30    28    27   ar
    31    31    30    3
    32    31    32    1
    33    43    42    3
    34    30    25    1
    35    25    26   ar
    36    42    36    1
    37    27    26   ar
    38    27    35    1
    39    26    33    1
    40    36    35   ar
    41    36    37   ar
    42    35    39   ar
    43    34    33    1
    44    46    45    1
    45    37    45    1
    46    37    38   ar
    47    39    40    1
    48    39    38   ar
    49    38    41    1
