@<TRIPOS>MOLECULE
mol_data/opt/cam/geoms/mol2/13ef13ef13ef13ef.out
 46 49 0 0 0
SMALL
GASTEIGER

@<TRIPOS>ATOM
      1 C           0.7851    0.0642   -1.6447 C.ar    1  LIG1        0.0213
      2 C           0.8065    1.0117   -0.6446 C.ar    1  LIG1        0.0840
      3 C          -0.4373    0.9007    0.0538 C.ar    1  LIG1        0.1589
      4 C          -1.1676   -0.1140   -0.5355 C.ar    1  LIG1        0.1074
      5 N          -0.3825   -0.6301   -1.5643 N.ar    1  LIG1       -0.3554
      6 H          -0.7581   -1.1695   -2.3279 H       1  LIG1        0.1655
      7 H           1.5190   -0.1435   -2.4075 H       1  LIG1        0.0820
      8 C           1.8612    1.9175   -0.3537 C.1     1  LIG1       -0.0645
      9 C           2.7578    2.6837   -0.1128 C.1     1  LIG1       -0.1137
     10 H           3.5449    3.3669    0.1067 H       1  LIG1        0.1232
     11 O          -0.7307    1.6455    1.1345 O.3     1  LIG1       -0.5035
     12 H          -1.6944    1.7165    1.2401 H       1  LIG1        0.2923
     13 C          -2.4307   -0.7111   -0.1749 C.ar    1  LIG1        0.0862
     14 C          -3.5830   -0.1441    0.3628 C.ar    1  LIG1        0.0935
     15 C          -4.5455   -1.1872    0.5039 C.ar    1  LIG1        0.1596
     16 C          -3.9722   -2.3621    0.0556 C.ar    1  LIG1        0.1079
     17 N          -2.6782   -2.0404   -0.3487 N.ar    1  LIG1       -0.3478
     18 H          -2.0282   -2.6857   -0.7654 H       1  LIG1        0.1661
     19 C          -3.7632    1.2241    0.6824 C.1     1  LIG1       -0.0638
     20 C          -3.8761    2.3931    0.9609 C.1     1  LIG1       -0.1137
     21 H          -4.0117    3.4279    1.1770 H       1  LIG1        0.1232
     22 O          -5.7624   -0.9797    1.0361 O.3     1  LIG1       -0.5034
     23 H          -6.3874   -1.6527    0.7170 H       1  LIG1        0.2923
     24 C          -4.4562   -3.7206    0.0632 C.ar    1  LIG1        0.0862
     25 C          -5.7385   -4.2245   -0.1394 C.ar    1  LIG1        0.0935
     26 C          -5.6615   -5.6446   -0.0304 C.ar    1  LIG1        0.1596
     27 C          -4.3479   -5.9823    0.2324 C.ar    1  LIG1        0.1079
     28 N          -3.6346   -4.7871    0.2818 N.ar    1  LIG1       -0.3478
     29 H          -2.6485   -4.7233    0.4709 H       1  LIG1        0.1661
     30 C          -6.8940   -3.4574   -0.4268 C.1     1  LIG1       -0.0638
     31 C          -7.8616   -2.7712   -0.6498 C.1     1  LIG1       -0.1137
     32 H          -8.7222   -2.1888   -0.8872 H       1  LIG1        0.1232
     33 O          -6.7424   -6.4370   -0.1402 O.3     1  LIG1       -0.5034
     34 H          -6.4770   -7.3304   -0.4167 H       1  LIG1        0.2923
     35 C          -3.7242   -7.2518    0.5180 C.ar    1  LIG1        0.0857
     36 C          -4.0061   -8.5249    0.0360 C.ar    1  LIG1        0.0928
     37 C          -3.1049   -9.4244    0.6867 C.ar    1  LIG1        0.1501
     38 C          -2.3043   -8.6963    1.5209 C.ar    1  LIG1        0.0454
     39 N          -2.6791   -7.3663    1.3922 N.ar    1  LIG1       -0.3554
     40 H          -2.4447   -6.6560    2.0664 H       1  LIG1        0.1655
     41 H          -1.4972   -8.9970    2.1699 H       1  LIG1        0.0845
     42 C          -4.9805   -8.8491   -0.9392 C.1     1  LIG1       -0.0638
     43 C          -5.8354   -9.0942   -1.7555 C.1     1  LIG1       -0.1137
     44 H          -6.5573   -9.3270   -2.5042 H       1  LIG1        0.1232
     45 O          -3.1042  -10.7540    0.4264 O.3     1  LIG1       -0.5040
     46 H          -2.4348  -11.1864    0.9684 H       1  LIG1        0.2923
@<TRIPOS>BOND
     1    44    43    1
     2     7     1    1
     3     6     5    1
     4    43    42    3
     5     1     5   ar
     6     1     2   ar
     7     5     4   ar
     8    42    36    1
     9    32    31    1
    10    18    17    1
    11    31    30    3
    12     2     8    1
    13     2     3   ar
    14     4    13    1
    15     4     3   ar
    16    30    25    1
    17    34    33    1
    18     8     9    3
    19    17    13   ar
    20    17    16   ar
    21    13    14   ar
    22    33    26    1
    23    25    26   ar
    24    25    24   ar
    25     9    10    1
    26    26    27   ar
    27    36    35   ar
    28    36    37   ar
    29     3    11    1
    30    16    24    1
    31    16    15   ar
    32    24    28   ar
    33    27    28   ar
    34    27    35    1
    35    28    29    1
    36    14    15   ar
    37    14    19    1
    38    45    37    1
    39    45    46    1
    40    15    22    1
    41    35    39   ar
    42    19    20    3
    43    37    38   ar
    44    23    22    1
    45    20    21    1
    46    11    12    1
    47    39    38   ar
    48    39    40    1
    49    38    41    1
