@<TRIPOS>MOLECULE
mol_data/opt/cam/geoms/mol2/13ef13ef13ef-13ef-.out
 46 49 0 0 0
SMALL
GASTEIGER

@<TRIPOS>ATOM
      1 C           1.2588   -0.1526   -0.3899 C.ar    1  LIG1        0.0213
      2 C           0.8638    1.1111   -0.0021 C.ar    1  LIG1        0.0840
      3 C          -0.5615    1.0853    0.0867 C.ar    1  LIG1        0.1589
      4 C          -0.9874   -0.1897   -0.2420 C.ar    1  LIG1        0.1074
      5 N           0.1559   -0.9345   -0.5129 N.ar    1  LIG1       -0.3554
      6 H           0.1434   -1.8279   -0.9776 H       1  LIG1        0.1655
      7 H           2.2492   -0.5274   -0.5947 H       1  LIG1        0.0820
      8 C           1.7077    2.2214    0.2662 C.1     1  LIG1       -0.0645
      9 C           2.4278    3.1595    0.4907 C.1     1  LIG1       -0.1137
     10 H           3.0579    3.9945    0.6915 H       1  LIG1        0.1232
     11 O          -1.2772    2.1500    0.4958 O.3     1  LIG1       -0.5035
     12 H          -2.1997    2.0691    0.2102 H       1  LIG1        0.2923
     13 C          -2.2938   -0.7971   -0.2357 C.ar    1  LIG1        0.0862
     14 C          -3.5567   -0.2472   -0.4709 C.ar    1  LIG1        0.0935
     15 C          -4.4973   -1.3043   -0.3253 C.ar    1  LIG1        0.1596
     16 C          -3.8173   -2.4594   -0.0251 C.ar    1  LIG1        0.1079
     17 N          -2.4730   -2.1225    0.0187 N.ar    1  LIG1       -0.3478
     18 H          -1.7624   -2.7534    0.3605 H       1  LIG1        0.1661
     19 C          -3.8776    1.0824   -0.8321 C.1     1  LIG1       -0.0638
     20 C          -4.1837    2.2143   -1.1244 C.1     1  LIG1       -0.1137
     21 H          -4.4387    3.2076   -1.4163 H       1  LIG1        0.1232
     22 O          -5.8471   -1.2356   -0.4736 O.3     1  LIG1       -0.5034
     23 H          -6.0875   -0.3353   -0.7292 H       1  LIG1        0.2923
     24 C          -4.3111   -3.7872    0.2025 C.ar    1  LIG1        0.0862
     25 C          -3.6378   -4.9718    0.5018 C.ar    1  LIG1        0.0935
     26 C          -4.6268   -5.9969    0.5918 C.ar    1  LIG1        0.1596
     27 C          -5.8582   -5.4348    0.3464 C.ar    1  LIG1        0.1079
     28 N          -5.6346   -4.0790    0.1267 N.ar    1  LIG1       -0.3478
     29 H          -6.3223   -3.4181   -0.2045 H       1  LIG1        0.1661
     30 C          -2.2506   -5.1541    0.7178 C.1     1  LIG1       -0.0638
     31 C          -1.0728   -5.3454    0.9106 C.1     1  LIG1       -0.1137
     32 H          -0.0388   -5.5256    1.0962 H       1  LIG1        0.1232
     33 O          -4.4099   -7.2925    0.9044 O.3     1  LIG1       -0.5034
     34 H          -3.4611   -7.4202    1.0326 H       1  LIG1        0.2923
     35 C          -7.1913   -5.9925    0.3523 C.ar    1  LIG1        0.0857
     36 C          -7.6837   -7.2028   -0.1198 C.ar    1  LIG1        0.0928
     37 C          -9.0885   -7.2129    0.1489 C.ar    1  LIG1        0.1501
     38 C          -9.4189   -6.0344    0.7555 C.ar    1  LIG1        0.0454
     39 N          -8.2534   -5.2952    0.8570 N.ar    1  LIG1       -0.3554
     40 H          -8.1550   -4.4642    1.4162 H       1  LIG1        0.1655
     41 H         -10.3684   -5.6638    1.1034 H       1  LIG1        0.0845
     42 C          -7.0185   -8.2482   -0.8065 C.1     1  LIG1       -0.0638
     43 C          -6.5487   -9.1842   -1.4051 C.1     1  LIG1       -0.1137
     44 H          -6.0975   -9.9959   -1.9267 H       1  LIG1        0.1232
     45 O          -9.9434   -8.2138   -0.1704 O.3     1  LIG1       -0.5040
     46 H          -9.4271   -8.9084   -0.6025 H       1  LIG1        0.2923
@<TRIPOS>BOND
     1    44    43    1
     2    21    20    1
     3    43    42    3
     4    20    19    3
     5     6     5    1
     6    19    14    1
     7    42    36    1
     8    23    22    1
     9    46    45    1
    10     7     1    1
    11     5     1   ar
    12     5     4   ar
    13    22    15    1
    14    14    15   ar
    15    14    13   ar
    16     1     2   ar
    17    15    16   ar
    18     4    13    1
    19     4     3   ar
    20    13    17   ar
    21    29    28    1
    22    45    37    1
    23    36    37   ar
    24    36    35   ar
    25    16    17   ar
    26    16    24    1
    27     2     3   ar
    28     2     8    1
    29    17    18    1
    30     3    11    1
    31    28    24   ar
    32    28    27   ar
    33    37    38   ar
    34    24    25   ar
    35    12    11    1
    36     8     9    3
    37    27    35    1
    38    27    26   ar
    39    35    39   ar
    40     9    10    1
    41    25    26   ar
    42    25    30    1
    43    26    33    1
    44    30    31    3
    45    38    39   ar
    46    38    41    1
    47    39    40    1
    48    33    34    1
    49    31    32    1
