@<TRIPOS>MOLECULE
mol_data/opt/cam/geoms/mol2/13ef4ed-6if-6di.out
 52 55 0 0 0
SMALL
GASTEIGER

@<TRIPOS>ATOM
      1 C           1.2830   -0.1285   -0.8094 C.ar    1  LIG1        0.0213
      2 C           0.9732    1.1612   -0.4295 C.ar    1  LIG1        0.0839
      3 C          -0.3996    1.1529   -0.0390 C.ar    1  LIG1        0.1574
      4 C          -0.8879   -0.1368   -0.1963 C.ar    1  LIG1        0.0909
      5 N           0.1705   -0.8916   -0.6910 N.ar    1  LIG1       -0.3566
      6 H           0.1590   -1.8962   -0.7550 H       1  LIG1        0.1655
      7 H           2.2253   -0.5399   -1.1355 H       1  LIG1        0.0820
      8 C           1.8442    2.2829   -0.4292 C.1     1  LIG1       -0.0645
      9 C           2.5881    3.2292   -0.4293 C.1     1  LIG1       -0.1137
     10 H           3.2401    4.0716   -0.4283 H       1  LIG1        0.1232
     11 O          -1.0468    2.2804    0.3136 O.3     1  LIG1       -0.5035
     12 H          -1.7475    2.0702    0.9494 H       1  LIG1        0.2923
     13 C          -3.1527   -0.3829    0.9083 C.ar    1  LIG1        0.0345
     14 C          -4.4220   -0.9726    0.9230 C.ar    1  LIG1       -0.0367
     15 C          -2.2203   -0.7188   -0.0980 C.ar    1  LIG1        0.0185
     16 C          -4.8067   -1.9280   -0.0063 C.ar    1  LIG1        0.0025
     17 H          -5.1139   -0.6928    1.7093 H       1  LIG1        0.0636
     18 C          -2.6182   -1.6729   -1.0413 C.ar    1  LIG1       -0.0333
     19 C          -3.8721   -2.2734   -0.9992 C.ar    1  LIG1        0.0602
     20 H          -1.9488   -1.9259   -1.8553 H       1  LIG1        0.0637
     21 C          -2.8241    0.5228    1.9653 C.1     1  LIG1       -0.0690
     22 C          -2.5697    1.2826    2.8664 C.1     1  LIG1       -0.1139
     23 H          -2.3317    1.9322    3.6785 H       1  LIG1        0.1232
     24 N          -4.4531   -3.9878   -2.8555 N.1     1  LIG1       -0.1908
     25 C          -4.2073   -3.2222   -2.0241 C.1     1  LIG1        0.0998
     26 C          -6.3929   -3.8771    0.3660 C.ar    1  LIG1        0.0469
     27 C          -6.1692   -2.5214    0.0533 C.ar    1  LIG1        0.0079
     28 C          -7.2685   -1.7011   -0.1608 C.ar    1  LIG1       -0.0086
     29 C          -8.5508   -2.2291   -0.0954 C.ar    1  LIG1        0.1434
     30 C          -8.6838   -3.5922    0.1838 C.ar    1  LIG1        0.1153
     31 N          -7.6266   -4.3679    0.4204 N.ar    1  LIG1       -0.2475
     32 H          -7.1466   -0.6464   -0.3824 H       1  LIG1        0.0661
     33 C          -5.2822   -4.8442    0.6699 C.3     1  LIG1       -0.0217
     34 H          -4.4552   -4.3626    1.1960 H       1  LIG1        0.0293
     35 H          -4.8859   -5.2849   -0.2500 H       1  LIG1        0.0293
     36 H          -5.6783   -5.6503    1.2871 H       1  LIG1        0.0293
     37 O          -9.5970   -1.3876   -0.3014 O.3     1  LIG1       -0.5046
     38 H         -10.4207   -1.8297   -0.0586 H       1  LIG1        0.2922
     39 C         -10.4028   -5.0487    1.3309 C.ar    1  LIG1        0.1493
     40 C         -10.0160   -4.2477    0.2436 C.ar    1  LIG1        0.0400
     41 C         -10.9310   -4.1233   -0.8001 C.ar    1  LIG1       -0.0454
     42 C         -12.1587   -4.7786   -0.7542 C.ar    1  LIG1       -0.0316
     43 C         -12.4168   -5.5470    0.3802 C.ar    1  LIG1        0.0320
     44 N         -11.5733   -5.6814    1.3972 N.ar    1  LIG1       -0.2437
     45 H         -10.6662   -3.5308   -1.6721 H       1  LIG1        0.0628
     46 H         -13.3594   -6.0823    0.4702 H       1  LIG1        0.0832
     47 N          -8.9061   -5.3188    3.4408 N.1     1  LIG1       -0.1893
     48 C          -9.5487   -5.2050    2.4875 C.1     1  LIG1        0.1198
     49 C         -13.1487   -4.6841   -1.8797 C.3     1  LIG1       -0.0383
     50 H         -14.0888   -5.1748   -1.6211 H       1  LIG1        0.0278
     51 H         -12.7591   -5.1616   -2.7837 H       1  LIG1        0.0278
     52 H         -13.3678   -3.6426   -2.1304 H       1  LIG1        0.0278
@<TRIPOS>BOND
     1    24    25    3
     2    51    49    1
     3    52    49    1
     4    25    19    1
     5    49    50    1
     6    49    42    1
     7    20    18    1
     8    45    41    1
     9     7     1    1
    10    18    19   ar
    11    18    15   ar
    12    19    16   ar
    13     1     5   ar
    14     1     2   ar
    15    41    42   ar
    16    41    40   ar
    17     6     5    1
    18    42    43   ar
    19     5     4   ar
    20     2     8    1
    21     2     3   ar
    22     9     8    3
    23     9    10    1
    24    32    28    1
    25    37    29    1
    26    37    38    1
    27    35    33    1
    28     4    15    1
    29     4     3   ar
    30    28    29   ar
    31    28    27   ar
    32    15    13   ar
    33    29    30   ar
    34     3    11    1
    35    16    27    1
    36    16    14   ar
    37    27    26   ar
    38    30    40    1
    39    30    31   ar
    40    40    39   ar
    41    11    12    1
    42    26    31   ar
    43    26    33    1
    44    43    46    1
    45    43    44   ar
    46    33    34    1
    47    33    36    1
    48    13    14   ar
    49    13    21    1
    50    14    17    1
    51    39    44   ar
    52    39    48    1
    53    21    22    3
    54    48    47    3
    55    22    23    1
