@<TRIPOS>MOLECULE
mol_data/opt/cam/geoms/mol2/13ef13ef13ef13ef-.out
 46 49 0 0 0
SMALL
GASTEIGER

@<TRIPOS>ATOM
      1 C           0.8897    0.0684   -1.4002 C.ar    1  LIG1        0.0213
      2 C           0.8113    1.0405   -0.4264 C.ar    1  LIG1        0.0840
      3 C          -0.4863    0.9265    0.1648 C.ar    1  LIG1        0.1589
      4 C          -1.1492   -0.1138   -0.4601 C.ar    1  LIG1        0.1074
      5 N          -0.2705   -0.6413   -1.4038 N.ar    1  LIG1       -0.3554
      6 H          -0.5677   -1.2147   -2.1769 H       1  LIG1        0.1655
      7 H           1.6902   -0.1463   -2.0907 H       1  LIG1        0.0820
      8 C           1.8238    1.9700   -0.0690 C.1     1  LIG1       -0.0645
      9 C           2.6853    2.7563    0.2287 C.1     1  LIG1       -0.1137
     10 H           3.4410    3.4569    0.4985 H       1  LIG1        0.1232
     11 O          -0.8803    1.6930    1.1967 O.3     1  LIG1       -0.5035
     12 H          -1.8505    1.7383    1.2305 H       1  LIG1        0.2923
     13 C          -2.4290   -0.7248   -0.1974 C.ar    1  LIG1        0.0862
     14 C          -3.6286   -0.1712    0.2446 C.ar    1  LIG1        0.0935
     15 C          -4.5810   -1.2286    0.3222 C.ar    1  LIG1        0.1596
     16 C          -3.9583   -2.3977   -0.0740 C.ar    1  LIG1        0.1079
     17 N          -2.6442   -2.0563   -0.3866 N.ar    1  LIG1       -0.3478
     18 H          -1.9379   -2.7084   -0.6849 H       1  LIG1        0.1661
     19 C          -3.8585    1.1967    0.5313 C.1     1  LIG1       -0.0638
     20 C          -4.0165    2.3663    0.7839 C.1     1  LIG1       -0.1137
     21 H          -4.1870    3.4008    0.9759 H       1  LIG1        0.1232
     22 O          -5.8392   -1.0284    0.7552 O.3     1  LIG1       -0.5034
     23 H          -6.4179   -1.7508    0.4670 H       1  LIG1        0.2923
     24 C          -4.4124   -3.7636   -0.1110 C.ar    1  LIG1        0.0862
     25 C          -5.6843   -4.2959   -0.3374 C.ar    1  LIG1        0.0935
     26 C          -5.5587   -5.7111   -0.2517 C.ar    1  LIG1        0.1596
     27 C          -4.2460   -6.0201    0.0047 C.ar    1  LIG1        0.1079
     28 N          -3.5663   -4.8145    0.0801 N.ar    1  LIG1       -0.3478
     29 H          -2.6167   -4.7515    0.4183 H       1  LIG1        0.1661
     30 C          -6.8783   -3.6015   -0.6424 C.1     1  LIG1       -0.0638
     31 C          -7.9172   -3.0335   -0.8851 C.1     1  LIG1       -0.1137
     32 H          -8.8205   -2.5252   -1.1351 H       1  LIG1        0.1232
     33 O          -6.5386   -6.6398   -0.4152 O.3     1  LIG1       -0.5034
     34 H          -7.3746   -6.1857   -0.5831 H       1  LIG1        0.2923
     35 C          -3.6081   -7.2962    0.1757 C.ar    1  LIG1        0.0857
     36 C          -2.2807   -7.6174    0.4619 C.ar    1  LIG1        0.0928
     37 C          -2.2106   -9.0441    0.5252 C.ar    1  LIG1        0.1501
     38 C          -3.4607   -9.5423    0.2829 C.ar    1  LIG1        0.0454
     39 N          -4.2956   -8.4614    0.0721 N.ar    1  LIG1       -0.3554
     40 H          -5.2835   -8.4977   -0.1281 H       1  LIG1        0.1655
     41 H          -3.8138  -10.5589    0.2449 H       1  LIG1        0.0845
     42 C          -1.1972   -6.7309    0.6719 C.1     1  LIG1       -0.0638
     43 C          -0.2523   -6.0001    0.8596 C.1     1  LIG1       -0.1137
     44 H           0.5862   -5.3685    1.0450 H       1  LIG1        0.1232
     45 O          -1.1020   -9.7813    0.7800 O.3     1  LIG1       -0.5040
     46 H          -0.3657   -9.1750    0.9311 H       1  LIG1        0.2923
@<TRIPOS>BOND
     1     6     5    1
     2     7     1    1
     3     5     1   ar
     4     5     4   ar
     5     1     2   ar
     6    32    31    1
     7    31    30    3
     8    18    17    1
     9    30    25    1
    10    34    33    1
    11     4    13    1
    12     4     3   ar
    13     2     8    1
    14     2     3   ar
    15    33    26    1
    16    17    13   ar
    17    17    16   ar
    18    25    26   ar
    19    25    24   ar
    20    26    27   ar
    21    13    14   ar
    22    40    39    1
    23    24    16    1
    24    24    28   ar
    25    16    15   ar
    26     8     9    3
    27    27    28   ar
    28    27    35    1
    29    39    35   ar
    30    39    38   ar
    31    28    29    1
    32     3    11    1
    33    35    36   ar
    34     9    10    1
    35    14    15   ar
    36    14    19    1
    37    41    38    1
    38    38    37   ar
    39    15    22    1
    40    36    37   ar
    41    36    42    1
    42    23    22    1
    43    37    45    1
    44    19    20    3
    45    42    43    3
    46    45    46    1
    47    20    21    1
    48    43    44    1
    49    11    12    1
