@<TRIPOS>MOLECULE
mol_data/opt/cam/geoms/mol2/13eg13eg-13eg13eg-.out
 46 49 0 0 0
SMALL
GASTEIGER

@<TRIPOS>ATOM
      1 C           0.2553    0.2708   -2.3635 C.ar    1  LIG1        0.0188
      2 C           0.7180    0.8501   -1.2018 C.ar    1  LIG1        0.0557
      3 C          -0.2598    0.5920   -0.1858 C.ar    1  LIG1        0.0469
      4 C          -1.2762   -0.1361   -0.7689 C.ar    1  LIG1        0.0787
      5 N          -0.9378   -0.3253   -2.0948 N.ar    1  LIG1       -0.3575
      6 H          -1.5691   -0.6891   -2.7906 H       1  LIG1        0.1654
      7 H           0.6933    0.2562   -3.3491 H       1  LIG1        0.0820
      8 C           1.9448    1.5525   -1.0536 C.1     1  LIG1       -0.0671
      9 C           2.9856    2.1446   -0.9319 C.1     1  LIG1       -0.1138
     10 H           3.9037    2.6727   -0.8175 H       1  LIG1        0.1232
     11 S          -0.0755    1.0344    1.5134 S.3     1  LIG1       -0.1394
     12 H          -1.2981    1.5750    1.6743 H       1  LIG1        0.1072
     13 C          -2.4952   -0.7074   -0.2219 C.ar    1  LIG1        0.0811
     14 C          -3.5415   -0.1349    0.4869 C.ar    1  LIG1        0.0652
     15 C          -4.4988   -1.1654    0.7490 C.ar    1  LIG1        0.0476
     16 C          -4.0143   -2.3301    0.1908 C.ar    1  LIG1        0.0791
     17 N          -2.8052   -2.0280   -0.3991 N.ar    1  LIG1       -0.3500
     18 H          -2.2283   -2.6863   -0.8988 H       1  LIG1        0.1661
     19 C          -3.6420    1.2330    0.8524 C.1     1  LIG1       -0.0664
     20 C          -3.7153    2.3939    1.1666 C.1     1  LIG1       -0.1138
     21 H          -3.8012    3.4234    1.4284 H       1  LIG1        0.1232
     22 S          -5.9622   -0.9493    1.7122 S.3     1  LIG1       -0.1393
     23 H          -6.8098   -1.5484    0.8545 H       1  LIG1        0.1072
     24 C          -4.5318   -3.6882    0.1853 C.ar    1  LIG1        0.0811
     25 C          -5.7478   -4.2038   -0.2382 C.ar    1  LIG1        0.0652
     26 C          -5.7087   -5.6200   -0.0387 C.ar    1  LIG1        0.0476
     27 C          -4.4730   -5.9265    0.4939 C.ar    1  LIG1        0.0791
     28 N          -3.7735   -4.7443    0.6101 N.ar    1  LIG1       -0.3500
     29 H          -2.8373   -4.6681    0.9758 H       1  LIG1        0.1661
     30 C          -6.8167   -3.4498   -0.7898 C.1     1  LIG1       -0.0664
     31 C          -7.7221   -2.8002   -1.2480 C.1     1  LIG1       -0.1138
     32 H          -8.5225   -2.2399   -1.6739 H       1  LIG1        0.1232
     33 S          -7.0711   -6.7024   -0.3343 S.3     1  LIG1       -0.1393
     34 H          -6.3847   -7.6526   -0.9962 H       1  LIG1        0.1072
     35 C          -3.8897   -7.1812    0.9380 C.ar    1  LIG1        0.0807
     36 C          -3.7385   -8.3991    0.2915 C.ar    1  LIG1        0.0645
     37 C          -3.0763   -9.2826    1.2024 C.ar    1  LIG1        0.0381
     38 C          -2.8404   -8.5806    2.3534 C.ar    1  LIG1        0.0167
     39 N          -3.3249   -7.3072    2.1782 N.ar    1  LIG1       -0.3575
     40 H          -3.4259   -6.6248    2.9127 H       1  LIG1        0.1654
     41 H          -2.3698   -8.8819    3.2760 H       1  LIG1        0.0818
     42 C          -4.1238   -8.6977   -1.0409 C.1     1  LIG1       -0.0664
     43 C          -4.4529   -8.9661   -2.1690 C.1     1  LIG1       -0.1138
     44 H          -4.7255   -9.2040   -3.1715 H       1  LIG1        0.1232
     45 S          -2.6529  -10.9486    0.8013 S.3     1  LIG1       -0.1400
     46 H          -2.2126  -11.2819    2.0254 H       1  LIG1        0.1072
@<TRIPOS>BOND
     1     7     1    1
     2    44    43    1
     3     6     5    1
     4     1     5   ar
     5     1     2   ar
     6    43    42    3
     7     5     4   ar
     8    32    31    1
     9    31    30    3
    10     2     8    1
    11     2     3   ar
    12     8     9    3
    13    42    36    1
    14    34    33    1
    15     9    10    1
    16    18    17    1
    17    30    25    1
    18     4    13    1
    19     4     3   ar
    20    17    13   ar
    21    17    16   ar
    22    33    26    1
    23    25    26   ar
    24    25    24   ar
    25    13    14   ar
    26     3    11    1
    27    26    27   ar
    28    24    16    1
    29    24    28   ar
    30    16    15   ar
    31    36    35   ar
    32    36    37   ar
    33    14    15   ar
    34    14    19    1
    35    27    28   ar
    36    27    35    1
    37    28    29    1
    38    15    22    1
    39    45    37    1
    40    45    46    1
    41    19    20    3
    42    23    22    1
    43    35    39   ar
    44    20    21    1
    45    37    38   ar
    46    11    12    1
    47    39    38   ar
    48    39    40    1
    49    38    41    1
