@<TRIPOS>MOLECULE
mol_data/opt/cam/geoms/mol2/13eg13eg13eg.out
 35 37 0 0 0
SMALL
GASTEIGER

@<TRIPOS>ATOM
      1 C           1.1810   -0.1450    0.3843 C.ar    1  LIG1        0.0188
      2 C           0.8201    0.9310   -0.3973 C.ar    1  LIG1        0.0557
      3 C          -0.6062    0.8910   -0.5366 C.ar    1  LIG1        0.0469
      4 C          -1.0567   -0.2092    0.1657 C.ar    1  LIG1        0.0787
      5 N           0.0517   -0.8287    0.7112 N.ar    1  LIG1       -0.3575
      6 H           0.0016   -1.5689    1.3921 H       1  LIG1        0.1654
      7 H           2.1565   -0.4524    0.7268 H       1  LIG1        0.0820
      8 C           1.7109    1.8813   -0.9662 C.1     1  LIG1       -0.0671
      9 C           2.4689    2.6827   -1.4478 C.1     1  LIG1       -0.1138
     10 H           3.1329    3.3974   -1.8758 H       1  LIG1        0.1232
     11 S          -1.5274    1.9947   -1.5599 S.3     1  LIG1       -0.1394
     12 H          -2.5193    2.2442   -0.6846 H       1  LIG1        0.1072
     13 C          -2.3800   -0.7776    0.3465 C.ar    1  LIG1        0.0811
     14 C          -3.5848   -0.2093    0.7263 C.ar    1  LIG1        0.0652
     15 C          -4.5727   -1.2485    0.7262 C.ar    1  LIG1        0.0476
     16 C          -3.9400   -2.4164    0.3589 C.ar    1  LIG1        0.0791
     17 N          -2.6054   -2.1172    0.1520 N.ar    1  LIG1       -0.3500
     18 H          -1.9846   -2.7038   -0.3853 H       1  LIG1        0.1661
     19 C          -3.7809    1.1409    1.1170 C.1     1  LIG1       -0.0664
     20 C          -3.9428    2.2889    1.4457 C.1     1  LIG1       -0.1138
     21 H          -4.0915    3.2975    1.7563 H       1  LIG1        0.1232
     22 S          -6.2347   -1.0219    1.2739 S.3     1  LIG1       -0.1393
     23 H          -6.8314   -1.6923    0.2705 H       1  LIG1        0.1072
     24 C          -4.4175   -3.7795    0.2136 C.ar    1  LIG1        0.0807
     25 C          -5.5107   -4.3044   -0.4616 C.ar    1  LIG1        0.0645
     26 C          -5.4819   -5.7237   -0.2750 C.ar    1  LIG1        0.0381
     27 C          -4.3822   -6.0145    0.4854 C.ar    1  LIG1        0.0167
     28 N          -3.7381   -4.8328    0.7633 N.ar    1  LIG1       -0.3575
     29 H          -2.9852   -4.7284    1.4235 H       1  LIG1        0.1654
     30 H          -4.0071   -6.9593    0.8462 H       1  LIG1        0.0818
     31 C          -6.4477   -3.5819   -1.2435 C.1     1  LIG1       -0.0664
     32 C          -7.2542   -2.9806   -1.9078 C.1     1  LIG1       -0.1138
     33 H          -7.9536   -2.4539   -2.5156 H       1  LIG1        0.1232
     34 S          -6.6792   -6.8157   -0.9749 S.3     1  LIG1       -0.1400
     35 H          -6.2028   -7.9332   -0.4024 H       1  LIG1        0.1072
@<TRIPOS>BOND
     1    33    32    1
     2    32    31    3
     3    10     9    1
     4    11    12    1
     5    11     3    1
     6     9     8    3
     7    31    25    1
     8    34    35    1
     9    34    26    1
    10     8     2    1
    11     3     2   ar
    12     3     4   ar
    13    25    26   ar
    14    25    24   ar
    15     2     1   ar
    16    18    17    1
    17    26    27   ar
    18    17    13   ar
    19    17    16   ar
    20     4    13    1
    21     4     5   ar
    22    24    16    1
    23    24    28   ar
    24    23    22    1
    25    13    14   ar
    26    16    15   ar
    27     1     5   ar
    28     1     7    1
    29    27    28   ar
    30    27    30    1
    31     5     6    1
    32    15    14   ar
    33    15    22    1
    34    14    19    1
    35    28    29    1
    36    19    20    3
    37    20    21    1
