@<TRIPOS>MOLECULE
mol_data/opt/cam/geoms/mol2/13eg13eg-.out
 24 25 0 0 0
SMALL
GASTEIGER

@<TRIPOS>ATOM
      1 C           1.0836   -0.2014   -0.7687 C.ar    1  LIG1        0.0188
      2 C           0.8535    0.9440   -0.0378 C.ar    1  LIG1        0.0557
      3 C          -0.5097    0.8945    0.4037 C.ar    1  LIG1        0.0469
      4 C          -1.0540   -0.2799   -0.0746 C.ar    1  LIG1        0.0787
      5 N          -0.0630   -0.9333   -0.7810 N.ar    1  LIG1       -0.3575
      6 H          -0.2265   -1.7426   -1.3579 H       1  LIG1        0.1654
      7 H           1.9769   -0.5274   -1.2775 H       1  LIG1        0.0820
      8 C           1.8066    1.9634    0.2322 C.1     1  LIG1       -0.0671
      9 C           2.6176    2.8232    0.4599 C.1     1  LIG1       -0.1138
     10 H           3.3288    3.5896    0.6638 H       1  LIG1        0.1232
     11 S          -1.2487    2.0846    1.4780 S.3     1  LIG1       -0.1394
     12 H          -2.3937    2.2428    0.7883 H       1  LIG1        0.1072
     13 C          -2.3682   -0.8794    0.0796 C.ar    1  LIG1        0.0806
     14 C          -3.6411   -0.3723   -0.1385 C.ar    1  LIG1        0.0645
     15 C          -4.5713   -1.4176    0.1651 C.ar    1  LIG1        0.0381
     16 C          -3.8455   -2.5148    0.5416 C.ar    1  LIG1        0.0167
     17 N          -2.5139   -2.1818    0.4740 N.ar    1  LIG1       -0.3575
     18 H          -1.7601   -2.7422    0.8375 H       1  LIG1        0.1654
     19 H          -4.1660   -3.4982    0.8478 H       1  LIG1        0.0818
     20 C          -3.9614    0.9216   -0.6238 C.1     1  LIG1       -0.0664
     21 C          -4.2483    2.0196   -1.0303 C.1     1  LIG1       -0.1138
     22 H          -4.5036    2.9823   -1.4093 H       1  LIG1        0.1232
     23 S          -6.3203   -1.2323    0.0119 S.3     1  LIG1       -0.1400
     24 H          -6.6357   -2.4326    0.5250 H       1  LIG1        0.1072
@<TRIPOS>BOND
     1    22    21    1
     2     6     5    1
     3     7     1    1
     4    21    20    3
     5     5     1   ar
     6     5     4   ar
     7     1     2   ar
     8    20    14    1
     9    14    13   ar
    10    14    15   ar
    11     4    13    1
    12     4     3   ar
    13     2     8    1
    14     2     3   ar
    15    23    15    1
    16    23    24    1
    17    13    17   ar
    18    15    16   ar
    19     8     9    3
    20     3    11    1
    21     9    10    1
    22    17    16   ar
    23    17    18    1
    24    16    19    1
    25    12    11    1
