@<TRIPOS>MOLECULE
mol_data/opt/cam/geoms/mol2/13eg13eg13eg13eg-.out
 46 49 0 0 0
SMALL
GASTEIGER

@<TRIPOS>ATOM
      1 C           1.2064   -0.0956    0.2509 C.ar    1  LIG1        0.0188
      2 C           0.7948    1.0937   -0.3103 C.ar    1  LIG1        0.0557
      3 C          -0.6369    1.0556   -0.3755 C.ar    1  LIG1        0.0469
      4 C          -1.0396   -0.1571    0.1472 C.ar    1  LIG1        0.0787
      5 N           0.1019   -0.8448    0.5141 N.ar    1  LIG1       -0.3575
      6 H           0.0946   -1.6885    1.0637 H       1  LIG1        0.1654
      7 H           2.2016   -0.4412    0.4819 H       1  LIG1        0.0820
      8 C           1.6456    2.1427   -0.7528 C.1     1  LIG1       -0.0671
      9 C           2.3696    3.0279   -1.1283 C.1     1  LIG1       -0.1138
     10 H           3.0033    3.8172   -1.4605 H       1  LIG1        0.1232
     11 S          -1.6236    2.3063   -1.1345 S.3     1  LIG1       -0.1394
     12 H          -2.5619    2.3832   -0.1722 H       1  LIG1        0.1072
     13 C          -2.3473   -0.7684    0.2990 C.ar    1  LIG1        0.0811
     14 C          -3.5280   -0.2964    0.8476 C.ar    1  LIG1        0.0652
     15 C          -4.5114   -1.3315    0.7173 C.ar    1  LIG1        0.0476
     16 C          -3.8996   -2.4035    0.1021 C.ar    1  LIG1        0.0791
     17 N          -2.5796   -2.0529   -0.1233 N.ar    1  LIG1       -0.3500
     18 H          -1.9919   -2.5194   -0.7974 H       1  LIG1        0.1661
     19 C          -3.7030    0.9583    1.4878 C.1     1  LIG1       -0.0664
     20 C          -3.8465    2.0260    2.0274 C.1     1  LIG1       -0.1138
     21 H          -3.9780    2.9600    2.5236 H       1  LIG1        0.1232
     22 S          -6.1289   -1.2272    1.4128 S.3     1  LIG1       -0.1393
     23 H          -6.7936   -1.7497    0.3650 H       1  LIG1        0.1072
     24 C          -4.3744   -3.7260   -0.2566 C.ar    1  LIG1        0.0811
     25 C          -5.5258   -4.1530   -0.8990 C.ar    1  LIG1        0.0652
     26 C          -5.4729   -5.5837   -0.9762 C.ar    1  LIG1        0.0476
     27 C          -4.2892   -5.9830   -0.3950 C.ar    1  LIG1        0.0791
     28 N          -3.6245   -4.8422    0.0177 N.ar    1  LIG1       -0.3500
     29 H          -2.8876   -4.8521    0.7063 H       1  LIG1        0.1661
     30 C          -6.5296   -3.3186   -1.4555 C.1     1  LIG1       -0.0664
     31 C          -7.3804   -2.6077   -1.9276 C.1     1  LIG1       -0.1138
     32 H          -8.1255   -1.9855   -2.3678 H       1  LIG1        0.1232
     33 S          -6.6675   -6.5653   -1.8262 S.3     1  LIG1       -0.1393
     34 H          -6.7900   -7.5219   -0.8868 H       1  LIG1        0.1072
     35 C          -3.6869   -7.2910   -0.2114 C.ar    1  LIG1        0.0807
     36 C          -4.1942   -8.4703    0.3154 C.ar    1  LIG1        0.0645
     37 C          -3.1457   -9.4437    0.2617 C.ar    1  LIG1        0.0381
     38 C          -2.0465   -8.8318   -0.2767 C.ar    1  LIG1        0.0167
     39 N          -2.3805   -7.5262   -0.5462 N.ar    1  LIG1       -0.3575
     40 H          -1.8198   -6.8886   -1.0874 H       1  LIG1        0.1654
     41 H          -1.0608   -9.2162   -0.4866 H       1  LIG1        0.0818
     42 C          -5.4899   -8.6625    0.8597 C.1     1  LIG1       -0.0664
     43 C          -6.5896   -8.8410    1.3199 C.1     1  LIG1       -0.1138
     44 H          -7.5533   -8.9949    1.7486 H       1  LIG1        0.1232
     45 S          -3.3301  -11.0982    0.8485 S.3     1  LIG1       -0.1400
     46 H          -2.1397  -11.5379    0.4091 H       1  LIG1        0.1072
@<TRIPOS>BOND
     1    32    31    1
     2    31    30    3
     3    33    26    1
     4    33    34    1
     5    10     9    1
     6    30    25    1
     7    11     3    1
     8    11    12    1
     9     9     8    3
    10    40    39    1
    11    26    25   ar
    12    26    27   ar
    13    25    24   ar
    14    18    17    1
    15     8     2    1
    16    39    38   ar
    17    39    35   ar
    18    41    38    1
    19    27    35    1
    20    27    28   ar
    21     3     2   ar
    22     3     4   ar
    23     2     1   ar
    24    38    37   ar
    25    24    28   ar
    26    24    16    1
    27    35    36   ar
    28    17    16   ar
    29    17    13   ar
    30    28    29    1
    31    16    15   ar
    32     4    13    1
    33     4     5   ar
    34     1     7    1
    35     1     5   ar
    36    37    36   ar
    37    37    45    1
    38    13    14   ar
    39    36    42    1
    40    23    22    1
    41    46    45    1
    42     5     6    1
    43    15    14   ar
    44    15    22    1
    45    14    19    1
    46    42    43    3
    47    43    44    1
    48    19    20    3
    49    20    21    1
