@<TRIPOS>MOLECULE
mol_data/opt/cam/geoms/mol2/13eg13eg.out
 24 25 0 0 0
SMALL
GASTEIGER

@<TRIPOS>ATOM
      1 C           1.0937   -0.2099    0.7343 C.ar    1  LIG1        0.0188
      2 C           0.8542    0.9426    0.0176 C.ar    1  LIG1        0.0557
      3 C          -0.5148    0.8977   -0.4057 C.ar    1  LIG1        0.0469
      4 C          -1.0532   -0.2809    0.0687 C.ar    1  LIG1        0.0787
      5 N          -0.0529   -0.9414    0.7553 N.ar    1  LIG1       -0.3575
      6 H          -0.2090   -1.7560    1.3267 H       1  LIG1        0.1654
      7 H           1.9937   -0.5410    1.2278 H       1  LIG1        0.0820
      8 C           1.8041    1.9641   -0.2557 C.1     1  LIG1       -0.0671
      9 C           2.6123    2.8257   -0.4863 C.1     1  LIG1       -0.1138
     10 H           3.3211    3.5938   -0.6926 H       1  LIG1        0.1232
     11 S          -1.2678    2.0983   -1.4585 S.3     1  LIG1       -0.1394
     12 H          -2.4032    2.2504   -0.7517 H       1  LIG1        0.1072
     13 C          -2.3696   -0.8785   -0.0733 C.ar    1  LIG1        0.0806
     14 C          -3.6392   -0.3729    0.1670 C.ar    1  LIG1        0.0645
     15 C          -4.5740   -1.4150   -0.1338 C.ar    1  LIG1        0.0381
     16 C          -3.8540   -2.5088   -0.5306 C.ar    1  LIG1        0.0167
     17 N          -2.5214   -2.1769   -0.4780 N.ar    1  LIG1       -0.3575
     18 H          -1.7729   -2.7341   -0.8570 H       1  LIG1        0.1654
     19 H          -4.1791   -3.4891   -0.8418 H       1  LIG1        0.0818
     20 C          -3.9522    0.9164    0.6690 C.1     1  LIG1       -0.0664
     21 C          -4.2329    2.0105    1.0898 C.1     1  LIG1       -0.1138
     22 H          -4.4825    2.9698    1.4814 H       1  LIG1        0.1232
     23 S          -6.3206   -1.2304    0.0450 S.3     1  LIG1       -0.1400
     24 H          -6.6436   -2.4257   -0.4751 H       1  LIG1        0.1072
@<TRIPOS>BOND
     1    11    12    1
     2    11     3    1
     3    18    17    1
     4    19    16    1
     5    10     9    1
     6    16    17   ar
     7    16    15   ar
     8     9     8    3
     9    17    13   ar
    10    24    23    1
    11     3     2   ar
    12     3     4   ar
    13     8     2    1
    14    15    23    1
    15    15    14   ar
    16    13     4    1
    17    13    14   ar
    18     2     1   ar
    19     4     5   ar
    20    14    20    1
    21    20    21    3
    22     1     5   ar
    23     1     7    1
    24     5     6    1
    25    21    22    1
