@<TRIPOS>MOLECULE
mol_data/opt/cam/geoms/mol2/13eg13eg-13eg.out
 35 37 0 0 0
SMALL
GASTEIGER

@<TRIPOS>ATOM
      1 C           0.7649    0.0454   -1.5098 C.ar    1  LIG1        0.0188
      2 C           0.8472    0.9113   -0.4409 C.ar    1  LIG1        0.0557
      3 C          -0.3754    0.7848    0.2970 C.ar    1  LIG1        0.0469
      4 C          -1.1510   -0.1545   -0.3504 C.ar    1  LIG1        0.0787
      5 N          -0.4332   -0.5961   -1.4451 N.ar    1  LIG1       -0.3575
      6 H          -0.8213   -1.1663   -2.1794 H       1  LIG1        0.1654
      7 H           1.4721   -0.1412   -2.3026 H       1  LIG1        0.0820
      8 C           1.9521    1.7513   -0.1342 C.1     1  LIG1       -0.0671
      9 C           2.8907    2.4595    0.1230 C.1     1  LIG1       -0.1138
     10 H           3.7163    3.0914    0.3552 H       1  LIG1        0.1232
     11 S          -0.7096    1.6078    1.8226 S.3     1  LIG1       -0.1394
     12 H          -1.9494    2.0307    1.5112 H       1  LIG1        0.1072
     13 C          -2.4568   -0.7131   -0.0429 C.ar    1  LIG1        0.0811
     14 C          -3.6840   -0.1094    0.1908 C.ar    1  LIG1        0.0652
     15 C          -4.6412   -1.1499    0.4119 C.ar    1  LIG1        0.0476
     16 C          -3.9750   -2.3530    0.3014 C.ar    1  LIG1        0.0791
     17 N          -2.6571   -2.0647    0.0163 N.ar    1  LIG1       -0.3500
     18 H          -1.9369   -2.7556   -0.1236 H       1  LIG1        0.1661
     19 C          -3.9333    1.2880    0.1805 C.1     1  LIG1       -0.0664
     20 C          -4.1345    2.4760    0.1786 C.1     1  LIG1       -0.1138
     21 H          -4.3279    3.5238    0.1561 H       1  LIG1        0.1232
     22 S          -6.3277   -0.8727    0.8533 S.3     1  LIG1       -0.1393
     23 H          -6.8714   -1.7352   -0.0256 H       1  LIG1        0.1072
     24 C          -4.4163   -3.7275    0.4668 C.ar    1  LIG1        0.0807
     25 C          -5.4573   -4.4310   -0.1210 C.ar    1  LIG1        0.0645
     26 C          -5.4181   -5.7623    0.4038 C.ar    1  LIG1        0.0381
     27 C          -4.3635   -5.8276    1.2737 C.ar    1  LIG1        0.0167
     28 N          -3.7566   -4.5952    1.2944 N.ar    1  LIG1       -0.3575
     29 H          -3.0557   -4.3106    1.9599 H       1  LIG1        0.1654
     30 H          -3.9984   -6.6455    1.8748 H       1  LIG1        0.0818
     31 C          -6.3609   -3.9367   -1.0967 C.1     1  LIG1       -0.0664
     32 C          -7.1386   -3.5262   -1.9211 C.1     1  LIG1       -0.1138
     33 H          -7.8172   -3.1732   -2.6633 H       1  LIG1        0.1232
     34 S          -6.5511   -7.0274   -0.0778 S.3     1  LIG1       -0.1400
     35 H          -6.1180   -7.9473    0.7995 H       1  LIG1        0.1072
@<TRIPOS>BOND
     1    33    32    1
     2     7     1    1
     3     6     5    1
     4    32    31    3
     5     1     5   ar
     6     1     2   ar
     7     5     4   ar
     8    31    25    1
     9     2     8    1
    10     2     3   ar
    11     4    13    1
    12     4     3   ar
    13     8     9    3
    14    18    17    1
    15    25    26   ar
    16    25    24   ar
    17    34    26    1
    18    34    35    1
    19    13    17   ar
    20    13    14   ar
    21    23    22    1
    22    17    16   ar
    23     9    10    1
    24    21    20    1
    25    20    19    3
    26    19    14    1
    27    14    15   ar
    28     3    11    1
    29    16    15   ar
    30    16    24    1
    31    26    27   ar
    32    15    22    1
    33    24    28   ar
    34    27    28   ar
    35    27    30    1
    36    28    29    1
    37    12    11    1
