@<TRIPOS>MOLECULE
mol_data/opt/cam/geoms/mol2/13eg13eg13eg-13eg.out
 46 49 0 0 0
SMALL
GASTEIGER

@<TRIPOS>ATOM
      1 C           0.2868    0.2343    2.3459 C.ar    1  LIG1        0.0188
      2 C           0.7372    0.8286    1.1870 C.ar    1  LIG1        0.0557
      3 C          -0.2523    0.5856    0.1787 C.ar    1  LIG1        0.0469
      4 C          -1.2631   -0.1490    0.7632 C.ar    1  LIG1        0.0787
      5 N          -0.9102   -0.3566    2.0825 N.ar    1  LIG1       -0.3575
      6 H          -1.5342   -0.7290    2.7804 H       1  LIG1        0.1654
      7 H           0.7357    0.2057    3.3262 H       1  LIG1        0.0820
      8 C           1.9633    1.5314    1.0346 C.1     1  LIG1       -0.0671
      9 C           3.0035    2.1237    0.9092 C.1     1  LIG1       -0.1138
     10 H           3.9211    2.6521    0.7917 H       1  LIG1        0.1232
     11 S          -0.0863    1.0507   -1.5163 S.3     1  LIG1       -0.1394
     12 H          -1.3099    1.5951   -1.6562 H       1  LIG1        0.1072
     13 C          -2.4890   -0.7113    0.2222 C.ar    1  LIG1        0.0811
     14 C          -3.5424   -0.1279   -0.4670 C.ar    1  LIG1        0.0652
     15 C          -4.5040   -1.1535   -0.7323 C.ar    1  LIG1        0.0476
     16 C          -4.0150   -2.3262   -0.1954 C.ar    1  LIG1        0.0791
     17 N          -2.7989   -2.0337    0.3850 N.ar    1  LIG1       -0.3500
     18 H          -2.2175   -2.6995    0.8692 H       1  LIG1        0.1661
     19 C          -3.6449    1.2450   -0.8128 C.1     1  LIG1       -0.0664
     20 C          -3.7201    2.4101   -1.1104 C.1     1  LIG1       -0.1138
     21 H          -3.8074    3.4432   -1.3572 H       1  LIG1        0.1232
     22 S          -5.9778   -0.9224   -1.6760 S.3     1  LIG1       -0.1393
     23 H          -6.8166   -1.5320   -0.8169 H       1  LIG1        0.1072
     24 C          -4.5343   -3.6836   -0.2025 C.ar    1  LIG1        0.0811
     25 C          -5.7463   -4.2033    0.2277 C.ar    1  LIG1        0.0652
     26 C          -5.7115   -5.6167    0.0086 C.ar    1  LIG1        0.0476
     27 C          -4.4823   -5.9176   -0.5420 C.ar    1  LIG1        0.0791
     28 N          -3.7824   -4.7349   -0.6500 N.ar    1  LIG1       -0.3500
     29 H          -2.8503   -4.6549   -1.0252 H       1  LIG1        0.1661
     30 C          -6.8078   -3.4555    0.8015 C.1     1  LIG1       -0.0664
     31 C          -7.7071   -2.8109    1.2786 C.1     1  LIG1       -0.1138
     32 H          -8.5018   -2.2554    1.7209 H       1  LIG1        0.1232
     33 S          -7.0721   -6.7012    0.3048 S.3     1  LIG1       -0.1393
     34 H          -6.3797   -7.6612    0.9460 H       1  LIG1        0.1072
     35 C          -3.9058   -7.1669   -1.0096 C.ar    1  LIG1        0.0807
     36 C          -3.7492   -8.3937   -0.3814 C.ar    1  LIG1        0.0645
     37 C          -3.0986   -9.2656   -1.3116 C.ar    1  LIG1        0.0381
     38 C          -2.8746   -8.5484   -2.4556 C.ar    1  LIG1        0.0167
     39 N          -3.3552   -7.2768   -2.2577 N.ar    1  LIG1       -0.3575
     40 H          -3.4634   -6.5844   -2.9816 H       1  LIG1        0.1654
     41 H          -2.4148   -8.8377   -3.3874 H       1  LIG1        0.0818
     42 C          -4.1200   -8.7098    0.9511 C.1     1  LIG1       -0.0664
     43 C          -4.4367   -8.9931    2.0791 C.1     1  LIG1       -0.1138
     44 H          -4.6984   -9.2442    3.0813 H       1  LIG1        0.1232
     45 S          -2.6731  -10.9375   -0.9378 S.3     1  LIG1       -0.1400
     46 H          -2.2475  -11.2548   -2.1714 H       1  LIG1        0.1072
@<TRIPOS>BOND
     1    41    38    1
     2    40    39    1
     3    38    39   ar
     4    38    37   ar
     5    39    35   ar
     6    46    45    1
     7    22    23    1
     8    22    15    1
     9    12    11    1
    10    11     3    1
    11    21    20    1
    12    37    45    1
    13    37    36   ar
    14    20    19    3
    15    29    28    1
    16    35    27    1
    17    35    36   ar
    18    19    14    1
    19    15    14   ar
    20    15    16   ar
    21    28    27   ar
    22    28    24   ar
    23    27    26   ar
    24    14    13   ar
    25    36    42    1
    26    24    16    1
    27    24    25   ar
    28    16    17   ar
    29    26    25   ar
    30    26    33    1
    31     3     4   ar
    32     3     2   ar
    33    13    17   ar
    34    13     4    1
    35    25    30    1
    36    33    34    1
    37    17    18    1
    38     4     5   ar
    39    10     9    1
    40    30    31    3
    41     9     8    3
    42    42    43    3
    43     8     2    1
    44     2     1   ar
    45    31    32    1
    46    43    44    1
    47     5     1   ar
    48     5     6    1
    49     1     7    1
