@<TRIPOS>MOLECULE
mol_data/opt/cam/geoms/mol2/13eg13eg13eg-13eg-.out
 46 49 0 0 0
SMALL
GASTEIGER

@<TRIPOS>ATOM
      1 C           0.4912    0.5846    1.7733 C.ar    1  LIG1        0.0188
      2 C           0.7680    1.0660    0.5121 C.ar    1  LIG1        0.0557
      3 C          -0.3237    0.6807   -0.3335 C.ar    1  LIG1        0.0469
      4 C          -1.2187   -0.0226    0.4457 C.ar    1  LIG1        0.0787
      5 N          -0.6983   -0.0747    1.7245 N.ar    1  LIG1       -0.3575
      6 H          -1.2171   -0.3862    2.5300 H       1  LIG1        0.1654
      7 H           1.0562    0.6791    2.6871 H       1  LIG1        0.0820
      8 C           1.9309    1.7915    0.1353 C.1     1  LIG1       -0.0671
      9 C           2.9181    2.4034   -0.1803 C.1     1  LIG1       -0.1138
     10 H           3.7873    2.9487   -0.4666 H       1  LIG1        0.1232
     11 S          -0.3890    0.9675   -2.0742 S.3     1  LIG1       -0.1394
     12 H          -1.6467    1.4466   -2.1130 H       1  LIG1        0.1072
     13 C          -2.4732   -0.6823    0.1253 C.ar    1  LIG1        0.0811
     14 C          -3.6327   -0.2124   -0.4741 C.ar    1  LIG1        0.0652
     15 C          -4.5699   -1.2931   -0.5079 C.ar    1  LIG1        0.0476
     16 C          -3.9598   -2.3857    0.0748 C.ar    1  LIG1        0.0791
     17 N          -2.6953   -1.9899    0.4577 N.ar    1  LIG1       -0.3500
     18 H          -2.0225   -2.5846    0.9144 H       1  LIG1        0.1661
     19 C          -3.8433    1.1119   -0.9399 C.1     1  LIG1       -0.0664
     20 C          -4.0100    2.2358   -1.3409 C.1     1  LIG1       -0.1138
     21 H          -4.1765    3.2330   -1.6782 H       1  LIG1        0.1232
     22 S          -6.1549   -1.2057   -1.2786 S.3     1  LIG1       -0.1393
     23 H          -6.8524   -1.7872   -0.2848 H       1  LIG1        0.1072
     24 C          -4.3988   -3.7560    0.2702 C.ar    1  LIG1        0.0811
     25 C          -5.5455   -4.2798    0.8424 C.ar    1  LIG1        0.0652
     26 C          -5.4571   -5.7082    0.7599 C.ar    1  LIG1        0.0476
     27 C          -4.2587   -6.0100    0.1490 C.ar    1  LIG1        0.0791
     28 N          -3.6185   -4.8144   -0.1229 N.ar    1  LIG1       -0.3500
     29 H          -2.8813   -4.7276   -0.8068 H       1  LIG1        0.1661
     30 C          -6.5812   -3.5295    1.4586 C.1     1  LIG1       -0.0664
     31 C          -7.4584   -2.8858    1.9763 C.1     1  LIG1       -0.1138
     32 H          -8.2321   -2.3281    2.4520 H       1  LIG1        0.1232
     33 S          -6.6322   -6.8053    1.4870 S.3     1  LIG1       -0.1393
     34 H          -6.7266   -7.6576    0.4491 H       1  LIG1        0.1072
     35 C          -3.6236   -7.2727   -0.1819 C.ar    1  LIG1        0.0807
     36 C          -4.1041   -8.4021   -0.8302 C.ar    1  LIG1        0.0645
     37 C          -3.0267   -9.3425   -0.8969 C.ar    1  LIG1        0.0381
     38 C          -1.9380   -8.7601   -0.3072 C.ar    1  LIG1        0.0167
     39 N          -2.3062   -7.5033    0.1087 N.ar    1  LIG1       -0.3575
     40 H          -1.7490   -6.9050    0.6962 H       1  LIG1        0.1654
     41 H          -0.9381   -9.1341   -0.1532 H       1  LIG1        0.0818
     42 C          -5.3988   -8.5736   -1.3831 C.1     1  LIG1       -0.0664
     43 C          -6.4964   -8.7366   -1.8542 C.1     1  LIG1       -0.1138
     44 H          -7.4576   -8.8729   -2.2942 H       1  LIG1        0.1232
     45 S          -3.1738  -10.9292   -1.6555 S.3     1  LIG1       -0.1400
     46 H          -1.9219  -11.3320   -1.3835 H       1  LIG1        0.1072
@<TRIPOS>BOND
     1    44    43    1
     2    12    11    1
     3    11     3    1
     4    43    42    3
     5    21    20    1
     6    45    46    1
     7    45    37    1
     8    42    36    1
     9    20    19    3
    10    22    15    1
    11    22    23    1
    12    19    14    1
    13    37    36   ar
    14    37    38   ar
    15    36    35   ar
    16    29    28    1
    17    15    14   ar
    18    15    16   ar
    19    14    13   ar
    20    10     9    1
    21     3     4   ar
    22     3     2   ar
    23    38    41    1
    24    38    39   ar
    25    35    39   ar
    26    35    27    1
    27     9     8    3
    28    28    27   ar
    29    28    24   ar
    30    16    24    1
    31    16    17   ar
    32    39    40    1
    33    13     4    1
    34    13    17   ar
    35     8     2    1
    36    27    26   ar
    37    24    25   ar
    38     4     5   ar
    39    34    33    1
    40    17    18    1
    41     2     1   ar
    42    26    25   ar
    43    26    33    1
    44    25    30    1
    45    30    31    3
    46     5     1   ar
    47     5     6    1
    48     1     7    1
    49    31    32    1
