@<TRIPOS>MOLECULE
mol_data/opt/cam/geoms/mol2/13eg13eg13eg-.out
 35 37 0 0 0
SMALL
GASTEIGER

@<TRIPOS>ATOM
      1 C           0.7859   -0.0005    1.5011 C.ar    1  LIG1        0.0188
      2 C           0.8598    0.8890    0.4511 C.ar    1  LIG1        0.0557
      3 C          -0.3709    0.7830   -0.2764 C.ar    1  LIG1        0.0469
      4 C          -1.1428   -0.1683    0.3578 C.ar    1  LIG1        0.0787
      5 N          -0.4149   -0.6367    1.4347 N.ar    1  LIG1       -0.3575
      6 H          -0.7971   -1.2222    2.1600 H       1  LIG1        0.1654
      7 H           1.5008   -0.2071    2.2819 H       1  LIG1        0.0820
      8 C           1.9642    1.7324    0.1517 C.1     1  LIG1       -0.0671
      9 C           2.9024    2.4433   -0.0994 C.1     1  LIG1       -0.1138
     10 H           3.7276    3.0778   -0.3260 H       1  LIG1        0.1232
     11 S          -0.7185    1.6413   -1.7794 S.3     1  LIG1       -0.1394
     12 H          -1.9536    2.0608   -1.4454 H       1  LIG1        0.1072
     13 C          -2.4535   -0.7158    0.0517 C.ar    1  LIG1        0.0811
     14 C          -3.6812   -0.1032   -0.1552 C.ar    1  LIG1        0.0652
     15 C          -4.6441   -1.1355   -0.3895 C.ar    1  LIG1        0.0476
     16 C          -3.9807   -2.3429   -0.3133 C.ar    1  LIG1        0.0791
     17 N          -2.6590   -2.0651   -0.0358 N.ar    1  LIG1       -0.3500
     18 H          -1.9396   -2.7612    0.0808 H       1  LIG1        0.1661
     19 C          -3.9257    1.2943   -0.1107 C.1     1  LIG1       -0.0664
     20 C          -4.1230    2.4826   -0.0799 C.1     1  LIG1       -0.1138
     21 H          -4.3127    3.5302   -0.0317 H       1  LIG1        0.1232
     22 S          -6.3342   -0.8433   -0.8067 S.3     1  LIG1       -0.1393
     23 H          -6.8715   -1.7237    0.0583 H       1  LIG1        0.1072
     24 C          -4.4283   -3.7119   -0.5050 C.ar    1  LIG1        0.0807
     25 C          -5.4653   -4.4253    0.0778 C.ar    1  LIG1        0.0645
     26 C          -5.4361   -5.7445   -0.4772 C.ar    1  LIG1        0.0381
     27 C          -4.3910   -5.7934   -1.3596 C.ar    1  LIG1        0.0167
     28 N          -3.7802   -4.5627   -1.3589 N.ar    1  LIG1       -0.3575
     29 H          -3.0855   -4.2653   -2.0252 H       1  LIG1        0.1654
     30 H          -4.0349   -6.5985   -1.9828 H       1  LIG1        0.0818
     31 C          -6.3569   -3.9504    1.0740 C.1     1  LIG1       -0.0664
     32 C          -7.1246   -3.5562    1.9156 C.1     1  LIG1       -0.1138
     33 H          -7.7941   -3.2180    2.6728 H       1  LIG1        0.1232
     34 S          -6.5682   -7.0167   -0.0123 S.3     1  LIG1       -0.1400
     35 H          -6.1473   -7.9179   -0.9146 H       1  LIG1        0.1072
@<TRIPOS>BOND
     1    29    28    1
     2    30    27    1
     3    11    12    1
     4    11     3    1
     5    27    28   ar
     6    27    26   ar
     7    28    24   ar
     8    35    34    1
     9    22    15    1
    10    22    23    1
    11    24    16    1
    12    24    25   ar
    13    26    34    1
    14    26    25   ar
    15    15    16   ar
    16    15    14   ar
    17    10     9    1
    18    16    17   ar
    19     3     4   ar
    20     3     2   ar
    21    14    19    1
    22    14    13   ar
    23    19    20    3
    24     9     8    3
    25    20    21    1
    26    17    13   ar
    27    17    18    1
    28    13     4    1
    29    25    31    1
    30     8     2    1
    31     4     5   ar
    32     2     1   ar
    33    31    32    3
    34     5     1   ar
    35     5     6    1
    36     1     7    1
    37    32    33    1
