@<TRIPOS>MOLECULE
mol_data/opt/cam/geoms/mol2/13eg13eg-13eg-13eg.out
 46 49 0 0 0
SMALL
GASTEIGER

@<TRIPOS>ATOM
      1 C           1.2043   -0.2690    0.4930 C.ar    1  LIG1        0.0188
      2 C           0.7399    0.8834    1.0888 C.ar    1  LIG1        0.0557
      3 C          -0.6833    0.9024    0.9177 C.ar    1  LIG1        0.0469
      4 C          -1.0286   -0.2408    0.2242 C.ar    1  LIG1        0.0787
      5 N           0.1378   -0.9420   -0.0162 N.ar    1  LIG1       -0.3575
      6 H           0.1970   -1.7401   -0.6272 H       1  LIG1        0.1654
      7 H           2.2134   -0.6375    0.3968 H       1  LIG1        0.0820
      8 C           1.5359    1.8514    1.7596 C.1     1  LIG1       -0.0671
      9 C           2.2133    2.6676    2.3283 C.1     1  LIG1       -0.1138
     10 H           2.8063    3.3953    2.8320 H       1  LIG1        0.1232
     11 S          -1.7442    2.1207    1.6274 S.3     1  LIG1       -0.1394
     12 H          -2.5095    2.3292    0.5397 H       1  LIG1        0.1072
     13 C          -2.3103   -0.7791   -0.1932 C.ar    1  LIG1        0.0811
     14 C          -3.3778   -0.2053   -0.8638 C.ar    1  LIG1        0.0652
     15 C          -4.3964   -1.2064   -0.9916 C.ar    1  LIG1        0.0476
     16 C          -3.9154   -2.3585   -0.4099 C.ar    1  LIG1        0.0791
     17 N          -2.6390   -2.0893    0.0518 N.ar    1  LIG1       -0.3500
     18 H          -2.1786   -2.6426    0.7591 H       1  LIG1        0.1661
     19 C          -3.4179    1.1110   -1.3930 C.1     1  LIG1       -0.0664
     20 C          -3.4481    2.2297   -1.8397 C.1     1  LIG1       -0.1138
     21 H          -3.4762    3.2112   -2.2540 H       1  LIG1        0.1232
     22 S          -5.8999   -0.9777   -1.8867 S.3     1  LIG1       -0.1393
     23 H          -6.7204   -1.5130   -0.9627 H       1  LIG1        0.1072
     24 C          -4.4882   -3.6854   -0.2688 C.ar    1  LIG1        0.0811
     25 C          -5.7051   -4.1123    0.2442 C.ar    1  LIG1        0.0652
     26 C          -5.7260   -5.5412    0.1709 C.ar    1  LIG1        0.0476
     27 C          -4.5250   -5.9436   -0.3759 C.ar    1  LIG1        0.0791
     28 N          -3.7879   -4.8053   -0.6243 N.ar    1  LIG1       -0.3500
     29 H          -2.8588   -4.7994   -1.0137 H       1  LIG1        0.1661
     30 C          -6.7200   -3.2740    0.7747 C.1     1  LIG1       -0.0664
     31 C          -7.5800   -2.5548    1.2164 C.1     1  LIG1       -0.1138
     32 H          -8.3353   -1.9294    1.6341 H       1  LIG1        0.1232
     33 S          -7.1116   -6.5403    0.6150 S.3     1  LIG1       -0.1393
     34 H          -6.4333   -7.4424    1.3485 H       1  LIG1        0.1072
     35 C          -4.0066   -7.2558   -0.7235 C.ar    1  LIG1        0.0807
     36 C          -3.8669   -8.4120    0.0296 C.ar    1  LIG1        0.0645
     37 C          -3.2831   -9.4039   -0.8216 C.ar    1  LIG1        0.0381
     38 C          -3.0803   -8.8243   -2.0448 C.ar    1  LIG1        0.0167
     39 N          -3.5089   -7.5209   -1.9709 N.ar    1  LIG1       -0.3575
     40 H          -3.6305   -6.9103   -2.7630 H       1  LIG1        0.1654
     41 H          -2.6685   -9.2310   -2.9550 H       1  LIG1        0.0818
     42 C          -4.1970   -8.5664    1.4008 C.1     1  LIG1       -0.0664
     43 C          -4.4802   -8.7111    2.5635 C.1     1  LIG1       -0.1138
     44 H          -4.7120   -8.8385    3.5960 H       1  LIG1        0.1232
     45 S          -2.8985  -11.0395   -0.2807 S.3     1  LIG1       -0.1400
     46 H          -2.5516  -11.5113   -1.4892 H       1  LIG1        0.1072
@<TRIPOS>BOND
     1    41    38    1
     2    40    39    1
     3    21    20    1
     4    38    39   ar
     5    38    37   ar
     6    39    35   ar
     7    22    15    1
     8    22    23    1
     9    20    19    3
    10    46    45    1
    11    19    14    1
    12    29    28    1
    13    15    14   ar
    14    15    16   ar
    15    14    13   ar
    16    37    45    1
    17    37    36   ar
    18    35    27    1
    19    35    36   ar
    20     6     5    1
    21    28    27   ar
    22    28    24   ar
    23    16    24    1
    24    16    17   ar
    25    27    26   ar
    26    24    25   ar
    27    13    17   ar
    28    13     4    1
    29     5     4   ar
    30     5     1   ar
    31    36    42    1
    32    17    18    1
    33    26    25   ar
    34    26    33    1
    35     4     3   ar
    36    25    30    1
    37     7     1    1
    38     1     2   ar
    39    12    11    1
    40    33    34    1
    41    30    31    3
    42     3     2   ar
    43     3    11    1
    44     2     8    1
    45    31    32    1
    46    42    43    3
    47     8     9    3
    48     9    10    1
    49    43    44    1
