@<TRIPOS>MOLECULE
mol_data/opt/cam/geoms/mol2/13eg13eg-13eg13eg.out
 46 49 0 0 0
SMALL
GASTEIGER

@<TRIPOS>ATOM
      1 C           1.2167   -0.1048    0.2184 C.ar    1  LIG1        0.0188
      2 C           0.8013    1.0834   -0.3423 C.ar    1  LIG1        0.0557
      3 C          -0.6311    1.0484   -0.3907 C.ar    1  LIG1        0.0469
      4 C          -1.0304   -0.1614    0.1411 C.ar    1  LIG1        0.0787
      5 N           0.1137   -0.8504    0.4971 N.ar    1  LIG1       -0.3575
      6 H           0.1108   -1.6921    1.0500 H       1  LIG1        0.1654
      7 H           2.2138   -0.4518    0.4391 H       1  LIG1        0.0820
      8 C           1.6494    2.1289   -0.7985 C.1     1  LIG1       -0.0671
      9 C           2.3709    3.0110   -1.1856 C.1     1  LIG1       -0.1138
     10 H           3.0026    3.7976   -1.5281 H       1  LIG1        0.1232
     11 S          -1.6237    2.2986   -1.1428 S.3     1  LIG1       -0.1394
     12 H          -2.5505    2.3812   -0.1699 H       1  LIG1        0.1072
     13 C          -2.3377   -0.7691    0.3104 C.ar    1  LIG1        0.0811
     14 C          -3.5108   -0.2923    0.8709 C.ar    1  LIG1        0.0652
     15 C          -4.4981   -1.3256    0.7558 C.ar    1  LIG1        0.0476
     16 C          -3.8959   -2.4013    0.1375 C.ar    1  LIG1        0.0791
     17 N          -2.5778   -2.0547   -0.1045 N.ar    1  LIG1       -0.3500
     18 H          -1.9991   -2.5249   -0.7837 H       1  LIG1        0.1661
     19 C          -3.6754    0.9650    1.5086 C.1     1  LIG1       -0.0664
     20 C          -3.8102    2.0350    2.0459 C.1     1  LIG1       -0.1138
     21 H          -3.9337    2.9710    2.5404 H       1  LIG1        0.1232
     22 S          -6.1070   -1.2150    1.4698 S.3     1  LIG1       -0.1393
     23 H          -6.7851   -1.7399    0.4318 H       1  LIG1        0.1072
     24 C          -4.3779   -3.7240   -0.2108 C.ar    1  LIG1        0.0811
     25 C          -5.5377   -4.1507   -0.8381 C.ar    1  LIG1        0.0652
     26 C          -5.4890   -5.5817   -0.9106 C.ar    1  LIG1        0.0476
     27 C          -4.2995   -5.9817   -0.3418 C.ar    1  LIG1        0.0791
     28 N          -3.6274   -4.8409    0.0588 N.ar    1  LIG1       -0.3500
     29 H          -2.8825   -4.8501    0.7388 H       1  LIG1        0.1661
     30 C          -6.5460   -3.3160   -1.3859 C.1     1  LIG1       -0.0664
     31 C          -7.4007   -2.6048   -1.8506 C.1     1  LIG1       -0.1138
     32 H          -8.1495   -1.9825   -2.2843 H       1  LIG1        0.1232
     33 S          -6.6957   -6.5636   -1.7430 S.3     1  LIG1       -0.1393
     34 H          -6.8092   -7.5166   -0.7989 H       1  LIG1        0.1072
     35 C          -3.6980   -7.2904   -0.1606 C.ar    1  LIG1        0.0807
     36 C          -4.2018   -8.4666    0.3764 C.ar    1  LIG1        0.0645
     37 C          -3.1562   -9.4427    0.3140 C.ar    1  LIG1        0.0381
     38 C          -2.0620   -8.8352   -0.2394 C.ar    1  LIG1        0.0167
     39 N          -2.3962   -7.5298   -0.5097 N.ar    1  LIG1       -0.3575
     40 H          -1.8404   -6.8955   -1.0598 H       1  LIG1        0.1654
     41 H          -1.0797   -9.2226   -0.4594 H       1  LIG1        0.0818
     42 C          -5.4915   -8.6539    0.9365 C.1     1  LIG1       -0.0664
     43 C          -6.5861   -8.8282    1.4102 C.1     1  LIG1       -0.1138
     44 H          -7.5451   -8.9783    1.8505 H       1  LIG1        0.1232
     45 S          -3.3375  -11.0945    0.9090 S.3     1  LIG1       -0.1400
     46 H          -2.1537  -11.5389    0.4564 H       1  LIG1        0.1072
@<TRIPOS>BOND
     1    32    31    1
     2    31    30    3
     3    33    26    1
     4    33    34    1
     5    10     9    1
     6    30    25    1
     7     9     8    3
     8    11     3    1
     9    11    12    1
    10    40    39    1
    11    26    25   ar
    12    26    27   ar
    13    25    24   ar
    14     8     2    1
    15    18    17    1
    16    39    38   ar
    17    39    35   ar
    18    41    38    1
    19     3     2   ar
    20     3     4   ar
    21     2     1   ar
    22    27    35    1
    23    27    28   ar
    24    38    37   ar
    25    24    28   ar
    26    24    16    1
    27    35    36   ar
    28    17    16   ar
    29    17    13   ar
    30    28    29    1
    31    16    15   ar
    32     4    13    1
    33     4     5   ar
    34     1     7    1
    35     1     5   ar
    36    13    14   ar
    37    37    36   ar
    38    37    45    1
    39    36    42    1
    40    23    22    1
    41    46    45    1
    42     5     6    1
    43    15    14   ar
    44    15    22    1
    45    14    19    1
    46    42    43    3
    47    43    44    1
    48    19    20    3
    49    20    21    1
