@<TRIPOS>MOLECULE
mol_data/opt/cam/geoms/mol2/13eg13eg13eg13eg.out
 46 49 0 0 0
SMALL
GASTEIGER

@<TRIPOS>ATOM
      1 C           1.2102   -0.0989    0.2322 C.ar    1  LIG1        0.0188
      2 C           0.7954    1.0921   -0.3230 C.ar    1  LIG1        0.0557
      3 C          -0.6367    1.0550   -0.3784 C.ar    1  LIG1        0.0469
      4 C          -1.0365   -0.1588    0.1440 C.ar    1  LIG1        0.0787
      5 N           0.1071   -0.8481    0.5011 N.ar    1  LIG1       -0.3575
      6 H           0.1031   -1.6932    1.0486 H       1  LIG1        0.1654
      7 H           2.2068   -0.4457    0.4554 H       1  LIG1        0.0820
      8 C           1.6438    2.1418   -0.7687 C.1     1  LIG1       -0.0671
      9 C           2.3656    3.0275   -1.1469 C.1     1  LIG1       -0.1138
     10 H           2.9975    3.8172   -1.4816 H       1  LIG1        0.1232
     11 S          -1.6279    2.3082   -1.1273 S.3     1  LIG1       -0.1394
     12 H          -2.5594    2.3832   -0.1583 H       1  LIG1        0.1072
     13 C          -2.3435   -0.7697    0.3033 C.ar    1  LIG1        0.0811
     14 C          -3.5200   -0.2984    0.8613 C.ar    1  LIG1        0.0652
     15 C          -4.5050   -1.3325    0.7351 C.ar    1  LIG1        0.0476
     16 C          -3.8981   -2.4033    0.1129 C.ar    1  LIG1        0.0791
     17 N          -2.5795   -2.0530   -0.1208 N.ar    1  LIG1       -0.3500
     18 H          -1.9968   -2.5180   -0.8003 H       1  LIG1        0.1661
     19 C          -3.6897    0.9546    1.5061 C.1     1  LIG1       -0.0664
     20 C          -3.8289    2.0210    2.0495 C.1     1  LIG1       -0.1138
     21 H          -3.9562    2.9537    2.5493 H       1  LIG1        0.1232
     22 S          -6.1175   -1.2291    1.4422 S.3     1  LIG1       -0.1393
     23 H          -6.7898   -1.7486    0.3978 H       1  LIG1        0.1072
     24 C          -4.3763   -3.7246   -0.2459 C.ar    1  LIG1        0.0811
     25 C          -5.5325   -4.1492   -0.8813 C.ar    1  LIG1        0.0652
     26 C          -5.4809   -5.5798   -0.9625 C.ar    1  LIG1        0.0476
     27 C          -4.2934   -5.9813   -0.3908 C.ar    1  LIG1        0.0791
     28 N          -3.6252   -4.8419    0.0202 N.ar    1  LIG1       -0.3500
     29 H          -2.8835   -4.8541    0.7036 H       1  LIG1        0.1661
     30 C          -6.5396   -3.3128   -1.4286 C.1     1  LIG1       -0.0664
     31 C          -7.3933   -2.6002   -1.8928 C.1     1  LIG1       -0.1138
     32 H          -8.1412   -1.9764   -2.3261 H       1  LIG1        0.1232
     33 S          -6.6821   -6.5584   -1.8067 S.3     1  LIG1       -0.1393
     34 H          -6.7982   -7.5175   -0.8691 H       1  LIG1        0.1072
     35 C          -3.6906   -7.2901   -0.2149 C.ar    1  LIG1        0.0807
     36 C          -4.1949   -8.4705    0.3123 C.ar    1  LIG1        0.0645
     37 C          -3.1473   -9.4444    0.2486 C.ar    1  LIG1        0.0381
     38 C          -2.0516   -8.8316   -0.2959 C.ar    1  LIG1        0.0167
     39 N          -2.3867   -7.5252   -0.5595 N.ar    1  LIG1       -0.3575
     40 H          -1.8295   -6.8864   -1.1030 H       1  LIG1        0.1654
     41 H          -1.0676   -9.2160   -0.5137 H       1  LIG1        0.0818
     42 C          -5.4868   -8.6635    0.8652 C.1     1  LIG1       -0.0664
     43 C          -6.5833   -8.8426    1.3326 C.1     1  LIG1       -0.1138
     44 H          -7.5441   -8.9971    1.7675 H       1  LIG1        0.1232
     45 S          -3.3285  -11.1003    0.8324 S.3     1  LIG1       -0.1400
     46 H          -2.1421  -11.5399    0.3821 H       1  LIG1        0.1072
@<TRIPOS>BOND
     1    32    31    1
     2    31    30    3
     3    33    26    1
     4    33    34    1
     5    10     9    1
     6    30    25    1
     7     9     8    3
     8    11     3    1
     9    11    12    1
    10    40    39    1
    11    26    25   ar
    12    26    27   ar
    13    25    24   ar
    14    18    17    1
    15     8     2    1
    16    39    38   ar
    17    39    35   ar
    18    41    38    1
    19    27    35    1
    20    27    28   ar
    21     3     2   ar
    22     3     4   ar
    23     2     1   ar
    24    38    37   ar
    25    24    28   ar
    26    24    16    1
    27    35    36   ar
    28    17    16   ar
    29    17    13   ar
    30    28    29    1
    31    16    15   ar
    32     4    13    1
    33     4     5   ar
    34     1     7    1
    35     1     5   ar
    36    37    36   ar
    37    37    45    1
    38    13    14   ar
    39    36    42    1
    40    46    45    1
    41    23    22    1
    42     5     6    1
    43    15    14   ar
    44    15    22    1
    45    14    19    1
    46    42    43    3
    47    43    44    1
    48    19    20    3
    49    20    21    1
