@<TRIPOS>MOLECULE
mol_data/opt/cam/geoms/mol2/13eg13eg-13eg-13eg-.out
 46 49 0 0 0
SMALL
GASTEIGER

@<TRIPOS>ATOM
      1 C           1.2080   -0.0960   -0.2584 C.ar    1  LIG1        0.0188
      2 C           0.8005    1.0855    0.3219 C.ar    1  LIG1        0.0557
      3 C          -0.6308    1.0478    0.3940 C.ar    1  LIG1        0.0469
      4 C          -1.0374   -0.1569   -0.1439 C.ar    1  LIG1        0.0787
      5 N           0.1015   -0.8403   -0.5265 N.ar    1  LIG1       -0.3575
      6 H           0.0905   -1.6760   -1.0882 H       1  LIG1        0.1654
      7 H           2.2017   -0.4391   -0.4995 H       1  LIG1        0.0820
      8 C           1.6547    2.1274    0.7749 C.1     1  LIG1       -0.0671
      9 C           2.3814    3.0065    1.1593 C.1     1  LIG1       -0.1138
     10 H           3.0176    3.7903    1.4995 H       1  LIG1        0.1232
     11 S          -1.6124    2.2883    1.1761 S.3     1  LIG1       -0.1394
     12 H          -2.5555    2.3798    0.2199 H       1  LIG1        0.1072
     13 C          -2.3465   -0.7648   -0.2976 C.ar    1  LIG1        0.0811
     14 C          -3.5295   -0.2839   -0.8332 C.ar    1  LIG1        0.0652
     15 C          -4.5133   -1.3199   -0.7126 C.ar    1  LIG1        0.0476
     16 C          -3.8993   -2.4011   -0.1159 C.ar    1  LIG1        0.0791
     17 N          -2.5779   -2.0551    0.1076 N.ar    1  LIG1       -0.3500
     18 H          -1.9871   -2.5316    0.7719 H       1  LIG1        0.1661
     19 C          -3.7066    0.9799   -1.4546 C.1     1  LIG1       -0.0664
     20 C          -3.8519    2.0553   -1.9782 C.1     1  LIG1       -0.1138
     21 H          -3.9849    2.9964   -2.4605 H       1  LIG1        0.1232
     22 S          -6.1342   -1.2042   -1.3982 S.3     1  LIG1       -0.1393
     23 H          -6.7940   -1.7412   -0.3546 H       1  LIG1        0.1072
     24 C          -4.3736   -3.7283    0.2262 C.ar    1  LIG1        0.0811
     25 C          -5.5221   -4.1633    0.8684 C.ar    1  LIG1        0.0652
     26 C          -5.4701   -5.5950    0.9248 C.ar    1  LIG1        0.0476
     27 C          -4.2899   -5.9870    0.3319 C.ar    1  LIG1        0.0791
     28 N          -3.6262   -4.8410   -0.0679 N.ar    1  LIG1       -0.3500
     29 H          -2.8929   -4.8418   -0.7604 H       1  LIG1        0.1661
     30 C          -6.5222   -3.3361    1.4420 C.1     1  LIG1       -0.0664
     31 C          -7.3699   -2.6312    1.9285 C.1     1  LIG1       -0.1138
     32 H          -8.1122   -2.0147    2.3813 H       1  LIG1        0.1232
     33 S          -6.6614   -6.5876    1.7667 S.3     1  LIG1       -0.1393
     34 H          -6.7893   -7.5307    0.8145 H       1  LIG1        0.1072
     35 C          -3.6898   -7.2929    0.1266 C.ar    1  LIG1        0.0807
     36 C          -4.2009   -8.4640   -0.4144 C.ar    1  LIG1        0.0645
     37 C          -3.1530   -9.4391   -0.3799 C.ar    1  LIG1        0.0381
     38 C          -2.0506   -8.8358    0.1615 C.ar    1  LIG1        0.0167
     39 N          -2.3819   -7.5339    0.4512 N.ar    1  LIG1       -0.3575
     40 H          -1.8178   -6.9046    0.9987 H       1  LIG1        0.1654
     41 H          -1.0641   -9.2240    0.3608 H       1  LIG1        0.0818
     42 C          -5.4995   -8.6474   -0.9546 C.1     1  LIG1       -0.0664
     43 C          -6.6018   -8.8183   -1.4117 C.1     1  LIG1       -0.1138
     44 H          -7.5678   -8.9653   -1.8374 H       1  LIG1        0.1232
     45 S          -3.3420  -11.0848   -0.9894 S.3     1  LIG1       -0.1400
     46 H          -2.1503  -11.5322   -0.5611 H       1  LIG1        0.1072
@<TRIPOS>BOND
     1    21    20    1
     2    20    19    3
     3    44    43    1
     4    19    14    1
     5    43    42    3
     6    22    15    1
     7    22    23    1
     8     6     5    1
     9    45    46    1
    10    45    37    1
    11    42    36    1
    12    14    15   ar
    13    14    13   ar
    14    29    28    1
    15    15    16   ar
    16     5     1   ar
    17     5     4   ar
    18     7     1    1
    19    36    37   ar
    20    36    35   ar
    21    37    38   ar
    22    13     4    1
    23    13    17   ar
    24     1     2   ar
    25     4     3   ar
    26    16    17   ar
    27    16    24    1
    28    28    24   ar
    29    28    27   ar
    30    17    18    1
    31    35    27    1
    32    35    39   ar
    33    38    41    1
    34    38    39   ar
    35    12    11    1
    36    24    25   ar
    37     2     3   ar
    38     2     8    1
    39    27    26   ar
    40     3    11    1
    41    39    40    1
    42     8     9    3
    43    34    33    1
    44    25    26   ar
    45    25    30    1
    46    26    33    1
    47     9    10    1
    48    30    31    3
    49    31    32    1
