@<TRIPOS>MOLECULE
mol_data/opt/cam/geoms/mol2/13eg13eg-13eg-.out
 35 37 0 0 0
SMALL
GASTEIGER

@<TRIPOS>ATOM
      1 C           1.1798   -0.1461   -0.4067 C.ar    1  LIG1        0.0188
      2 C           0.8270    0.9207    0.3910 C.ar    1  LIG1        0.0557
      3 C          -0.5982    0.8810    0.5418 C.ar    1  LIG1        0.0469
      4 C          -1.0561   -0.2098   -0.1701 C.ar    1  LIG1        0.0787
      5 N           0.0467   -0.8242   -0.7325 N.ar    1  LIG1       -0.3575
      6 H          -0.0102   -1.5559   -1.4219 H       1  LIG1        0.1654
      7 H           2.1518   -0.4507   -0.7611 H       1  LIG1        0.0820
      8 C           1.7240    1.8627    0.9640 C.1     1  LIG1       -0.0671
      9 C           2.4871    2.6572    1.4489 C.1     1  LIG1       -0.1138
     10 H           3.1558    3.3656    1.8800 H       1  LIG1        0.1232
     11 S          -1.5091    1.9735    1.5861 S.3     1  LIG1       -0.1394
     12 H          -2.5079    2.2349    0.7222 H       1  LIG1        0.1072
     13 C          -2.3818   -0.7741   -0.3467 C.ar    1  LIG1        0.0811
     14 C          -3.5889   -0.1996   -0.7095 C.ar    1  LIG1        0.0652
     15 C          -4.5783   -1.2374   -0.7137 C.ar    1  LIG1        0.0476
     16 C          -3.9443   -2.4106   -0.3660 C.ar    1  LIG1        0.0791
     17 N          -2.6075   -2.1157   -0.1667 N.ar    1  LIG1       -0.3500
     18 H          -1.9831   -2.7097    0.3581 H       1  LIG1        0.1661
     19 C          -3.7863    1.1556   -1.0820 C.1     1  LIG1       -0.0664
     20 C          -3.9492    2.3077   -1.3952 C.1     1  LIG1       -0.1138
     21 H          -4.0989    3.3202   -1.6923 H       1  LIG1        0.1232
     22 S          -6.2445   -1.0017   -1.2447 S.3     1  LIG1       -0.1393
     23 H          -6.8338   -1.6836   -0.2446 H       1  LIG1        0.1072
     24 C          -4.4226   -3.7746   -0.2334 C.ar    1  LIG1        0.0807
     25 C          -5.5108   -4.3063    0.4444 C.ar    1  LIG1        0.0645
     26 C          -5.4857   -5.7232    0.2404 C.ar    1  LIG1        0.0381
     27 C          -4.3929   -6.0062   -0.5327 C.ar    1  LIG1        0.0167
     28 N          -3.7494   -4.8221   -0.8016 N.ar    1  LIG1       -0.3575
     29 H          -3.0018   -4.7107   -1.4668 H       1  LIG1        0.1654
     30 H          -4.0223   -6.9470   -0.9082 H       1  LIG1        0.0818
     31 C          -6.4402   -3.5920    1.2430 C.1     1  LIG1       -0.0664
     32 C          -7.2403   -2.9978    1.9213 C.1     1  LIG1       -0.1138
     33 H          -7.9337   -2.4776    2.5413 H       1  LIG1        0.1232
     34 S          -6.6787   -6.8220    0.9369 S.3     1  LIG1       -0.1400
     35 H          -6.2087   -7.9332    0.3471 H       1  LIG1        0.1072
@<TRIPOS>BOND
     1    21    20    1
     2    29    28    1
     3     6     5    1
     4    20    19    3
     5    22    15    1
     6    22    23    1
     7    19    14    1
     8    30    27    1
     9    28    27   ar
    10    28    24   ar
    11     7     1    1
    12     5     1   ar
    13     5     4   ar
    14    15    14   ar
    15    15    16   ar
    16    14    13   ar
    17    27    26   ar
    18     1     2   ar
    19    16    24    1
    20    16    17   ar
    21    13     4    1
    22    13    17   ar
    23    24    25   ar
    24     4     3   ar
    25    17    18    1
    26    26    25   ar
    27    26    34    1
    28    35    34    1
    29     2     3   ar
    30     2     8    1
    31    25    31    1
    32     3    11    1
    33    12    11    1
    34     8     9    3
    35    31    32    3
    36     9    10    1
    37    32    33    1
