@<TRIPOS>MOLECULE
mol_data/opt/cam/geoms/mol2/13eg.out
 13 13 0 0 0
SMALL
GASTEIGER

@<TRIPOS>ATOM
      1 C           1.1370   -0.4203   -0.0002 C.ar    1  LIG1        0.0183
      2 C           0.7302    0.8980    0.0001 C.ar    1  LIG1        0.0551
      3 C          -0.7028    0.8874    0.0003 C.ar    1  LIG1        0.0375
      4 C          -1.1029   -0.4221    0.0003 C.ar    1  LIG1        0.0161
      5 N           0.0275   -1.2048   -0.0000 N.ar    1  LIG1       -0.3650
      6 H           0.0311   -2.2107   -0.0002 H       1  LIG1        0.1648
      7 H          -2.0900   -0.8569    0.0004 H       1  LIG1        0.0818
      8 H           2.1330   -0.8340   -0.0004 H       1  LIG1        0.0819
      9 C           1.5690    2.0447    0.0001 C.1     1  LIG1       -0.0671
     10 C           2.2633    3.0287    0.0000 C.1     1  LIG1       -0.1138
     11 H           2.8779    3.8988    0.0001 H       1  LIG1        0.1232
     12 S          -1.6855    2.3553    0.0007 S.3     1  LIG1       -0.1400
     13 H          -2.8743    1.7304    0.0007 H       1  LIG1        0.1072
@<TRIPOS>BOND
     1     8     1    1
     2     6     5    1
     3     1     5   ar
     4     1     2   ar
     5     5     4   ar
     6    10     9    3
     7    10    11    1
     8     9     2    1
     9     2     3   ar
    10     4     3   ar
    11     4     7    1
    12     3    12    1
    13    12    13    1
