@<TRIPOS>MOLECULE
mol_data/opt/cam/geoms/mol2/13eh13eh-13eh13eh-.out
 50 53 0 0 0
SMALL
GASTEIGER

@<TRIPOS>ATOM
      1 C           1.3237   -0.3137   -0.0284 C.ar    1  LIG1        0.0195
      2 C           0.9174    1.0009   -0.1518 C.ar    1  LIG1        0.0632
      3 C          -0.5117    0.9890   -0.1941 C.ar    1  LIG1        0.0672
      4 C          -0.9184   -0.3248   -0.0885 C.ar    1  LIG1        0.0863
      5 N           0.2155   -1.0983   -0.0005 N.ar    1  LIG1       -0.3569
      6 H           0.1966   -2.1048    0.0772 H       1  LIG1        0.1655
      7 H           2.3175   -0.7276    0.0370 H       1  LIG1        0.0820
      8 C           1.7358    2.1599   -0.2176 C.1     1  LIG1       -0.0663
      9 C           2.3954    3.1671   -0.2734 C.1     1  LIG1       -0.1138
     10 H           2.9934    4.0473   -0.3236 H       1  LIG1        0.1232
     11 N          -1.3960    2.0947   -0.3162 N.pl3   1  LIG1       -0.3553
     12 H          -1.0047    2.9080    0.1491 H       1  LIG1        0.1424
     13 H          -1.5265    2.3494   -1.2921 H       1  LIG1        0.1424
     14 C          -2.2492   -0.8789   -0.0402 C.ar    1  LIG1        0.0826
     15 C          -2.6885   -2.2005    0.0101 C.ar    1  LIG1        0.0727
     16 C          -4.1145   -2.1605    0.0600 C.ar    1  LIG1        0.0679
     17 C          -4.4950   -0.8335    0.0352 C.ar    1  LIG1        0.0868
     18 N          -3.3486   -0.0771   -0.0187 N.ar    1  LIG1       -0.3493
     19 H          -3.2814    0.9373   -0.0073 H       1  LIG1        0.1661
     20 C          -1.8854   -3.3691    0.0108 C.1     1  LIG1       -0.0656
     21 C          -1.2101   -4.3705    0.0135 C.1     1  LIG1       -0.1138
     22 H          -0.6308   -5.2649    0.0128 H       1  LIG1        0.1232
     23 N          -5.0225   -3.2532    0.1167 N.pl3   1  LIG1       -0.3553
     24 H          -4.7042   -4.0145   -0.4745 H       1  LIG1        0.1424
     25 H          -5.0964   -3.6206    1.0618 H       1  LIG1        0.1424
     26 C          -5.8223   -0.2683    0.0329 C.ar    1  LIG1        0.0826
     27 C          -6.2619    1.0528    0.0660 C.ar    1  LIG1        0.0727
     28 C          -7.6885    1.0139    0.0298 C.ar    1  LIG1        0.0679
     29 C          -8.0696   -0.3122   -0.0233 C.ar    1  LIG1        0.0868
     30 N          -6.9260   -1.0685   -0.0184 N.ar    1  LIG1       -0.3493
     31 H          -6.8567   -2.0817   -0.0756 H       1  LIG1        0.1661
     32 C          -5.4640    2.2225    0.1320 C.1     1  LIG1       -0.0656
     33 C          -4.7986    3.2278    0.1884 C.1     1  LIG1       -0.1138
     34 H          -4.2084    4.1118    0.2544 H       1  LIG1        0.1232
     35 N          -8.5995    2.1134    0.0520 N.pl3   1  LIG1       -0.3553
     36 H          -8.4526    2.6756    0.8865 H       1  LIG1        0.1424
     37 H          -8.4281    2.7294   -0.7387 H       1  LIG1        0.1424
     38 C          -9.4000   -0.8720   -0.0650 C.ar    1  LIG1        0.0821
     39 C          -9.8576   -2.1890   -0.1270 C.ar    1  LIG1        0.0720
     40 C         -11.2877   -2.1350   -0.1441 C.ar    1  LIG1        0.0584
     41 C         -11.6434   -0.8091   -0.0970 C.ar    1  LIG1        0.0243
     42 N         -10.4871   -0.0628   -0.0515 N.ar    1  LIG1       -0.3569
     43 H         -10.3776    0.9453   -0.0107 H       1  LIG1        0.1655
     44 H         -12.6169   -0.3456   -0.0818 H       1  LIG1        0.0826
     45 C          -9.0815   -3.3720   -0.1845 C.1     1  LIG1       -0.0656
     46 C          -8.4452   -4.3967   -0.2453 C.1     1  LIG1       -0.1138
     47 H          -7.8828   -5.2992   -0.2986 H       1  LIG1        0.1232
     48 N         -12.1226   -3.2567   -0.1479 N.pl3   1  LIG1       -0.3559
     49 H         -12.9780   -3.1224   -0.6691 H       1  LIG1        0.1424
     50 H         -11.6406   -4.0864   -0.4693 H       1  LIG1        0.1424
@<TRIPOS>BOND
     1    13    11    1
     2    37    35    1
     3    49    48    1
     4    24    23    1
     5    50    48    1
     6    10     9    1
     7    11     3    1
     8    11    12    1
     9    47    46    1
    10     9     8    3
    11    46    45    3
    12     8     2    1
    13     3     2   ar
    14     3     4   ar
    15    45    39    1
    16     2     1   ar
    17    48    40    1
    18    40    39   ar
    19    40    41   ar
    20    39    38   ar
    21    41    44    1
    22    41    42   ar
    23     4    14    1
    24     4     5   ar
    25    31    30    1
    26    38    42   ar
    27    38    29    1
    28    42    43    1
    29    14    18   ar
    30    14    15   ar
    31     1     5   ar
    32     1     7    1
    33    29    30   ar
    34    29    28   ar
    35    18    19    1
    36    18    17   ar
    37    30    26   ar
    38     5     6    1
    39    15    20    1
    40    15    16   ar
    41    20    21    3
    42    22    21    1
    43    28    35    1
    44    28    27   ar
    45    26    17    1
    46    26    27   ar
    47    17    16   ar
    48    35    36    1
    49    16    23    1
    50    27    32    1
    51    23    25    1
    52    32    33    3
    53    33    34    1
