@<TRIPOS>MOLECULE
mol_data/opt/cam/geoms/mol2/13eh13eh-.out
 26 27 0 0 0
SMALL
GASTEIGER

@<TRIPOS>ATOM
      1 C           1.1907   -0.3109   -0.0356 C.ar    1  LIG1        0.0195
      2 C           0.7795    1.0065   -0.0713 C.ar    1  LIG1        0.0632
      3 C          -0.6514    0.9915   -0.0762 C.ar    1  LIG1        0.0672
      4 C          -1.0520   -0.3274   -0.0444 C.ar    1  LIG1        0.0863
      5 N           0.0825   -1.0997   -0.0184 N.ar    1  LIG1       -0.3569
      6 H           0.0647   -2.1091    0.0077 H       1  LIG1        0.1655
      7 H           2.1861   -0.7257   -0.0216 H       1  LIG1        0.0820
      8 C           1.5978    2.1675   -0.1003 C.1     1  LIG1       -0.0663
      9 C           2.2602    3.1739   -0.1263 C.1     1  LIG1       -0.1138
     10 H           2.8590    4.0546   -0.1482 H       1  LIG1        0.1232
     11 N          -1.5522    2.0990   -0.1061 N.pl3   1  LIG1       -0.3553
     12 H          -1.4288    2.6752    0.7228 H       1  LIG1        0.1424
     13 H          -1.3435    2.6991   -0.8999 H       1  LIG1        0.1424
     14 C          -2.3836   -0.8856   -0.0404 C.ar    1  LIG1        0.0821
     15 C          -2.8312   -2.2067   -0.0087 C.ar    1  LIG1        0.0720
     16 C          -4.2620   -2.1640   -0.0323 C.ar    1  LIG1        0.0584
     17 C          -4.6252   -0.8400   -0.0808 C.ar    1  LIG1        0.0243
     18 N          -3.4729   -0.0842   -0.0846 N.ar    1  LIG1       -0.3569
     19 H          -3.3696    0.9246   -0.1217 H       1  LIG1        0.1655
     20 H          -5.6015   -0.3828   -0.0996 H       1  LIG1        0.0826
     21 C          -2.0339   -3.3772    0.0279 C.1     1  LIG1       -0.0656
     22 C          -1.3632   -4.3824    0.0493 C.1     1  LIG1       -0.1138
     23 H          -0.7883   -5.2787    0.0826 H       1  LIG1        0.1232
     24 N          -5.0901   -3.2867    0.0458 N.pl3   1  LIG1       -0.3559
     25 H          -5.9637   -3.1822   -0.4513 H       1  LIG1        0.1424
     26 H          -4.6180   -4.1335   -0.2428 H       1  LIG1        0.1424
@<TRIPOS>BOND
     1    13    11    1
     2    25    24    1
     3    26    24    1
     4    10     9    1
     5     9     8    3
     6    19    18    1
     7    11     3    1
     8    11    12    1
     9     8     2    1
    10    20    17    1
    11    18    17   ar
    12    18    14   ar
    13    17    16   ar
    14     3     2   ar
    15     3     4   ar
    16     2     1   ar
    17     4    14    1
    18     4     5   ar
    19    14    15   ar
    20     1     7    1
    21     1     5   ar
    22    16    15   ar
    23    16    24    1
    24     5     6    1
    25    15    21    1
    26    21    22    3
    27    22    23    1
