@<TRIPOS>MOLECULE
mol_data/opt/cam/geoms/mol2/13eh13eh13eh13eh.out
 50 53 0 0 0
SMALL
GASTEIGER

@<TRIPOS>ATOM
      1 C           0.6717    0.0129   -1.9827 C.ar    1  LIG1        0.0195
      2 C           0.8077    0.9097   -0.9439 C.ar    1  LIG1        0.0632
      3 C          -0.3784    0.8190   -0.1406 C.ar    1  LIG1        0.0672
      4 C          -1.1942   -0.1311   -0.7259 C.ar    1  LIG1        0.0863
      5 N          -0.5145   -0.6283   -1.8389 N.ar    1  LIG1       -0.3569
      6 H          -0.9630   -1.1529   -2.5722 H       1  LIG1        0.1655
      7 H           1.3357   -0.1892   -2.8086 H       1  LIG1        0.0820
      8 C           1.9051    1.7699   -0.6778 C.1     1  LIG1       -0.0663
      9 C           2.8094    2.5228   -0.4160 C.1     1  LIG1       -0.1138
     10 H           3.6202    3.1780   -0.1965 H       1  LIG1        0.1232
     11 N          -0.5712    1.4987    1.0490 N.pl3   1  LIG1       -0.3553
     12 H           0.0755    2.2662    1.1698 H       1  LIG1        0.1424
     13 H          -1.5284    1.7692    1.2359 H       1  LIG1        0.1424
     14 C          -2.4618   -0.6890   -0.3156 C.ar    1  LIG1        0.0826
     15 C          -3.5958   -0.0899    0.2278 C.ar    1  LIG1        0.0727
     16 C          -4.5830   -1.1094    0.4230 C.ar    1  LIG1        0.0679
     17 C          -4.0360   -2.3000   -0.0167 C.ar    1  LIG1        0.0868
     18 N          -2.7420   -2.0136   -0.4537 N.ar    1  LIG1       -0.3493
     19 H          -2.1049   -2.6902   -0.8394 H       1  LIG1        0.1661
     20 C          -3.7908    1.2861    0.5000 C.1     1  LIG1       -0.0656
     21 C          -3.9860    2.4514    0.7496 C.1     1  LIG1       -0.1138
     22 H          -4.1682    3.4845    0.9365 H       1  LIG1        0.1232
     23 N          -5.8136   -0.9047    1.0210 N.pl3   1  LIG1       -0.3553
     24 H          -6.0707    0.0716    1.0691 H       1  LIG1        0.1424
     25 H          -6.5636   -1.4817    0.6623 H       1  LIG1        0.1424
     26 C          -4.5395   -3.6529    0.0082 C.ar    1  LIG1        0.0826
     27 C          -5.8025   -4.1665   -0.2785 C.ar    1  LIG1        0.0727
     28 C          -5.7502   -5.5883   -0.1116 C.ar    1  LIG1        0.0679
     29 C          -4.4579   -5.9105    0.2566 C.ar    1  LIG1        0.0868
     30 N          -3.7451   -4.7132    0.3223 N.ar    1  LIG1       -0.3493
     31 H          -2.7829   -4.6429    0.6085 H       1  LIG1        0.1661
     32 C          -6.9408   -3.4448   -0.7130 C.1     1  LIG1       -0.0656
     33 C          -7.9311   -2.8570   -1.0770 C.1     1  LIG1       -0.1138
     34 H          -8.7937   -2.3405   -1.4294 H       1  LIG1        0.1232
     35 N          -6.8393   -6.4329   -0.2348 N.pl3   1  LIG1       -0.3553
     36 H          -7.6202   -6.0018   -0.7099 H       1  LIG1        0.1424
     37 H          -6.6276   -7.3520   -0.6014 H       1  LIG1        0.1424
     38 C          -3.8454   -7.1673    0.6194 C.ar    1  LIG1        0.0821
     39 C          -3.9894   -8.4445    0.0881 C.ar    1  LIG1        0.0720
     40 C          -3.1544   -9.3297    0.8509 C.ar    1  LIG1        0.0584
     41 C          -2.5233   -8.5723    1.7996 C.ar    1  LIG1        0.0243
     42 N          -2.9351   -7.2569    1.6338 N.ar    1  LIG1       -0.3569
     43 H          -2.8258   -6.5441    2.3365 H       1  LIG1        0.1655
     44 H          -1.8167   -8.8478    2.5658 H       1  LIG1        0.0826
     45 C          -4.7508   -8.8220   -1.0446 C.1     1  LIG1       -0.0656
     46 C          -5.3946   -9.1762   -2.0032 C.1     1  LIG1       -0.1138
     47 H          -5.9415   -9.4802   -2.8655 H       1  LIG1        0.1232
     48 N          -3.0697  -10.7046    0.6368 N.pl3   1  LIG1       -0.3559
     49 H          -3.3639  -10.9724   -0.2931 H       1  LIG1        0.1424
     50 H          -2.1699  -11.1042    0.8616 H       1  LIG1        0.1424
@<TRIPOS>BOND
     1    47    46    1
     2     7     1    1
     3     6     5    1
     4    46    45    3
     5     1     5   ar
     6     1     2   ar
     7     5     4   ar
     8    34    33    1
     9    33    32    3
    10    45    39    1
    11     2     8    1
    12     2     3   ar
    13    19    18    1
    14     4    14    1
    15     4     3   ar
    16    32    27    1
    17    36    35    1
    18     8     9    3
    19    37    35    1
    20    18    14   ar
    21    18    17   ar
    22     9    10    1
    23    14    15   ar
    24    49    48    1
    25    27    28   ar
    26    27    26   ar
    27    35    28    1
    28     3    11    1
    29    28    29   ar
    30    17    26    1
    31    17    16   ar
    32    26    30   ar
    33    39    38   ar
    34    39    40   ar
    35    15    16   ar
    36    15    20    1
    37    29    30   ar
    38    29    38    1
    39    30    31    1
    40    16    23    1
    41    20    21    3
    42    38    42   ar
    43    48    40    1
    44    48    50    1
    45    25    23    1
    46    21    22    1
    47    40    41   ar
    48    23    24    1
    49    11    12    1
    50    11    13    1
    51    42    41   ar
    52    42    43    1
    53    41    44    1
