@<TRIPOS>MOLECULE
mol_data/opt/cam/geoms/mol2/13eh13eh13eh.out
 38 40 0 0 0
SMALL
GASTEIGER

@<TRIPOS>ATOM
      1 C           1.0001   -0.1651   -1.2594 C.ar    1  LIG1        0.0195
      2 C           0.8842    0.9268   -0.4247 C.ar    1  LIG1        0.0632
      3 C          -0.4475    0.9183    0.1108 C.ar    1  LIG1        0.0672
      4 C          -1.0936   -0.1808   -0.4235 C.ar    1  LIG1        0.0863
      5 N          -0.1748   -0.8417   -1.2398 N.ar    1  LIG1       -0.3569
      6 H          -0.4390   -1.5334   -1.9222 H       1  LIG1        0.1655
      7 H           1.8343   -0.4827   -1.8652 H       1  LIG1        0.0820
      8 C           1.8773    1.8934   -0.1177 C.1     1  LIG1       -0.0663
      9 C           2.6857    2.7415    0.1664 C.1     1  LIG1       -0.1138
     10 H           3.4140    3.4793    0.4110 H       1  LIG1        0.1232
     11 N          -0.9125    1.8057    1.0650 N.pl3   1  LIG1       -0.3553
     12 H          -0.3266    2.6244    1.1564 H       1  LIG1        0.1424
     13 H          -1.8935    2.0418    0.9863 H       1  LIG1        0.1424
     14 C          -2.4092   -0.7285   -0.1870 C.ar    1  LIG1        0.0826
     15 C          -3.6474   -0.1096   -0.0311 C.ar    1  LIG1        0.0727
     16 C          -4.6315   -1.1335    0.1582 C.ar    1  LIG1        0.0679
     17 C          -3.9761   -2.3485    0.0982 C.ar    1  LIG1        0.0868
     18 N          -2.6252   -2.0696   -0.1092 N.ar    1  LIG1       -0.3493
     19 H          -1.9040   -2.7679   -0.1776 H       1  LIG1        0.1661
     20 C          -3.9262    1.2772   -0.0968 C.1     1  LIG1       -0.0656
     21 C          -4.1960    2.4536   -0.1401 C.1     1  LIG1       -0.1138
     22 H          -4.4363    3.4890   -0.2129 H       1  LIG1        0.1232
     23 N          -5.9681   -0.8956    0.4261 N.pl3   1  LIG1       -0.3553
     24 H          -6.2490    0.0522    0.2157 H       1  LIG1        0.1424
     25 H          -6.6086   -1.5791    0.0434 H       1  LIG1        0.1424
     26 C          -4.4395   -3.7030    0.2883 C.ar    1  LIG1        0.0821
     27 C          -5.6092   -4.3382   -0.1149 C.ar    1  LIG1        0.0720
     28 C          -5.5586   -5.6901    0.3674 C.ar    1  LIG1        0.0584
     29 C          -4.3688   -5.8401    1.0257 C.ar    1  LIG1        0.0243
     30 N          -3.6884   -4.6321    0.9507 N.ar    1  LIG1       -0.3569
     31 H          -2.9190   -4.3857    1.5516 H       1  LIG1        0.1655
     32 H          -3.9443   -6.6944    1.5282 H       1  LIG1        0.0826
     33 C          -6.6430   -3.8027   -0.9211 C.1     1  LIG1       -0.0656
     34 C          -7.5433   -3.3733   -1.6023 C.1     1  LIG1       -0.1138
     35 H          -8.3216   -3.0002   -2.2268 H       1  LIG1        0.1232
     36 N          -6.5804   -6.6222    0.1924 N.pl3   1  LIG1       -0.3559
     37 H          -7.1919   -6.3891   -0.5786 H       1  LIG1        0.1424
     38 H          -6.2619   -7.5783    0.1262 H       1  LIG1        0.1424
@<TRIPOS>BOND
     1    35    34    1
     2     6     5    1
     3     7     1    1
     4    34    33    3
     5     1     5   ar
     6     1     2   ar
     7     5     4   ar
     8    33    27    1
     9    37    36    1
    10     2     8    1
    11     2     3   ar
    12     4    14    1
    13     4     3   ar
    14    22    21    1
    15    14    18   ar
    16    14    15   ar
    17    19    18    1
    18    21    20    3
    19     8     9    3
    20    27    26   ar
    21    27    28   ar
    22    18    17   ar
    23    20    15    1
    24    15    16   ar
    25    25    23    1
    26    17    16   ar
    27    17    26    1
    28     3    11    1
    29    38    36    1
    30    16    23    1
    31     9    10    1
    32    36    28    1
    33    24    23    1
    34    26    30   ar
    35    28    29   ar
    36    30    29   ar
    37    30    31    1
    38    13    11    1
    39    29    32    1
    40    11    12    1
