@<TRIPOS>MOLECULE
mol_data/opt/cam/geoms/mol2/13eh13eh.out
 26 27 0 0 0
SMALL
GASTEIGER

@<TRIPOS>ATOM
      1 C           1.1506   -0.3238   -0.6203 C.ar    1  LIG1        0.0195
      2 C           0.8557    0.9289   -0.1226 C.ar    1  LIG1        0.0632
      3 C          -0.5467    0.9511    0.1812 C.ar    1  LIG1        0.0672
      4 C          -1.0540   -0.2918   -0.1492 C.ar    1  LIG1        0.0863
      5 N           0.0123   -1.0593   -0.6162 N.ar    1  LIG1       -0.3569
      6 H          -0.1067   -1.9300   -1.1071 H       1  LIG1        0.1655
      7 H           2.0874   -0.7182   -0.9815 H       1  LIG1        0.0820
      8 C           1.7479    2.0146    0.0774 C.1     1  LIG1       -0.0663
      9 C           2.4663    2.9659    0.2568 C.1     1  LIG1       -0.1138
     10 H           3.1165    3.7946    0.4153 H       1  LIG1        0.1232
     11 N          -1.1993    2.0097    0.7892 N.pl3   1  LIG1       -0.3553
     12 H          -0.6644    2.8669    0.7592 H       1  LIG1        0.1424
     13 H          -2.1585    2.1451    0.4965 H       1  LIG1        0.1424
     14 C          -2.3713   -0.8660    0.0008 C.ar    1  LIG1        0.0821
     15 C          -3.6384   -0.3186   -0.1706 C.ar    1  LIG1        0.0720
     16 C          -4.5983   -1.3424    0.1345 C.ar    1  LIG1        0.0584
     17 C          -3.8965   -2.4707    0.4608 C.ar    1  LIG1        0.0243
     18 N          -2.5451   -2.1726    0.3543 N.ar    1  LIG1       -0.3569
     19 H          -1.8096   -2.7351    0.7491 H       1  LIG1        0.1655
     20 H          -4.2352   -3.4532    0.7478 H       1  LIG1        0.0826
     21 C          -3.9581    0.9802   -0.6353 C.1     1  LIG1       -0.0656
     22 C          -4.2635    2.0818   -1.0252 C.1     1  LIG1       -0.1138
     23 H          -4.5283    3.0443   -1.3974 H       1  LIG1        0.1232
     24 N          -5.9794   -1.1516    0.1156 N.pl3   1  LIG1       -0.3559
     25 H          -6.2535   -0.3565   -0.4463 H       1  LIG1        0.1424
     26 H          -6.5071   -1.9740   -0.1396 H       1  LIG1        0.1424
@<TRIPOS>BOND
     1    23    22    1
     2     6     5    1
     3    22    21    3
     4     7     1    1
     5    21    15    1
     6     1     5   ar
     7     1     2   ar
     8     5     4   ar
     9    25    24    1
    10    15    14   ar
    11    15    16   ar
    12     4    14    1
    13     4     3   ar
    14    26    24    1
    15     2     8    1
    16     2     3   ar
    17    14    18   ar
    18     8     9    3
    19    24    16    1
    20    16    17   ar
    21     3    11    1
    22     9    10    1
    23    18    17   ar
    24    18    19    1
    25    17    20    1
    26    13    11    1
    27    12    11    1
