@<TRIPOS>MOLECULE
mol_data/opt/cam/geoms/mol2/13eh13eh13eh-13eh-.out
 50 53 0 0 0
SMALL
GASTEIGER

@<TRIPOS>ATOM
      1 C           1.2221   -0.1592   -0.6540 C.ar    1  LIG1        0.0195
      2 C           0.8898    1.0622   -0.1041 C.ar    1  LIG1        0.0632
      3 C          -0.5292    1.0661    0.1058 C.ar    1  LIG1        0.0672
      4 C          -1.0086   -0.1557   -0.3325 C.ar    1  LIG1        0.0863
      5 N           0.0902   -0.8927   -0.7727 N.ar    1  LIG1       -0.3569
      6 H           0.0142   -1.7445   -1.3041 H       1  LIG1        0.1655
      7 H           2.1828   -0.5313   -0.9736 H       1  LIG1        0.0820
      8 C           1.7608    2.1352    0.2188 C.1     1  LIG1       -0.0663
      9 C           2.4598    3.0757    0.5023 C.1     1  LIG1       -0.1138
     10 H           3.0939    3.8941    0.7529 H       1  LIG1        0.1232
     11 N          -1.2223    2.0856    0.7340 N.pl3   1  LIG1       -0.3553
     12 H          -0.6836    2.9380    0.8045 H       1  LIG1        0.1424
     13 H          -2.1581    2.2478    0.3852 H       1  LIG1        0.1424
     14 C          -2.3263   -0.7433   -0.3028 C.ar    1  LIG1        0.0826
     15 C          -3.5920   -0.1965   -0.4984 C.ar    1  LIG1        0.0727
     16 C          -4.5396   -1.2592   -0.3558 C.ar    1  LIG1        0.0679
     17 C          -3.8358   -2.4130   -0.0961 C.ar    1  LIG1        0.0868
     18 N          -2.5007   -2.0808   -0.0697 N.ar    1  LIG1       -0.3493
     19 H          -1.7767   -2.7233    0.2198 H       1  LIG1        0.1661
     20 C          -3.9090    1.1396   -0.8482 C.1     1  LIG1       -0.0656
     21 C          -4.2084    2.2715   -1.1426 C.1     1  LIG1       -0.1138
     22 H          -4.4692    3.2620   -1.4365 H       1  LIG1        0.1232
     23 N          -5.9600   -1.2013   -0.4817 N.pl3   1  LIG1       -0.3553
     24 H          -6.3535   -0.6147    0.2503 H       1  LIG1        0.1424
     25 H          -6.2160   -0.7618   -1.3624 H       1  LIG1        0.1424
     26 C          -4.3113   -3.7573    0.1055 C.ar    1  LIG1        0.0826
     27 C          -3.6257   -4.9541    0.3149 C.ar    1  LIG1        0.0727
     28 C          -4.6023   -5.9971    0.3898 C.ar    1  LIG1        0.0679
     29 C          -5.8441   -5.4065    0.2156 C.ar    1  LIG1        0.0868
     30 N          -5.6332   -4.0421    0.0615 N.ar    1  LIG1       -0.3493
     31 H          -6.3032   -3.3309   -0.2141 H       1  LIG1        0.1661
     32 C          -2.2255   -5.1215    0.4495 C.1     1  LIG1       -0.0656
     33 C          -1.0324   -5.2790    0.5619 C.1     1  LIG1       -0.1138
     34 H           0.0138   -5.4373    0.6874 H       1  LIG1        0.1232
     35 N          -4.3171   -7.3178    0.6909 N.pl3   1  LIG1       -0.3553
     36 H          -4.9294   -7.9972    0.2578 H       1  LIG1        0.1424
     37 H          -3.3415   -7.5503    0.5675 H       1  LIG1        0.1424
     38 C          -7.1814   -5.9483    0.2742 C.ar    1  LIG1        0.0821
     39 C          -7.7056   -7.1692   -0.1437 C.ar    1  LIG1        0.0720
     40 C          -9.1041   -7.1742    0.1806 C.ar    1  LIG1        0.0584
     41 C          -9.3893   -5.9687    0.7622 C.ar    1  LIG1        0.0243
     42 N          -8.2162   -5.2303    0.7957 N.ar    1  LIG1       -0.3569
     43 H          -8.0887   -4.3867    1.3294 H       1  LIG1        0.1655
     44 H         -10.3154   -5.5730    1.1469 H       1  LIG1        0.0826
     45 C          -7.0371   -8.2026   -0.8430 C.1     1  LIG1       -0.0656
     46 C          -6.4986   -9.1054   -1.4385 C.1     1  LIG1       -0.1138
     47 H          -6.0284   -9.8858   -1.9907 H       1  LIG1        0.1232
     48 N          -9.9586   -8.2532   -0.0482 N.pl3   1  LIG1       -0.3559
     49 H         -10.9107   -7.9868   -0.2555 H       1  LIG1        0.1424
     50 H          -9.6008   -8.8859   -0.7517 H       1  LIG1        0.1424
@<TRIPOS>BOND
     1    47    46    1
     2    46    45    3
     3    22    21    1
     4    25    23    1
     5     6     5    1
     6    21    20    3
     7     7     1    1
     8    20    15    1
     9    45    39    1
    10     5     1   ar
    11     5     4   ar
    12    50    48    1
    13     1     2   ar
    14    15    16   ar
    15    15    14   ar
    16    23    16    1
    17    23    24    1
    18    16    17   ar
    19     4    14    1
    20     4     3   ar
    21    14    18   ar
    22    49    48    1
    23    31    30    1
    24    39    40   ar
    25    39    38   ar
    26     2     3   ar
    27     2     8    1
    28    17    18   ar
    29    17    26    1
    30    18    19    1
    31    48    40    1
    32    30    26   ar
    33    30    29   ar
    34    26    27   ar
    35     3    11    1
    36    40    41   ar
    37    29    38    1
    38    29    28   ar
    39     8     9    3
    40    36    35    1
    41    38    42   ar
    42    27    28   ar
    43    27    32    1
    44    13    11    1
    45    28    35    1
    46    32    33    3
    47     9    10    1
    48    33    34    1
    49    37    35    1
    50    11    12    1
    51    41    42   ar
    52    41    44    1
    53    42    43    1
