@<TRIPOS>MOLECULE
mol_data/opt/cam/geoms/mol2/13eh12ha13id-12hf-6il6ie-12ha-13he-.out
 96 103 0 0 0
SMALL
GASTEIGER

@<TRIPOS>ATOM
      1 C           0.4882    0.0583   -1.1623 C.ar    1  LIG1        0.0195
      2 C          -0.0520    1.1289   -1.8437 C.ar    1  LIG1        0.0633
      3 C          -1.4728    0.9554   -1.8394 C.ar    1  LIG1        0.0689
      4 C          -1.7487   -0.2026   -1.1421 C.ar    1  LIG1        0.1061
      5 N          -0.5372   -0.7374   -0.7562 N.ar    1  LIG1       -0.3556
      6 H          -0.4474   -1.5820   -0.2166 H       1  LIG1        0.1655
      7 H           1.5180   -0.1836   -0.9530 H       1  LIG1        0.0820
      8 C           0.6358    2.2100   -2.4560 C.1     1  LIG1       -0.0663
      9 C           1.1735    3.1478   -2.9891 C.1     1  LIG1       -0.1138
     10 H           1.6700    3.9681   -3.4537 H       1  LIG1        0.1232
     11 N          -2.4311    1.8066   -2.4498 N.pl3   1  LIG1       -0.3553
     12 H          -2.0181    2.7184   -2.6221 H       1  LIG1        0.1424
     13 H          -2.7270    1.4363   -3.3493 H       1  LIG1        0.1424
     14 C          -2.9969   -0.8270   -0.7910 C.ar    1  LIG1        0.1741
     15 C          -4.2773   -0.3593   -0.6333 C.ar    1  LIG1        0.0731
     16 C          -5.0676   -1.4887   -0.2473 C.ar    1  LIG1        0.0071
     17 C          -4.2235   -2.5554   -0.1703 C.ar    1  LIG1        0.1540
     18 O          -2.9593   -2.1771   -0.4970 O.2     1  LIG1       -0.4499
     19 N          -4.7097    0.9487   -0.7349 N.pl3   1  LIG1       -0.3550
     20 H          -4.0935    1.5397   -1.2950 H       1  LIG1        0.1424
     21 H          -5.6860    1.0468   -0.9712 H       1  LIG1        0.1424
     22 H          -6.1267   -1.4898   -0.0398 H       1  LIG1        0.0675
     23 C          -4.3875   -3.9456    0.1661 C.ar    1  LIG1        0.0869
     24 C          -5.4793   -4.6611    0.6171 C.ar    1  LIG1       -0.0041
     25 C          -5.0303   -6.0047    0.7856 C.ar    1  LIG1        0.0836
     26 C          -3.6835   -6.0678    0.4288 C.ar    1  LIG1        0.1024
     27 N          -3.3244   -4.8101    0.0612 N.ar    1  LIG1       -0.3481
     28 H          -2.4008   -4.5480   -0.2476 H       1  LIG1        0.1661
     29 C          -6.8532   -4.1452    0.8950 C.3     1  LIG1       -0.0364
     30 H          -7.4721   -4.9195    1.3523 H       1  LIG1        0.0279
     31 H          -7.3543   -3.8187   -0.0223 H       1  LIG1        0.0279
     32 H          -6.8261   -3.2901    1.5773 H       1  LIG1        0.0279
     33 N          -6.4326   -7.9542    1.7190 N.1     1  LIG1       -0.1908
     34 C          -5.8058   -7.0767    1.2930 C.1     1  LIG1        0.1017
     35 C          -2.7155   -7.1323    0.4015 C.ar    1  LIG1        0.1773
     36 C          -2.7463   -8.4999    0.4660 C.ar    1  LIG1        0.1153
     37 C          -1.3913   -8.9235    0.3629 C.ar    1  LIG1        0.1846
     38 C          -0.5985   -7.8164    0.2258 C.ar    1  LIG1        0.1807
     39 O          -1.4285   -6.7182    0.2554 O.2     1  LIG1       -0.4476
     40 N          -3.7668   -9.4747    0.5796 N.pl3   1  LIG1       -0.3521
     41 H          -4.4100   -9.2940    1.3435 H       1  LIG1        0.1425
     42 H          -4.3219   -9.5456   -0.2677 H       1  LIG1        0.1425
     43 O          -1.0419  -10.2233    0.3992 O.3     1  LIG1       -0.5020
     44 H          -1.8817  -10.6981    0.5468 H       1  LIG1        0.2924
     45 C           1.4814   -6.4041   -0.1039 C.ar    1  LIG1        0.0499
     46 C           0.8357   -7.6395    0.0887 C.ar    1  LIG1        0.0455
     47 C           1.6364   -8.7884    0.1561 C.ar    1  LIG1       -0.0053
     48 C           3.0102   -8.6889    0.0311 C.ar    1  LIG1        0.1467
     49 C           3.5811   -7.4156   -0.1610 C.ar    1  LIG1        0.1145
     50 N           2.8081   -6.3341   -0.2178 N.ar    1  LIG1       -0.2474
     51 H           1.1620   -9.7475    0.3112 H       1  LIG1        0.0662
     52 C           0.7671   -5.0804   -0.2105 C.3     1  LIG1       -0.0216
     53 H           0.2026   -4.8490    0.6972 H       1  LIG1        0.0293
     54 H           0.0631   -5.0712   -1.0481 H       1  LIG1        0.0293
     55 H           1.5192   -4.3086   -0.3747 H       1  LIG1        0.0293
     56 O           3.8544   -9.7496    0.0942 O.3     1  LIG1       -0.4929
     57 C           3.3060  -11.0276    0.3485 C.3     1  LIG1        0.0789
     58 H           4.1501  -11.7155    0.3812 H       1  LIG1        0.0660
     59 H           2.7791  -11.0537    1.3088 H       1  LIG1        0.0660
     60 H           2.6171  -11.3366   -0.4457 H       1  LIG1        0.0660
     61 C           5.7461   -6.2088    0.3793 C.ar    1  LIG1        0.0484
     62 C           5.0436   -7.2155   -0.3181 C.ar    1  LIG1        0.0261
     63 C           5.7820   -8.0154   -1.1750 C.ar    1  LIG1       -0.0331
     64 C           7.1478   -7.8011   -1.3730 C.ar    1  LIG1        0.0543
     65 C           7.7427   -6.7084   -0.7062 C.ar    1  LIG1        0.1234
     66 N           7.0359   -5.9770    0.1713 N.ar    1  LIG1       -0.2468
     67 H           5.3064   -8.8420   -1.6876 H       1  LIG1        0.0638
     68 C           5.0928   -5.3343    1.4138 C.3     1  LIG1       -0.0217
     69 H           4.4621   -5.9151    2.0916 H       1  LIG1        0.0293
     70 H           4.4457   -4.5943    0.9386 H       1  LIG1        0.0293
     71 H           5.8710   -4.8235    1.9802 H       1  LIG1        0.0293
     72 C           7.8792   -8.7346   -2.1688 C.1     1  LIG1       -0.0674
     73 C           8.4679   -9.5472   -2.8364 C.1     1  LIG1       -0.1138
     74 H           9.0170  -10.2643   -3.4017 H       1  LIG1        0.1232
     75 C           9.1216   -6.2893   -0.8884 C.ar    1  LIG1        0.1756
     76 C          10.0214   -6.2366   -1.9351 C.ar    1  LIG1        0.0732
     77 C          11.1615   -5.5163   -1.4618 C.ar    1  LIG1        0.0071
     78 C          10.8889   -5.1695   -0.1711 C.ar    1  LIG1        0.1555
     79 O           9.6726   -5.6192    0.1901 O.2     1  LIG1       -0.4498
     80 N           9.9362   -6.7442   -3.2163 N.pl3   1  LIG1       -0.3550
     81 H           9.0680   -7.1829   -3.4767 H       1  LIG1        0.1424
     82 H          10.3279   -6.1504   -3.9310 H       1  LIG1        0.1424
     83 H          12.0811   -5.3416   -1.9991 H       1  LIG1        0.0675
     84 C          11.6222   -4.4662    0.8417 C.ar    1  LIG1        0.1043
     85 C          12.8209   -3.7815    0.7920 C.ar    1  LIG1        0.0688
     86 C          13.0820   -3.2956    2.1107 C.ar    1  LIG1        0.0633
     87 C          12.0266   -3.7024    2.9104 C.ar    1  LIG1        0.0195
     88 N          11.1564   -4.3927    2.1419 N.ar    1  LIG1       -0.3556
     89 H          10.2827   -4.8009    2.4332 H       1  LIG1        0.1655
     90 H          11.8540   -3.5297    3.9610 H       1  LIG1        0.0820
     91 N          13.6448   -3.6118   -0.3189 N.pl3   1  LIG1       -0.3553
     92 H          13.1394   -3.3606   -1.1593 H       1  LIG1        0.1424
     93 H          14.3885   -2.9487   -0.1389 H       1  LIG1        0.1424
     94 C          14.2149   -2.5277    2.4863 C.1     1  LIG1       -0.0663
     95 C          15.1902   -1.8713    2.7541 C.1     1  LIG1       -0.1138
     96 H          16.0493   -1.2971    3.0124 H       1  LIG1        0.1232
@<TRIPOS>BOND
     1    82    80    1
     2    81    80    1
     3    10     9    1
     4    74    73    1
     5    13    11    1
     6    80    76    1
     7     9     8    3
     8    73    72    3
     9    12    11    1
    10     8     2    1
    11    11     3    1
    12    72    64    1
    13    83    77    1
    14    76    77   ar
    15    76    75   ar
    16     2     3   ar
    17     2     1   ar
    18     3     4   ar
    19    67    63    1
    20    77    78   ar
    21    64    63   ar
    22    64    65   ar
    23    20    19    1
    24    63    62   ar
    25     1     7    1
    26     1     5   ar
    27    92    91    1
    28     4    14    1
    29     4     5   ar
    30    54    52    1
    31    21    19    1
    32    75    65    1
    33    75    79   ar
    34    14    15   ar
    35    14    18   ar
    36     5     6    1
    37    19    15    1
    38    65    66   ar
    39    15    16   ar
    40    18    17   ar
    41    60    57    1
    42    55    52    1
    43    91    93    1
    44    91    85    1
    45    62    49    1
    46    62    61   ar
    47    42    40    1
    48    28    27    1
    49    16    17   ar
    50    16    22    1
    51    50    49   ar
    52    50    45   ar
    53    52    45    1
    54    52    53    1
    55    78    79   ar
    56    78    84    1
    57    17    23    1
    58    49    48   ar
    59    45    46   ar
    60    31    29    1
    61    48    56    1
    62    48    47   ar
    63    27    23   ar
    64    27    26   ar
    65    46    47   ar
    66    46    38    1
    67    56    57    1
    68    47    51    1
    69    23    24   ar
    70    66    61   ar
    71    38    39   ar
    72    38    37   ar
    73    39    35   ar
    74    57    58    1
    75    57    59    1
    76    37    43    1
    77    37    36   ar
    78    61    68    1
    79    43    44    1
    80    35    26    1
    81    35    36   ar
    82    26    25   ar
    83    36    40    1
    84    40    41    1
    85    24    25   ar
    86    24    29    1
    87    25    34    1
    88    85    84   ar
    89    85    86   ar
    90    84    88   ar
    91    29    30    1
    92    29    32    1
    93    70    68    1
    94    34    33    3
    95    68    71    1
    96    68    69    1
    97    86    94    1
    98    86    87   ar
    99    88    89    1
   100    88    87   ar
   101    94    95    3
   102    95    96    1
   103    87    90    1
