@<TRIPOS>MOLECULE
mol_data/opt/cam/geoms/mol2/13eh13eh-4eh13eh.out
 52 55 0 0 0
SMALL
GASTEIGER

@<TRIPOS>ATOM
      1 C           1.4081   -0.4544   -0.0304 C.ar    1  LIG1        0.0195
      2 C           1.0385    0.8062    0.4024 C.ar    1  LIG1        0.0632
      3 C          -0.3887    0.8232    0.4568 C.ar    1  LIG1        0.0672
      4 C          -0.8340   -0.4184    0.0488 C.ar    1  LIG1        0.0863
      5 N           0.2814   -1.1810   -0.2269 N.ar    1  LIG1       -0.3569
      6 H           0.2341   -2.1409   -0.5357 H       1  LIG1        0.1655
      7 H           2.3906   -0.8662   -0.1984 H       1  LIG1        0.0820
      8 C           1.8835    1.8974    0.7360 C.1     1  LIG1       -0.0663
      9 C           2.5595    2.8515    1.0288 C.1     1  LIG1       -0.1138
     10 H           3.1742    3.6831    1.2848 H       1  LIG1        0.1232
     11 N          -1.2162    1.9043    0.8321 N.pl3   1  LIG1       -0.3553
     12 H          -1.6329    1.7592    1.7475 H       1  LIG1        0.1424
     13 H          -0.6772    2.7631    0.8717 H       1  LIG1        0.1424
     14 C          -2.1771   -0.9081   -0.1289 C.ar    1  LIG1        0.0826
     15 C          -2.6431   -2.1802   -0.4699 C.ar    1  LIG1        0.0726
     16 C          -4.0628   -2.0970   -0.5524 C.ar    1  LIG1        0.0665
     17 C          -4.4298   -0.7910   -0.2596 C.ar    1  LIG1        0.0704
     18 N          -3.2528   -0.0986   -0.0076 N.ar    1  LIG1       -0.3505
     19 H          -3.1766    0.9067    0.0998 H       1  LIG1        0.1660
     20 C          -1.8722   -3.3427   -0.7159 C.1     1  LIG1       -0.0656
     21 C          -1.2335   -4.3433   -0.9431 C.1     1  LIG1       -0.1138
     22 H          -0.6819   -5.2364   -1.1262 H       1  LIG1        0.1232
     23 N          -4.8926   -3.1819   -0.8524 N.pl3   1  LIG1       -0.3554
     24 H          -5.6503   -2.9387   -1.4787 H       1  LIG1        0.1424
     25 H          -4.3626   -3.9588   -1.2289 H       1  LIG1        0.1424
     26 C          -6.0286    1.1790   -0.3134 C.ar    1  LIG1        0.0346
     27 C          -7.3372    1.6452   -0.1708 C.ar    1  LIG1       -0.0348
     28 C          -5.7589   -0.2002   -0.1476 C.ar    1  LIG1        0.0173
     29 C          -8.4120    0.8106    0.1167 C.ar    1  LIG1        0.0214
     30 H          -7.5173    2.7068   -0.2860 H       1  LIG1        0.0637
     31 C          -6.8432   -1.0368    0.1403 C.ar    1  LIG1       -0.0301
     32 C          -8.1459   -0.5682    0.2625 C.ar    1  LIG1        0.0345
     33 H          -6.6556   -2.0931    0.3022 H       1  LIG1        0.0643
     34 C          -5.0123    2.1388   -0.6212 C.1     1  LIG1       -0.0690
     35 C          -4.1747    2.9696   -0.8694 C.1     1  LIG1       -0.1139
     36 H          -3.4187    3.6844   -1.0973 H       1  LIG1        0.1232
     37 N          -9.1781   -1.4638    0.5872 N.pl3   1  LIG1       -0.3574
     38 H         -10.0346   -1.2927    0.0739 H       1  LIG1        0.1423
     39 H          -8.8984   -2.4323    0.5045 H       1  LIG1        0.1423
     40 C          -9.7522    1.3763    0.2945 C.ar    1  LIG1        0.0657
     41 C         -10.3506    2.4999   -0.2756 C.ar    1  LIG1        0.0705
     42 C         -11.6485    2.6442    0.3113 C.ar    1  LIG1        0.0583
     43 C         -11.8047    1.6162    1.2060 C.ar    1  LIG1        0.0242
     44 N         -10.6571    0.8527    1.1700 N.ar    1  LIG1       -0.3580
     45 H         -10.4486    0.0662    1.7659 H       1  LIG1        0.1654
     46 H         -12.6294    1.3655    1.8539 H       1  LIG1        0.0826
     47 C          -9.8425    3.3548   -1.2868 C.1     1  LIG1       -0.0657
     48 C          -9.4689    4.1115   -2.1492 C.1     1  LIG1       -0.1138
     49 H          -9.1154    4.7693   -2.9088 H       1  LIG1        0.1232
     50 N         -12.5338    3.6835    0.0220 N.pl3   1  LIG1       -0.3559
     51 H         -12.2977    4.1561   -0.8410 H       1  LIG1        0.1424
     52 H         -13.5064    3.4106    0.0286 H       1  LIG1        0.1424
@<TRIPOS>BOND
     1    49    48    1
     2    48    47    3
     3    24    23    1
     4    47    41    1
     5    25    23    1
     6    22    21    1
     7    36    35    1
     8    21    20    3
     9    35    34    3
    10    23    16    1
    11    51    50    1
    12    20    15    1
    13    34    26    1
    14    16    15   ar
    15    16    17   ar
    16     6     5    1
    17    15    14   ar
    18    26    27   ar
    19    26    28   ar
    20    30    27    1
    21    41    40   ar
    22    41    42   ar
    23    17    28    1
    24    17    18   ar
    25     5     1   ar
    26     5     4   ar
    27     7     1    1
    28    27    29   ar
    29    28    31   ar
    30    14    18   ar
    31    14     4    1
    32     1     2   ar
    33    18    19    1
    34    50    52    1
    35    50    42    1
    36     4     3   ar
    37    38    37    1
    38    29    32   ar
    39    29    40    1
    40    31    32   ar
    41    31    33    1
    42    32    37    1
    43    40    44   ar
    44    42    43   ar
    45     2     3   ar
    46     2     8    1
    47     3    11    1
    48    39    37    1
    49     8     9    3
    50    11    13    1
    51    11    12    1
    52     9    10    1
    53    44    43   ar
    54    44    45    1
    55    43    46    1
