@<TRIPOS>MOLECULE
mol_data/opt/cam/geoms/mol2/13eh13eh-13eh-13eh-.out
 50 53 0 0 0
SMALL
GASTEIGER

@<TRIPOS>ATOM
      1 C           1.2505   -0.1569   -0.3624 C.ar    1  LIG1        0.0195
      2 C           0.7352    1.0472   -0.8000 C.ar    1  LIG1        0.0632
      3 C          -0.6880    0.9457   -0.7014 C.ar    1  LIG1        0.0672
      4 C          -0.9808   -0.3092   -0.2093 C.ar    1  LIG1        0.0863
      5 N           0.2113   -0.9606   -0.0116 N.ar    1  LIG1       -0.3569
      6 H           0.2752   -1.9065    0.3368 H       1  LIG1        0.1655
      7 H           2.2754   -0.4826   -0.2812 H       1  LIG1        0.0820
      8 C           1.4569    2.1801   -1.2626 C.1     1  LIG1       -0.0663
      9 C           2.0358    3.1592   -1.6602 C.1     1  LIG1       -0.1138
     10 H           2.5616    4.0170   -2.0105 H       1  LIG1        0.1232
     11 N          -1.6750    1.9198   -1.0430 N.pl3   1  LIG1       -0.3553
     12 H          -1.5101    2.7812   -0.5283 H       1  LIG1        0.1424
     13 H          -1.5998    2.1635   -2.0277 H       1  LIG1        0.1424
     14 C          -2.2625   -0.9085    0.0696 C.ar    1  LIG1        0.0826
     15 C          -2.6104   -2.1913    0.4906 C.ar    1  LIG1        0.0727
     16 C          -4.0387   -2.2478    0.5487 C.ar    1  LIG1        0.0679
     17 C          -4.5126   -1.0056    0.1548 C.ar    1  LIG1        0.0868
     18 N          -3.4057   -0.2094   -0.1137 N.ar    1  LIG1       -0.3493
     19 H          -3.3767    0.7092   -0.5466 H       1  LIG1        0.1661
     20 C          -1.7267   -3.2504    0.8139 C.1     1  LIG1       -0.0656
     21 C          -0.9832   -4.1628    1.0875 C.1     1  LIG1       -0.1138
     22 H          -0.3428   -4.9766    1.3386 H       1  LIG1        0.1232
     23 N          -4.7607   -3.3289    1.0227 N.pl3   1  LIG1       -0.3553
     24 H          -5.6671   -3.4600    0.5919 H       1  LIG1        0.1424
     25 H          -4.2227   -4.1839    1.0481 H       1  LIG1        0.1424
     26 C          -5.8490   -0.4624    0.1053 C.ar    1  LIG1        0.0826
     27 C          -7.0662   -1.0313   -0.2678 C.ar    1  LIG1        0.0727
     28 C          -8.0778   -0.0232   -0.1528 C.ar    1  LIG1        0.0679
     29 C          -7.4558    1.1359    0.2700 C.ar    1  LIG1        0.0868
     30 N          -6.1031    0.8349    0.4264 N.ar    1  LIG1       -0.3493
     31 H          -5.4006    1.5014    0.7007 H       1  LIG1        0.1661
     32 C          -7.2945   -2.3441   -0.7458 C.1     1  LIG1       -0.0656
     33 C          -7.5292   -3.4565   -1.1541 C.1     1  LIG1       -0.1138
     34 H          -7.7273   -4.4266   -1.5474 H       1  LIG1        0.1232
     35 N          -9.4284   -0.2423   -0.3607 N.pl3   1  LIG1       -0.3553
     36 H          -9.9332    0.5438   -0.7493 H       1  LIG1        0.1424
     37 H          -9.6146   -1.1012   -0.8599 H       1  LIG1        0.1424
     38 C          -7.9766    2.4358    0.6212 C.ar    1  LIG1        0.0821
     39 C          -8.9838    3.2073    0.0507 C.ar    1  LIG1        0.0720
     40 C          -9.0993    4.4122    0.8238 C.ar    1  LIG1        0.0584
     41 C          -8.1611    4.3469    1.8173 C.ar    1  LIG1        0.0243
     42 N          -7.4711    3.1512    1.6690 N.ar    1  LIG1       -0.3569
     43 H          -6.9047    2.7373    2.3912 H       1  LIG1        0.1655
     44 H          -7.9180    5.0429    2.6040 H       1  LIG1        0.0826
     45 C          -9.7222    2.9242   -1.1238 C.1     1  LIG1       -0.0656
     46 C         -10.3720    2.7098   -2.1192 C.1     1  LIG1       -0.1138
     47 H         -10.9221    2.5303   -3.0137 H       1  LIG1        0.1232
     48 N         -10.0371    5.4144    0.5765 N.pl3   1  LIG1       -0.3559
     49 H          -9.7229    6.3430    0.8195 H       1  LIG1        0.1424
     50 H         -10.3912    5.3883   -0.3705 H       1  LIG1        0.1424
@<TRIPOS>BOND
     1    47    46    1
     2    46    45    3
     3    13    11    1
     4    10     9    1
     5     9     8    3
     6    34    33    1
     7     8     2    1
     8    33    32    3
     9    45    39    1
    10    11     3    1
    11    11    12    1
    12    37    35    1
    13     2     3   ar
    14     2     1   ar
    15    36    35    1
    16    32    27    1
    17     3     4   ar
    18    19    18    1
    19    50    48    1
    20     1     7    1
    21     1     5   ar
    22    35    28    1
    23    27    28   ar
    24    27    26   ar
    25     4     5   ar
    26     4    14    1
    27    28    29   ar
    28    18    14   ar
    29    18    17   ar
    30     5     6    1
    31    39    38   ar
    32    39    40   ar
    33    14    15   ar
    34    26    17    1
    35    26    30   ar
    36    17    16   ar
    37    29    30   ar
    38    29    38    1
    39    30    31    1
    40    15    16   ar
    41    15    20    1
    42    16    23    1
    43    48    49    1
    44    48    40    1
    45    24    23    1
    46    38    42   ar
    47    20    21    3
    48    40    41   ar
    49    23    25    1
    50    21    22    1
    51    42    41   ar
    52    42    43    1
    53    41    44    1
