@<TRIPOS>MOLECULE
mol_data/opt/cam/geoms/mol2/13eh13eh13eh13eh-.out
 50 53 0 0 0
SMALL
GASTEIGER

@<TRIPOS>ATOM
      1 C           0.7667    0.0825   -1.7804 C.ar    1  LIG1        0.0195
      2 C           0.8120    0.9760   -0.7306 C.ar    1  LIG1        0.0632
      3 C          -0.4233    0.8548   -0.0099 C.ar    1  LIG1        0.0672
      4 C          -1.1769   -0.1091   -0.6543 C.ar    1  LIG1        0.0863
      5 N          -0.4124   -0.5839   -1.7209 N.ar    1  LIG1       -0.3569
      6 H          -0.7953   -1.1233   -2.4800 H       1  LIG1        0.1655
      7 H           1.4898   -0.1011   -2.5596 H       1  LIG1        0.0820
      8 C           1.8693    1.8585   -0.3871 C.1     1  LIG1       -0.0663
      9 C           2.7367    2.6298   -0.0615 C.1     1  LIG1       -0.1138
     10 H           3.5160    3.3011    0.2158 H       1  LIG1        0.1232
     11 N          -0.7093    1.5224    1.1669 N.pl3   1  LIG1       -0.3553
     12 H          -0.0905    2.3038    1.3349 H       1  LIG1        0.1424
     13 H          -1.6829    1.7653    1.2970 H       1  LIG1        0.1424
     14 C          -2.4568   -0.6976   -0.3373 C.ar    1  LIG1        0.0826
     15 C          -3.6343   -0.1318    0.1466 C.ar    1  LIG1        0.0727
     16 C          -4.6094   -1.1747    0.2631 C.ar    1  LIG1        0.0679
     17 C          -4.0127   -2.3447   -0.1691 C.ar    1  LIG1        0.0868
     18 N          -2.7025   -2.0220   -0.5261 N.ar    1  LIG1       -0.3493
     19 H          -2.0142   -2.6882   -0.8354 H       1  LIG1        0.1661
     20 C          -3.8785    1.2343    0.4275 C.1     1  LIG1       -0.0656
     21 C          -4.1183    2.3902    0.6826 C.1     1  LIG1       -0.1138
     22 H          -4.3364    3.4153    0.8742 H       1  LIG1        0.1232
     23 N          -5.8759   -1.0033    0.7916 N.pl3   1  LIG1       -0.3553
     24 H          -6.1498   -0.0324    0.8520 H       1  LIG1        0.1424
     25 H          -6.5959   -1.5831    0.3806 H       1  LIG1        0.1424
     26 C          -4.4783   -3.7093   -0.2120 C.ar    1  LIG1        0.0826
     27 C          -5.7201   -4.2589   -0.5201 C.ar    1  LIG1        0.0727
     28 C          -5.5952   -5.6810   -0.4085 C.ar    1  LIG1        0.0679
     29 C          -4.2948   -5.9580   -0.0568 C.ar    1  LIG1        0.0868
     30 N          -3.6356   -4.7556    0.0571 N.ar    1  LIG1       -0.3493
     31 H          -2.7058   -4.6754    0.4444 H       1  LIG1        0.1661
     32 C          -6.8848   -3.5716   -0.9431 C.1     1  LIG1       -0.0656
     33 C          -7.8928   -3.0120   -1.3014 C.1     1  LIG1       -0.1138
     34 H          -8.7720   -2.5206   -1.6492 H       1  LIG1        0.1232
     35 N          -6.5915   -6.6776   -0.6307 N.pl3   1  LIG1       -0.3553
     36 H          -7.3066   -6.6281    0.0911 H       1  LIG1        0.1424
     37 H          -7.0672   -6.5090   -1.5131 H       1  LIG1        0.1424
     38 C          -3.6444   -7.2263    0.1599 C.ar    1  LIG1        0.0821
     39 C          -2.3342   -7.5367    0.5278 C.ar    1  LIG1        0.0720
     40 C          -2.2408   -8.9645    0.5766 C.ar    1  LIG1        0.0584
     41 C          -3.4759   -9.4614    0.2378 C.ar    1  LIG1        0.0243
     42 N          -4.3105   -8.3924   -0.0084 N.ar    1  LIG1       -0.3569
     43 H          -5.2817   -8.3960   -0.3001 H       1  LIG1        0.1655
     44 H          -3.8255  -10.4790    0.1700 H       1  LIG1        0.0826
     45 C          -1.2870   -6.6224    0.8012 C.1     1  LIG1       -0.0656
     46 C          -0.3857   -5.8494    1.0281 C.1     1  LIG1       -0.1138
     47 H           0.4133   -5.1842    1.2626 H       1  LIG1        0.1232
     48 N          -1.1013   -9.6716    0.9670 N.pl3   1  LIG1       -0.3559
     49 H          -1.0034  -10.5693    0.5138 H       1  LIG1        0.1424
     50 H          -0.2548   -9.1275    0.8653 H       1  LIG1        0.1424
@<TRIPOS>BOND
     1     7     1    1
     2     6     5    1
     3     1     5   ar
     4     1     2   ar
     5     5     4   ar
     6    34    33    1
     7    37    35    1
     8    33    32    3
     9    32    27    1
    10    19    18    1
    11     2     8    1
    12     2     3   ar
    13     4    14    1
    14     4     3   ar
    15    35    28    1
    16    35    36    1
    17    18    14   ar
    18    18    17   ar
    19    27    28   ar
    20    27    26   ar
    21    28    29   ar
    22     8     9    3
    23    14    15   ar
    24    43    42    1
    25    26    17    1
    26    26    30   ar
    27    17    16   ar
    28     9    10    1
    29    29    30   ar
    30    29    38    1
    31     3    11    1
    32    42    38   ar
    33    42    41   ar
    34    30    31    1
    35    15    16   ar
    36    15    20    1
    37    38    39   ar
    38    44    41    1
    39    41    40   ar
    40    16    23    1
    41    25    23    1
    42    20    21    3
    43    49    48    1
    44    39    40   ar
    45    39    45    1
    46    40    48    1
    47    21    22    1
    48    23    24    1
    49    45    46    3
    50    50    48    1
    51    46    47    1
    52    11    13    1
    53    11    12    1
