@<TRIPOS>MOLECULE
mol_data/opt/cam/geoms/mol2/13eh13eh-13eh-13eh.out
 50 53 0 0 0
SMALL
GASTEIGER

@<TRIPOS>ATOM
      1 C           1.2742   -0.2721   -0.1379 C.ar    1  LIG1        0.0195
      2 C           0.8216    0.9471   -0.6029 C.ar    1  LIG1        0.0632
      3 C          -0.6074    0.8876   -0.5897 C.ar    1  LIG1        0.0672
      4 C          -0.9656   -0.3588   -0.1197 C.ar    1  LIG1        0.0863
      5 N           0.1927   -1.0446    0.1496 N.ar    1  LIG1       -0.3569
      6 H           0.2079   -1.9914    0.5008 H       1  LIG1        0.1655
      7 H           2.2825   -0.6278    0.0033 H       1  LIG1        0.0820
      8 C           1.6036    2.0570   -1.0209 C.1     1  LIG1       -0.0663
      9 C           2.2352    3.0171   -1.3833 C.1     1  LIG1       -0.1138
     10 H           2.8067    3.8581   -1.7011 H       1  LIG1        0.1232
     11 N          -1.5454    1.8879   -0.9853 N.pl3   1  LIG1       -0.3553
     12 H          -1.4525    2.7150   -0.4011 H       1  LIG1        0.1424
     13 H          -1.3565    2.1920   -1.9368 H       1  LIG1        0.1424
     14 C          -2.2794   -0.9214    0.0727 C.ar    1  LIG1        0.0826
     15 C          -2.6906   -2.1915    0.4767 C.ar    1  LIG1        0.0727
     16 C          -4.1201   -2.2081    0.4382 C.ar    1  LIG1        0.0679
     17 C          -4.5310   -0.9562    0.0046 C.ar    1  LIG1        0.0868
     18 N          -3.3870   -0.1942   -0.1944 N.ar    1  LIG1       -0.3493
     19 H          -3.3057    0.7260   -0.6185 H       1  LIG1        0.1661
     20 C          -1.8610   -3.2724    0.8646 C.1     1  LIG1       -0.0656
     21 C          -1.1638   -4.2035    1.1921 C.1     1  LIG1       -0.1138
     22 H          -0.5648   -5.0321    1.4919 H       1  LIG1        0.1232
     23 N          -4.9026   -3.2656    0.8692 N.pl3   1  LIG1       -0.3553
     24 H          -5.7744   -3.3848    0.3696 H       1  LIG1        0.1424
     25 H          -4.3869   -4.1310    0.9497 H       1  LIG1        0.1424
     26 C          -5.8408   -0.3705   -0.1457 C.ar    1  LIG1        0.0826
     27 C          -7.0608   -0.9020   -0.5587 C.ar    1  LIG1        0.0727
     28 C          -8.0204    0.1595   -0.5193 C.ar    1  LIG1        0.0679
     29 C          -7.3671    1.2968   -0.1044 C.ar    1  LIG1        0.0868
     30 N          -6.0531    0.9558    0.1166 N.ar    1  LIG1       -0.3493
     31 H          -5.3777    1.5850    0.5275 H       1  LIG1        0.1661
     32 C          -7.3219   -2.2169   -1.0168 C.1     1  LIG1       -0.0656
     33 C          -7.5777   -3.3296   -1.4102 C.1     1  LIG1       -0.1138
     34 H          -7.7948   -4.3011   -1.7901 H       1  LIG1        0.1232
     35 N          -9.4057    0.1118   -0.8580 N.pl3   1  LIG1       -0.3553
     36 H          -9.5311   -0.3464   -1.7569 H       1  LIG1        0.1424
     37 H          -9.9151   -0.4501   -0.1801 H       1  LIG1        0.1424
     38 C          -7.8714    2.6348    0.0816 C.ar    1  LIG1        0.0821
     39 C          -7.2484    3.8022    0.5258 C.ar    1  LIG1        0.0720
     40 C          -8.2341    4.8403    0.4943 C.ar    1  LIG1        0.0584
     41 C          -9.3997    4.2764    0.0363 C.ar    1  LIG1        0.0243
     42 N          -9.1582    2.9411   -0.2058 N.ar    1  LIG1       -0.3569
     43 H          -9.7906    2.2326   -0.5622 H       1  LIG1        0.1655
     44 H         -10.3735    4.7123   -0.1195 H       1  LIG1        0.0826
     45 C          -5.9008    3.9473    0.9373 C.1     1  LIG1       -0.0656
     46 C          -4.7511    4.0856    1.2840 C.1     1  LIG1       -0.1138
     47 H          -3.7522    4.2168    1.6302 H       1  LIG1        0.1232
     48 N          -8.0175    6.1524    0.9233 N.pl3   1  LIG1       -0.3559
     49 H          -7.0375    6.4029    0.9154 H       1  LIG1        0.1424
     50 H          -8.5623    6.8392    0.4206 H       1  LIG1        0.1424
@<TRIPOS>BOND
     1    13    11    1
     2    34    33    1
     3    36    35    1
     4    10     9    1
     5    33    32    3
     6     9     8    3
     7     8     2    1
     8    32    27    1
     9    11     3    1
    10    11    12    1
    11    35    28    1
    12    35    37    1
    13    19    18    1
    14     2     3   ar
    15     2     1   ar
    16     3     4   ar
    17    43    42    1
    18    27    28   ar
    19    27    26   ar
    20    28    29   ar
    21    42    41   ar
    22    42    38   ar
    23    18    17   ar
    24    18    14   ar
    25    26    17    1
    26    26    30   ar
    27     1     7    1
    28     1     5   ar
    29     4    14    1
    30     4     5   ar
    31    44    41    1
    32    29    38    1
    33    29    30   ar
    34    17    16   ar
    35    41    40   ar
    36    14    15   ar
    37    38    39   ar
    38    30    31    1
    39     5     6    1
    40    24    23    1
    41    50    48    1
    42    16    15   ar
    43    16    23    1
    44    15    20    1
    45    40    39   ar
    46    40    48    1
    47    39    45    1
    48    20    21    3
    49    23    25    1
    50    49    48    1
    51    45    46    3
    52    21    22    1
    53    46    47    1
