@<TRIPOS>MOLECULE
mol_data/opt/cam/geoms/mol2/13eh13eh13eh-13eh.out
 50 53 0 0 0
SMALL
GASTEIGER

@<TRIPOS>ATOM
      1 C           1.1600   -0.1741   -0.9918 C.ar    1  LIG1        0.0195
      2 C           0.9457    0.9760   -0.2596 C.ar    1  LIG1        0.0632
      3 C          -0.4337    0.9829    0.1342 C.ar    1  LIG1        0.0672
      4 C          -1.0097   -0.1648   -0.3813 C.ar    1  LIG1        0.0863
      5 N          -0.0039   -0.8638   -1.0478 N.ar    1  LIG1       -0.3569
      6 H          -0.1798   -1.6396   -1.6648 H       1  LIG1        0.1655
      7 H           2.0575   -0.5228   -1.4782 H       1  LIG1        0.0820
      8 C           1.8901    1.9820    0.0728 C.1     1  LIG1       -0.0663
      9 C           2.6543    2.8649    0.3730 C.1     1  LIG1       -0.1138
     10 H           3.3450    3.6326    0.6342 H       1  LIG1        0.1232
     11 N          -1.0028    1.9306    0.9660 N.pl3   1  LIG1       -0.3553
     12 H          -0.4317    2.7589    1.0633 H       1  LIG1        0.1424
     13 H          -1.9709    2.1496    0.7700 H       1  LIG1        0.1424
     14 C          -2.3343   -0.7227   -0.2517 C.ar    1  LIG1        0.0826
     15 C          -3.5927   -0.1251   -0.2147 C.ar    1  LIG1        0.0727
     16 C          -4.5570   -1.1716   -0.0763 C.ar    1  LIG1        0.0679
     17 C          -3.8739   -2.3670   -0.0557 C.ar    1  LIG1        0.0868
     18 N          -2.5299   -2.0716   -0.1544 N.ar    1  LIG1       -0.3493
     19 H          -1.8007   -2.7568   -0.0160 H       1  LIG1        0.1661
     20 C          -3.9018    1.2501   -0.3588 C.1     1  LIG1       -0.0656
     21 C          -4.1997    2.4145   -0.4744 C.1     1  LIG1       -0.1138
     22 H          -4.4609    3.4386   -0.6104 H       1  LIG1        0.1232
     23 N          -5.9671   -1.0491   -0.0042 N.pl3   1  LIG1       -0.3553
     24 H          -6.2855   -1.0144    0.9607 H       1  LIG1        0.1424
     25 H          -6.2715   -0.1910   -0.4528 H       1  LIG1        0.1424
     26 C          -4.3721   -3.7162    0.0163 C.ar    1  LIG1        0.0826
     27 C          -3.7028   -4.9329    0.1292 C.ar    1  LIG1        0.0727
     28 C          -4.7016   -5.9550    0.1396 C.ar    1  LIG1        0.0679
     29 C          -5.9309   -5.3374    0.0337 C.ar    1  LIG1        0.0868
     30 N          -5.7076   -3.9843   -0.0361 N.ar    1  LIG1       -0.3493
     31 H          -6.4086   -3.2609   -0.1693 H       1  LIG1        0.1661
     32 C          -2.3021   -5.1304    0.2241 C.1     1  LIG1       -0.0656
     33 C          -1.1098   -5.3086    0.3037 C.1     1  LIG1       -0.1138
     34 H          -0.0628   -5.4846    0.3951 H       1  LIG1        0.1232
     35 N          -4.5189   -7.3666    0.2495 N.pl3   1  LIG1       -0.3553
     36 H          -3.9453   -7.7108   -0.5162 H       1  LIG1        0.1424
     37 H          -4.0196   -7.5940    1.1056 H       1  LIG1        0.1424
     38 C          -7.2476   -5.9285    0.0097 C.ar    1  LIG1        0.0821
     39 C          -8.5180   -5.3629   -0.1053 C.ar    1  LIG1        0.0720
     40 C          -9.4604   -6.4391   -0.0683 C.ar    1  LIG1        0.0584
     41 C          -8.7410   -7.6024    0.0610 C.ar    1  LIG1        0.0243
     42 N          -7.4050   -7.2710    0.1048 N.ar    1  LIG1       -0.3569
     43 H          -6.5986   -7.8800    0.1941 H       1  LIG1        0.1655
     44 H          -9.0726   -8.6257    0.1353 H       1  LIG1        0.0826
     45 C          -8.8372   -3.9913   -0.2559 C.1     1  LIG1       -0.0656
     46 C          -9.1290   -2.8278   -0.3968 C.1     1  LIG1       -0.1138
     47 H          -9.3823   -1.8019   -0.5278 H       1  LIG1        0.1232
     48 N         -10.8483   -6.2778   -0.1009 N.pl3   1  LIG1       -0.3559
     49 H         -11.1187   -5.3835   -0.4892 H       1  LIG1        0.1424
     50 H         -11.3332   -7.0288   -0.5721 H       1  LIG1        0.1424
@<TRIPOS>BOND
     1     6     5    1
     2     7     1    1
     3     5     1   ar
     4     5     4   ar
     5     1     2   ar
     6    22    21    1
     7    50    48    1
     8    47    46    1
     9    36    35    1
    10    49    48    1
    11    21    20    3
    12    25    23    1
    13    46    45    3
    14     4    14    1
    15     4     3   ar
    16    20    15    1
    17     2     8    1
    18     2     3   ar
    19    45    39    1
    20    14    15   ar
    21    14    18   ar
    22    15    16   ar
    23    31    30    1
    24    18    17   ar
    25    18    19    1
    26    39    40   ar
    27    39    38   ar
    28    48    40    1
    29    16    17   ar
    30    16    23    1
    31    40    41   ar
    32    17    26    1
    33    30    26   ar
    34    30    29   ar
    35    23    24    1
    36    38    29    1
    37    38    42   ar
    38    26    27   ar
    39    29    28   ar
    40    41    42   ar
    41    41    44    1
    42     8     9    3
    43    42    43    1
    44    27    28   ar
    45    27    32    1
    46     3    11    1
    47    28    35    1
    48    32    33    3
    49    35    37    1
    50    33    34    1
    51     9    10    1
    52    13    11    1
    53    11    12    1
