@<TRIPOS>MOLECULE
mol_data/opt/cam/geoms/mol2/13eh13eh-13eh.out
 38 40 0 0 0
SMALL
GASTEIGER

@<TRIPOS>ATOM
      1 C           1.2549   -0.3643   -0.1612 C.ar    1  LIG1        0.0195
      2 C           0.8543    0.9560   -0.1020 C.ar    1  LIG1        0.0632
      3 C          -0.5746    0.9511   -0.0378 C.ar    1  LIG1        0.0672
      4 C          -0.9858   -0.3650   -0.0647 C.ar    1  LIG1        0.0863
      5 N           0.1434   -1.1459   -0.1314 N.ar    1  LIG1       -0.3569
      6 H           0.1206   -2.1549   -0.1570 H       1  LIG1        0.1655
      7 H           2.2462   -0.7851   -0.2201 H       1  LIG1        0.0820
      8 C           1.6797    2.1121   -0.1097 C.1     1  LIG1       -0.0663
      9 C           2.3481    3.1148   -0.1164 C.1     1  LIG1       -0.1138
     10 H           2.9520    3.9923   -0.1213 H       1  LIG1        0.1232
     11 N          -1.4613    2.0612    0.0388 N.pl3   1  LIG1       -0.3553
     12 H          -1.4702    2.4534    0.9770 H       1  LIG1        0.1424
     13 H          -1.1537    2.8022   -0.5838 H       1  LIG1        0.1424
     14 C          -2.3193   -0.9161   -0.0497 C.ar    1  LIG1        0.0826
     15 C          -2.7646   -2.2354   -0.0400 C.ar    1  LIG1        0.0727
     16 C          -4.1924   -2.1886   -0.0402 C.ar    1  LIG1        0.0679
     17 C          -4.5656   -0.8594   -0.0506 C.ar    1  LIG1        0.0868
     18 N          -3.4168   -0.1094   -0.0544 N.ar    1  LIG1       -0.3493
     19 H          -3.3419    0.9048   -0.0865 H       1  LIG1        0.1661
     20 C          -1.9657   -3.4069   -0.0326 C.1     1  LIG1       -0.0656
     21 C          -1.2926   -4.4098   -0.0289 C.1     1  LIG1       -0.1138
     22 H          -0.7157   -5.3057   -0.0205 H       1  LIG1        0.1232
     23 N          -5.1102   -3.2821   -0.0266 N.pl3   1  LIG1       -0.3553
     24 H          -4.9609   -3.8805   -0.8349 H       1  LIG1        0.1424
     25 H          -4.9565   -3.8641    0.7928 H       1  LIG1        0.1424
     26 C          -5.8923   -0.2893   -0.0478 C.ar    1  LIG1        0.0821
     27 C          -6.3389    1.0326   -0.0620 C.ar    1  LIG1        0.0720
     28 C          -7.7693    0.9914   -0.0507 C.ar    1  LIG1        0.0584
     29 C          -8.1360   -0.3324   -0.0347 C.ar    1  LIG1        0.0243
     30 N          -6.9860   -1.0896   -0.0351 N.ar    1  LIG1       -0.3569
     31 H          -6.8860   -2.0993   -0.0251 H       1  LIG1        0.1655
     32 H          -9.1131   -0.7879   -0.0127 H       1  LIG1        0.0826
     33 C          -5.5517    2.2092   -0.1006 C.1     1  LIG1       -0.0656
     34 C          -4.9043    3.2277   -0.1443 C.1     1  LIG1       -0.1138
     35 H          -4.3316    4.1246   -0.1812 H       1  LIG1        0.1232
     36 N          -8.5936    2.1194   -0.0041 N.pl3   1  LIG1       -0.3559
     37 H          -8.1121    2.9546   -0.3112 H       1  LIG1        0.1424
     38 H          -9.4625    2.0075   -0.5079 H       1  LIG1        0.1424
@<TRIPOS>BOND
     1    24    23    1
     2    13    11    1
     3    38    36    1
     4    37    36    1
     5     7     1    1
     6    35    34    1
     7     1     5   ar
     8     1     2   ar
     9     6     5    1
    10    34    33    3
    11     5     4   ar
    12    10     9    1
    13     9     8    3
    14     8     2    1
    15     2     3   ar
    16    33    27    1
    17    19    18    1
    18     4    14    1
    19     4     3   ar
    20    27    28   ar
    21    27    26   ar
    22    18    17   ar
    23    18    14   ar
    24    28    29   ar
    25    28    36    1
    26    17    26    1
    27    17    16   ar
    28    14    15   ar
    29    26    30   ar
    30    16    15   ar
    31    16    23    1
    32    15    20    1
    33     3    11    1
    34    30    29   ar
    35    30    31    1
    36    29    32    1
    37    20    21    3
    38    21    22    1
    39    23    25    1
    40    11    12    1
