@<TRIPOS>MOLECULE
mol_data/opt/cam/geoms/mol2/13ei13ei13ei13ei.out
 54 57 0 0 0
SMALL
GASTEIGER

@<TRIPOS>ATOM
      1 C           0.3407    0.2128   -2.3766 C.ar    1  LIG1        0.0179
      2 C           0.6622    0.9395   -1.2503 C.ar    1  LIG1        0.0455
      3 C          -0.3903    0.7510   -0.2953 C.ar    1  LIG1       -0.0084
      4 C          -1.3132   -0.0836   -0.8841 C.ar    1  LIG1        0.0682
      5 N          -0.8427   -0.4159   -2.1437 N.ar    1  LIG1       -0.3581
      6 H          -1.3888   -0.8937   -2.8420 H       1  LIG1        0.1654
      7 H           0.8722    0.1059   -3.3092 H       1  LIG1        0.0819
      8 C           1.8392    1.7142   -1.0579 C.1     1  LIG1       -0.0679
      9 C           2.8315    2.3726   -0.8759 C.1     1  LIG1       -0.1139
     10 H           3.7087    2.9568   -0.7220 H       1  LIG1        0.1232
     11 C          -0.4351    1.3321    1.0795 C.3     1  LIG1       -0.0365
     12 H          -1.0758    0.7403    1.7363 H       1  LIG1        0.0279
     13 H          -0.8375    2.3494    1.0699 H       1  LIG1        0.0279
     14 H           0.5682    1.3761    1.5104 H       1  LIG1        0.0279
     15 C          -2.5594   -0.6412   -0.3867 C.ar    1  LIG1        0.0795
     16 C          -3.6586   -0.0483    0.2190 C.ar    1  LIG1        0.0549
     17 C          -4.6258   -1.0701    0.4826 C.ar    1  LIG1       -0.0077
     18 C          -4.0931   -2.2524    0.0198 C.ar    1  LIG1        0.0687
     19 N          -2.8414   -1.9756   -0.4982 N.ar    1  LIG1       -0.3506
     20 H          -2.2256   -2.6557   -0.9139 H       1  LIG1        0.1660
     21 C          -3.8193    1.3347    0.5032 C.1     1  LIG1       -0.0672
     22 C          -3.9822    2.5021    0.7536 C.1     1  LIG1       -0.1138
     23 H          -4.1248    3.5367    0.9631 H       1  LIG1        0.1232
     24 C          -5.9490   -0.8675    1.1436 C.3     1  LIG1       -0.0365
     25 H          -6.3192   -1.7994    1.5753 H       1  LIG1        0.0279
     26 H          -6.7028   -0.5214    0.4303 H       1  LIG1        0.0279
     27 H          -5.8720   -0.1171    1.9342 H       1  LIG1        0.0279
     28 C          -4.6067   -3.6117    0.0429 C.ar    1  LIG1        0.0795
     29 C          -5.8192   -4.1445   -0.3721 C.ar    1  LIG1        0.0549
     30 C          -5.7860   -5.5570   -0.1437 C.ar    1  LIG1       -0.0077
     31 C          -4.5504   -5.8451    0.3918 C.ar    1  LIG1        0.0687
     32 N          -3.8513   -4.6578    0.5001 N.ar    1  LIG1       -0.3506
     33 H          -2.9200   -4.5725    0.8738 H       1  LIG1        0.1660
     34 C          -6.8986   -3.4249   -0.9525 C.1     1  LIG1       -0.0672
     35 C          -7.8268   -2.8383   -1.4485 C.1     1  LIG1       -0.1138
     36 H          -8.6419   -2.3163   -1.8935 H       1  LIG1        0.1232
     37 C          -6.8962   -6.5132   -0.4307 C.3     1  LIG1       -0.0365
     38 H          -6.8070   -7.4127    0.1816 H       1  LIG1        0.0279
     39 H          -6.8877   -6.8337   -1.4767 H       1  LIG1        0.0279
     40 H          -7.8644   -6.0464   -0.2342 H       1  LIG1        0.0279
     41 C          -3.9670   -7.0974    0.8427 C.ar    1  LIG1        0.0790
     42 C          -3.8645   -8.3364    0.2284 C.ar    1  LIG1        0.0542
     43 C          -3.1761   -9.2169    1.1279 C.ar    1  LIG1       -0.0171
     44 C          -2.8811   -8.4834    2.2435 C.ar    1  LIG1        0.0063
     45 N          -3.3460   -7.2033    2.0616 N.ar    1  LIG1       -0.3583
     46 H          -3.3946   -6.4983    2.7788 H       1  LIG1        0.1654
     47 H          -2.3729   -8.7709    3.1516 H       1  LIG1        0.0810
     48 C          -4.3040   -8.6697   -1.0811 C.1     1  LIG1       -0.0672
     49 C          -4.6612   -8.9795   -2.1895 C.1     1  LIG1       -0.1138
     50 H          -4.9761   -9.2472   -3.1713 H       1  LIG1        0.1232
     51 C          -2.8398  -10.6485    0.8641 C.3     1  LIG1       -0.0371
     52 H          -2.3081  -11.0900    1.7099 H       1  LIG1        0.0278
     53 H          -2.2086  -10.7520   -0.0236 H       1  LIG1        0.0278
     54 H          -3.7418  -11.2411    0.6847 H       1  LIG1        0.0278
@<TRIPOS>BOND
     1     7     1    1
     2    50    49    1
     3     6     5    1
     4     1     5   ar
     5     1     2   ar
     6    49    48    3
     7     5     4   ar
     8    36    35    1
     9    39    37    1
    10    35    34    3
    11     2     8    1
    12     2     3   ar
    13    48    42    1
    14     8     9    3
    15    34    29    1
    16    20    19    1
    17     4    15    1
    18     4     3   ar
    19     9    10    1
    20    19    15   ar
    21    19    18   ar
    22    37    40    1
    23    37    30    1
    24    37    38    1
    25    15    16   ar
    26    29    30   ar
    27    29    28   ar
    28     3    11    1
    29    30    31   ar
    30    53    51    1
    31    18    28    1
    32    18    17   ar
    33    28    32   ar
    34    16    17   ar
    35    16    21    1
    36    42    41   ar
    37    42    43   ar
    38    31    32   ar
    39    31    41    1
    40    26    24    1
    41    17    24    1
    42    32    33    1
    43    21    22    3
    44    54    51    1
    45    22    23    1
    46    41    45   ar
    47    51    43    1
    48    51    52    1
    49    13    11    1
    50    11    14    1
    51    11    12    1
    52    43    44   ar
    53    24    25    1
    54    24    27    1
    55    45    44   ar
    56    45    46    1
    57    44    47    1
