@<TRIPOS>MOLECULE
mol_data/opt/cam/geoms/mol2/13ei13ei13ei13ei-.out
 54 57 0 0 0
SMALL
GASTEIGER

@<TRIPOS>ATOM
      1 C           0.3806    0.3783   -2.2395 C.ar    1  LIG1        0.0179
      2 C           0.6446    1.0604   -1.0710 C.ar    1  LIG1        0.0455
      3 C          -0.4337    0.8017   -0.1623 C.ar    1  LIG1       -0.0084
      4 C          -1.3139   -0.0277   -0.8201 C.ar    1  LIG1        0.0682
      5 N          -0.7929   -0.2894   -2.0763 N.ar    1  LIG1       -0.3581
      6 H          -1.3003   -0.7533   -2.8120 H       1  LIG1        0.1654
      7 H           0.9458    0.3275   -3.1569 H       1  LIG1        0.0819
      8 C           1.7936    1.8547   -0.8037 C.1     1  LIG1       -0.0679
      9 C           2.7616    2.5287   -0.5586 C.1     1  LIG1       -0.1139
     10 H           3.6175    3.1269   -0.3485 H       1  LIG1        0.1232
     11 C          -0.5390    1.3162    1.2356 C.3     1  LIG1       -0.0365
     12 H          -1.1783    0.6736    1.8443 H       1  LIG1        0.0279
     13 H          -0.9752    2.3192    1.2604 H       1  LIG1        0.0279
     14 H           0.4491    1.3722    1.6989 H       1  LIG1        0.0279
     15 C          -2.5603   -0.6398   -0.3928 C.ar    1  LIG1        0.0795
     16 C          -3.6923   -0.1068    0.2086 C.ar    1  LIG1        0.0549
     17 C          -4.6396   -1.1642    0.3904 C.ar    1  LIG1       -0.0077
     18 C          -4.0632   -2.3068   -0.1200 C.ar    1  LIG1        0.0687
     19 N          -2.8057   -1.9717   -0.5861 N.ar    1  LIG1       -0.3506
     20 H          -2.1496   -2.6214   -0.9891 H       1  LIG1        0.1660
     21 C          -3.8979    1.2551    0.5581 C.1     1  LIG1       -0.0672
     22 C          -4.0996    2.4035    0.8621 C.1     1  LIG1       -0.1138
     23 H          -4.2754    3.4220    1.1203 H       1  LIG1        0.1232
     24 C          -5.9792   -1.0275    1.0354 C.3     1  LIG1       -0.0365
     25 H          -6.3196   -1.9818    1.4420 H       1  LIG1        0.0279
     26 H          -6.7375   -0.6925    0.3216 H       1  LIG1        0.0279
     27 H          -5.9382   -0.2940    1.8443 H       1  LIG1        0.0279
     28 C          -4.5260   -3.6808   -0.1825 C.ar    1  LIG1        0.0795
     29 C          -5.7391   -4.2354   -0.5735 C.ar    1  LIG1        0.0549
     30 C          -5.6249   -5.6564   -0.4727 C.ar    1  LIG1       -0.0077
     31 C          -4.3412   -5.9240   -0.0327 C.ar    1  LIG1        0.0687
     32 N          -3.6965   -4.7197    0.1291 N.ar    1  LIG1       -0.3506
     33 H          -2.7755   -4.6348    0.5375 H       1  LIG1        0.1660
     34 C          -6.8737   -3.5343   -1.0626 C.1     1  LIG1       -0.0672
     35 C          -7.8495   -2.9703   -1.4899 C.1     1  LIG1       -0.1138
     36 H          -8.7039   -2.4598   -1.8698 H       1  LIG1        0.1232
     37 C          -6.7102   -6.6278   -0.8156 C.3     1  LIG1       -0.0365
     38 H          -7.0508   -7.1953    0.0591 H       1  LIG1        0.0279
     39 H          -6.3978   -7.3414   -1.5868 H       1  LIG1        0.0279
     40 H          -7.5779   -6.0925   -1.2050 H       1  LIG1        0.0279
     41 C          -3.6571   -7.1665    0.2499 C.ar    1  LIG1        0.0790
     42 C          -2.3420   -7.4083    0.6428 C.ar    1  LIG1        0.0542
     43 C          -2.1798   -8.8249    0.7905 C.ar    1  LIG1       -0.0171
     44 C          -3.3877   -9.3868    0.4860 C.ar    1  LIG1        0.0063
     45 N          -4.2695   -8.3839    0.1615 N.ar    1  LIG1       -0.3583
     46 H          -5.2336   -8.5169   -0.0909 H       1  LIG1        0.1654
     47 H          -3.6913  -10.4224    0.4740 H       1  LIG1        0.0810
     48 C          -1.3331   -6.4346    0.8659 C.1     1  LIG1       -0.0672
     49 C          -0.4720   -5.6107    1.0620 C.1     1  LIG1       -0.1138
     50 H           0.3051   -4.9049    1.2470 H       1  LIG1        0.1232
     51 C          -0.9250   -9.5252    1.1988 C.3     1  LIG1       -0.0371
     52 H          -0.5860   -9.1921    2.1843 H       1  LIG1        0.0278
     53 H          -0.1104   -9.3262    0.4958 H       1  LIG1        0.0278
     54 H          -1.0754  -10.6061    1.2421 H       1  LIG1        0.0278
@<TRIPOS>BOND
     1     7     1    1
     2     6     5    1
     3     1     5   ar
     4     1     2   ar
     5     5     4   ar
     6    36    35    1
     7    39    37    1
     8    35    34    3
     9    40    37    1
    10     2     8    1
    11     2     3   ar
    12    34    29    1
    13    20    19    1
    14     4    15    1
    15     4     3   ar
    16    37    30    1
    17    37    38    1
    18     8     9    3
    19    19    15   ar
    20    19    18   ar
    21    29    30   ar
    22    29    28   ar
    23     9    10    1
    24    30    31   ar
    25    15    16   ar
    26    28    18    1
    27    28    32   ar
    28     3    11    1
    29    18    17   ar
    30    46    45    1
    31    31    32   ar
    32    31    41    1
    33    32    33    1
    34    45    41   ar
    35    45    44   ar
    36    16    17   ar
    37    16    21    1
    38    41    42   ar
    39    26    24    1
    40    17    24    1
    41    47    44    1
    42    44    43   ar
    43    53    51    1
    44    21    22    3
    45    42    43   ar
    46    42    48    1
    47    43    51    1
    48    22    23    1
    49    48    49    3
    50    24    25    1
    51    24    27    1
    52    49    50    1
    53    51    54    1
    54    51    52    1
    55    11    13    1
    56    11    14    1
    57    11    12    1
