@<TRIPOS>MOLECULE
mol_data/opt/cam/geoms/mol2/13ei13ei13ei-13ei-.out
 54 57 0 0 0
SMALL
GASTEIGER

@<TRIPOS>ATOM
      1 C           1.1319   -0.1205   -1.0358 C.ar    1  LIG1        0.0179
      2 C           0.8979    1.0162   -0.2912 C.ar    1  LIG1        0.0455
      3 C          -0.4813    1.0062    0.0982 C.ar    1  LIG1       -0.0084
      4 C          -1.0326   -0.1390   -0.4335 C.ar    1  LIG1        0.0682
      5 N          -0.0318   -0.8192   -1.1054 N.ar    1  LIG1       -0.3581
      6 H          -0.1881   -1.6316   -1.6795 H       1  LIG1        0.1654
      7 H           2.0373   -0.4667   -1.5091 H       1  LIG1        0.0819
      8 C           1.8585    2.0066    0.0533 C.1     1  LIG1       -0.0679
      9 C           2.6594    2.8538    0.3570 C.1     1  LIG1       -0.1139
     10 H           3.3709    3.6015    0.6203 H       1  LIG1        0.1232
     11 C          -1.1500    2.0306    0.9545 C.3     1  LIG1       -0.0365
     12 H          -2.0173    1.6104    1.4674 H       1  LIG1        0.0279
     13 H          -1.5058    2.8793    0.3629 H       1  LIG1        0.0279
     14 H          -0.4519    2.4163    1.7015 H       1  LIG1        0.0279
     15 C          -2.3698   -0.6970   -0.3504 C.ar    1  LIG1        0.0795
     16 C          -3.6250   -0.1228   -0.5158 C.ar    1  LIG1        0.0549
     17 C          -4.6030   -1.1506   -0.3481 C.ar    1  LIG1       -0.0077
     18 C          -3.9123   -2.3228   -0.0966 C.ar    1  LIG1        0.0687
     19 N          -2.5686   -2.0259   -0.1107 N.ar    1  LIG1       -0.3506
     20 H          -1.8511   -2.6867    0.1560 H       1  LIG1        0.1660
     21 C          -3.9020    1.2279   -0.8580 C.1     1  LIG1       -0.0672
     22 C          -4.1707    2.3648   -1.1544 C.1     1  LIG1       -0.1138
     23 H          -4.3933    3.3711   -1.4239 H       1  LIG1        0.1232
     24 C          -6.0817   -0.9483   -0.4542 C.3     1  LIG1       -0.0365
     25 H          -6.6073   -1.2607    0.4553 H       1  LIG1        0.0279
     26 H          -6.5163   -1.4897   -1.3037 H       1  LIG1        0.0279
     27 H          -6.3009    0.1097   -0.6082 H       1  LIG1        0.0279
     28 C          -4.3678   -3.6711    0.1530 C.ar    1  LIG1        0.0795
     29 C          -3.6558   -4.8311    0.4525 C.ar    1  LIG1        0.0549
     30 C          -4.5902   -5.9062    0.5911 C.ar    1  LIG1       -0.0077
     31 C          -5.8386   -5.3747    0.3668 C.ar    1  LIG1        0.0687
     32 N          -5.6873   -4.0201    0.1219 N.ar    1  LIG1       -0.3506
     33 H          -6.4237   -3.4233   -0.2163 H       1  LIG1        0.1660
     34 C          -2.2506   -4.9355    0.6284 C.1     1  LIG1       -0.0672
     35 C          -1.0565   -5.0304    0.7809 C.1     1  LIG1       -0.1138
     36 H          -0.0071   -5.1385    0.9321 H       1  LIG1        0.1232
     37 C          -4.2500   -7.3143    0.9515 C.3     1  LIG1       -0.0365
     38 H          -3.4167   -7.3402    1.6582 H       1  LIG1        0.0279
     39 H          -3.9592   -7.8941    0.0706 H       1  LIG1        0.0279
     40 H          -5.1068   -7.8208    1.3997 H       1  LIG1        0.0279
     41 C          -7.1604   -5.9731    0.4011 C.ar    1  LIG1        0.0790
     42 C          -7.6588   -7.1425   -0.1545 C.ar    1  LIG1        0.0542
     43 C          -9.0483   -7.2346    0.1914 C.ar    1  LIG1       -0.0171
     44 C          -9.3424   -6.1222    0.9300 C.ar    1  LIG1        0.0063
     45 N          -8.2060   -5.3579    1.0415 N.ar    1  LIG1       -0.3583
     46 H          -8.1005   -4.5595    1.6457 H       1  LIG1        0.1654
     47 H         -10.2727   -5.8118    1.3811 H       1  LIG1        0.0810
     48 C          -6.9510   -8.0594   -0.9772 C.1     1  LIG1       -0.0672
     49 C          -6.3797   -8.8519   -1.6828 C.1     1  LIG1       -0.1138
     50 H          -5.8724   -9.5456   -2.3121 H       1  LIG1        0.1232
     51 C          -9.9782   -8.3326   -0.2107 C.3     1  LIG1       -0.0371
     52 H          -9.6324   -9.3015    0.1615 H       1  LIG1        0.0278
     53 H         -10.0484   -8.4159   -1.2994 H       1  LIG1        0.0278
     54 H         -10.9834   -8.1596    0.1803 H       1  LIG1        0.0278
@<TRIPOS>BOND
     1    50    49    1
     2    49    48    3
     3     6     5    1
     4     7     1    1
     5    23    22    1
     6    26    24    1
     7    53    51    1
     8    22    21    3
     9     5     1   ar
    10     5     4   ar
    11     1     2   ar
    12    48    42    1
    13    21    16    1
    14    27    24    1
    15    16    15   ar
    16    16    17   ar
    17    24    17    1
    18    24    25    1
    19     4    15    1
    20     4     3   ar
    21    15    19   ar
    22    17    18   ar
    23     2     8    1
    24     2     3   ar
    25    33    32    1
    26    51    52    1
    27    51    54    1
    28    51    43    1
    29    42    43   ar
    30    42    41   ar
    31    19    18   ar
    32    19    20    1
    33    18    28    1
    34     8     9    3
    35    39    37    1
    36     3    11    1
    37    32    28   ar
    38    32    31   ar
    39    28    29   ar
    40    43    44   ar
    41     9    10    1
    42    13    11    1
    43    31    41    1
    44    31    30   ar
    45    41    45   ar
    46    29    30   ar
    47    29    34    1
    48    30    37    1
    49    34    35    3
    50    35    36    1
    51    44    45   ar
    52    44    47    1
    53    37    40    1
    54    37    38    1
    55    11    12    1
    56    11    14    1
    57    45    46    1
