@<TRIPOS>MOLECULE
mol_data/opt/cam/geoms/mol2/13ei13ei-13ei-13ei.out
 54 57 0 0 0
SMALL
GASTEIGER

@<TRIPOS>ATOM
      1 C           1.2766   -0.3361   -0.2301 C.ar    1  LIG1        0.0179
      2 C           0.8641    0.9086   -0.6640 C.ar    1  LIG1        0.0455
      3 C          -0.5650    0.9241   -0.6297 C.ar    1  LIG1       -0.0084
      4 C          -0.9634   -0.3212   -0.1736 C.ar    1  LIG1        0.0682
      5 N           0.1717   -1.0645    0.0594 N.ar    1  LIG1       -0.3581
      6 H           0.1524   -2.0103    0.4143 H       1  LIG1        0.1654
      7 H           2.2718   -0.7349   -0.1129 H       1  LIG1        0.0819
      8 C           1.7047    1.9820   -1.0671 C.1     1  LIG1       -0.0679
      9 C           2.3997    2.9042   -1.4111 C.1     1  LIG1       -0.1139
     10 H           3.0234    3.7127   -1.7146 H       1  LIG1        0.1232
     11 C          -1.4182    2.0892   -1.0220 C.3     1  LIG1       -0.0365
     12 H          -2.1116    2.3855   -0.2264 H       1  LIG1        0.0279
     13 H          -2.0071    1.8893   -1.9259 H       1  LIG1        0.0279
     14 H          -0.7879    2.9528   -1.2417 H       1  LIG1        0.0279
     15 C          -2.2761   -0.8767    0.0673 C.ar    1  LIG1        0.0795
     16 C          -2.6661   -2.1092    0.5880 C.ar    1  LIG1        0.0549
     17 C          -4.0964   -2.1534    0.6106 C.ar    1  LIG1       -0.0077
     18 C          -4.5352   -0.9550    0.0958 C.ar    1  LIG1        0.0687
     19 N          -3.4218   -0.1914   -0.2113 N.ar    1  LIG1       -0.3506
     20 H          -3.4558    0.6753   -0.7222 H       1  LIG1        0.1660
     21 C          -1.8041   -3.1388    1.0492 C.1     1  LIG1       -0.0672
     22 C          -1.0759   -4.0186    1.4411 C.1     1  LIG1       -0.1138
     23 H          -0.4548   -4.8082    1.7966 H       1  LIG1        0.1232
     24 C          -4.9209   -3.2764    1.1471 C.3     1  LIG1       -0.0365
     25 H          -4.4220   -3.7442    1.9995 H       1  LIG1        0.0279
     26 H          -5.0870   -4.0505    0.3922 H       1  LIG1        0.0279
     27 H          -5.9033   -2.9239    1.4663 H       1  LIG1        0.0279
     28 C          -5.8605   -0.3980   -0.0869 C.ar    1  LIG1        0.0795
     29 C          -7.0440   -0.9362   -0.5804 C.ar    1  LIG1        0.0549
     30 C          -8.0328    0.0959   -0.5686 C.ar    1  LIG1       -0.0077
     31 C          -7.4178    1.2340   -0.0790 C.ar    1  LIG1        0.0687
     32 N          -6.1094    0.9136    0.1983 N.ar    1  LIG1       -0.3506
     33 H          -5.4678    1.5455    0.6579 H       1  LIG1        0.1660
     34 C          -7.2348   -2.2497   -1.0866 C.1     1  LIG1       -0.0672
     35 C          -7.4282   -3.3530   -1.5317 C.1     1  LIG1       -0.1138
     36 H          -7.5848   -4.3289   -1.9291 H       1  LIG1        0.1232
     37 C          -9.4450   -0.0678   -1.0354 C.3     1  LIG1       -0.0365
     38 H          -9.5943   -1.0784   -1.4196 H       1  LIG1        0.0279
     39 H          -9.6952    0.6260   -1.8465 H       1  LIG1        0.0279
     40 H         -10.1693    0.0769   -0.2246 H       1  LIG1        0.0279
     41 C          -7.9088    2.5739    0.1538 C.ar    1  LIG1        0.0790
     42 C          -7.2496    3.7141    0.6105 C.ar    1  LIG1        0.0542
     43 C          -8.2031    4.7835    0.6604 C.ar    1  LIG1       -0.0171
     44 C          -9.3932    4.2614    0.2381 C.ar    1  LIG1        0.0063
     45 N          -9.2079    2.9337   -0.0647 N.ar    1  LIG1       -0.3583
     46 H          -9.9226    2.3068   -0.3917 H       1  LIG1        0.1654
     47 H         -10.3595    4.7293    0.1282 H       1  LIG1        0.0810
     48 C          -5.8806    3.8135    0.9731 C.1     1  LIG1       -0.0672
     49 C          -4.7185    3.9062    1.2898 C.1     1  LIG1       -0.1138
     50 H          -3.7003    4.0168    1.5852 H       1  LIG1        0.1232
     51 C          -7.9249    6.1857    1.0940 C.3     1  LIG1       -0.0371
     52 H          -8.8267    6.7993    1.0388 H       1  LIG1        0.0278
     53 H          -7.1603    6.6529    0.4659 H       1  LIG1        0.0278
     54 H          -7.5570    6.2184    2.1240 H       1  LIG1        0.0278
@<TRIPOS>BOND
     1    36    35    1
     2    13    11    1
     3    39    37    1
     4    10     9    1
     5    35    34    3
     6    38    37    1
     7     9     8    3
     8    14    11    1
     9    34    29    1
    10     8     2    1
    11    37    30    1
    12    37    40    1
    13    11     3    1
    14    11    12    1
    15    20    19    1
    16     2     3   ar
    17     2     1   ar
    18     3     4   ar
    19    29    30   ar
    20    29    28   ar
    21    30    31   ar
    22    46    45    1
    23     1     7    1
    24     1     5   ar
    25    19    15   ar
    26    19    18   ar
    27     4     5   ar
    28     4    15    1
    29    28    18    1
    30    28    32   ar
    31    31    41    1
    32    31    32   ar
    33    45    41   ar
    34    45    44   ar
    35     5     6    1
    36    15    16   ar
    37    18    17   ar
    38    47    44    1
    39    41    42   ar
    40    32    33    1
    41    44    43   ar
    42    26    24    1
    43    53    51    1
    44    16    17   ar
    45    16    21    1
    46    42    43   ar
    47    42    48    1
    48    17    24    1
    49    43    51    1
    50    48    49    3
    51    52    51    1
    52    21    22    3
    53    51    54    1
    54    24    27    1
    55    24    25    1
    56    49    50    1
    57    22    23    1
