@<TRIPOS>MOLECULE
mol_data/opt/cam/geoms/mol2/13ei13ei-.out
 28 29 0 0 0
SMALL
GASTEIGER

@<TRIPOS>ATOM
      1 C           1.1902   -0.3316   -0.0182 C.ar    1  LIG1        0.0179
      2 C           0.8168    0.9976    0.0020 C.ar    1  LIG1        0.0455
      3 C          -0.6123    1.0424    0.0132 C.ar    1  LIG1       -0.0084
      4 C          -1.0504   -0.2705   -0.0007 C.ar    1  LIG1        0.0682
      5 N           0.0616   -1.0815   -0.0196 N.ar    1  LIG1       -0.3581
      6 H           0.0119   -2.0906   -0.0323 H       1  LIG1        0.1654
      7 H           2.1727   -0.7762   -0.0313 H       1  LIG1        0.0819
      8 C           1.6903    2.1193    0.0102 C.1     1  LIG1       -0.0679
      9 C           2.4131    3.0834    0.0174 C.1     1  LIG1       -0.1139
     10 H           3.0614    3.9286    0.0237 H       1  LIG1        0.1232
     11 C          -1.4283    2.2967    0.0357 C.3     1  LIG1       -0.0365
     12 H          -2.0599    2.3658    0.9296 H       1  LIG1        0.0279
     13 H          -2.0722    2.3897   -0.8471 H       1  LIG1        0.0279
     14 H          -0.7693    3.1669    0.0428 H       1  LIG1        0.0279
     15 C          -2.3811   -0.8402    0.0018 C.ar    1  LIG1        0.0790
     16 C          -2.8033   -2.1681   -0.0120 C.ar    1  LIG1        0.0542
     17 C          -4.2370   -2.1752   -0.0017 C.ar    1  LIG1       -0.0171
     18 C          -4.6308   -0.8671    0.0177 C.ar    1  LIG1        0.0063
     19 N          -3.5097   -0.0717    0.0197 N.ar    1  LIG1       -0.3583
     20 H          -3.5104    0.9336    0.0321 H       1  LIG1        0.1654
     21 H          -5.6205   -0.4368    0.0303 H       1  LIG1        0.0810
     22 C          -1.9743   -3.3201   -0.0325 C.1     1  LIG1       -0.0672
     23 C          -1.2757   -4.3051   -0.0500 C.1     1  LIG1       -0.1138
     24 H          -0.6809   -5.1890   -0.0653 H       1  LIG1        0.1232
     25 C          -5.1068   -3.3898   -0.0107 C.3     1  LIG1       -0.0371
     26 H          -4.9140   -4.0245    0.8595 H       1  LIG1        0.0278
     27 H          -4.9269   -4.0022   -0.8996 H       1  LIG1        0.0278
     28 H          -6.1638   -3.1151    0.0005 H       1  LIG1        0.0278
@<TRIPOS>BOND
     1    27    25    1
     2    13    11    1
     3    24    23    1
     4    23    22    3
     5    22    16    1
     6     6     5    1
     7     7     1    1
     8     5     1   ar
     9     5     4   ar
    10     1     2   ar
    11    16    17   ar
    12    16    15   ar
    13    25    17    1
    14    25    28    1
    15    25    26    1
    16    17    18   ar
    17     4    15    1
    18     4     3   ar
    19    15    19   ar
    20     2     8    1
    21     2     3   ar
    22     8     9    3
    23     3    11    1
    24     9    10    1
    25    18    19   ar
    26    18    21    1
    27    19    20    1
    28    11    14    1
    29    11    12    1
