@<TRIPOS>MOLECULE
mol_data/opt/cam/geoms/mol2/13ei13ei.out
 28 29 0 0 0
SMALL
GASTEIGER

@<TRIPOS>ATOM
      1 C           1.1040   -0.2540   -0.7879 C.ar    1  LIG1        0.0179
      2 C           0.8450    0.9715   -0.2122 C.ar    1  LIG1        0.0455
      3 C          -0.5260    0.9750    0.2073 C.ar    1  LIG1       -0.0084
      4 C          -1.0471   -0.2523   -0.1360 C.ar    1  LIG1        0.0682
      5 N          -0.0360   -0.9930   -0.7244 N.ar    1  LIG1       -0.3581
      6 H          -0.1813   -1.8743   -1.1887 H       1  LIG1        0.1654
      7 H           2.0118   -0.6370   -1.2271 H       1  LIG1        0.0819
      8 C           1.7774    2.0314   -0.0392 C.1     1  LIG1       -0.0679
      9 C           2.5544    2.9385    0.1182 C.1     1  LIG1       -0.1139
     10 H           3.2442    3.7390    0.2519 H       1  LIG1        0.1232
     11 C          -1.2212    2.0942    0.9098 C.3     1  LIG1       -0.0365
     12 H          -2.0686    1.7265    1.4920 H       1  LIG1        0.0279
     13 H          -1.6137    2.8291    0.2007 H       1  LIG1        0.0279
     14 H          -0.5315    2.6138    1.5795 H       1  LIG1        0.0279
     15 C          -2.3671   -0.8266    0.0606 C.ar    1  LIG1        0.0790
     16 C          -3.6362   -0.3309   -0.1986 C.ar    1  LIG1        0.0542
     17 C          -4.5865   -1.3351    0.1855 C.ar    1  LIG1       -0.0171
     18 C          -3.8650   -2.3986    0.6523 C.ar    1  LIG1        0.0063
     19 N          -2.5282   -2.0932    0.5616 N.ar    1  LIG1       -0.3583
     20 H          -1.7803   -2.6335    0.9645 H       1  LIG1        0.1654
     21 H          -4.1977   -3.3507    1.0373 H       1  LIG1        0.0810
     22 C          -3.9511    0.9197   -0.7950 C.1     1  LIG1       -0.0672
     23 C          -4.2487    1.9708   -1.3037 C.1     1  LIG1       -0.1138
     24 H          -4.5040    2.8990   -1.7598 H       1  LIG1        0.1232
     25 C          -6.0717   -1.2240    0.0668 C.3     1  LIG1       -0.0371
     26 H          -6.5642   -2.1300    0.4271 H       1  LIG1        0.0278
     27 H          -6.3771   -1.0630   -0.9715 H       1  LIG1        0.0278
     28 H          -6.4537   -0.3779    0.6458 H       1  LIG1        0.0278
@<TRIPOS>BOND
     1    24    23    1
     2    23    22    3
     3     7     1    1
     4     6     5    1
     5    27    25    1
     6    22    16    1
     7     1     5   ar
     8     1     2   ar
     9     5     4   ar
    10     2     8    1
    11     2     3   ar
    12    16    15   ar
    13    16    17   ar
    14     4    15    1
    15     4     3   ar
    16     8     9    3
    17    15    19   ar
    18    25    17    1
    19    25    26    1
    20    25    28    1
    21     9    10    1
    22    17    18   ar
    23    13    11    1
    24     3    11    1
    25    19    18   ar
    26    19    20    1
    27    18    21    1
    28    11    12    1
    29    11    14    1
