@<TRIPOS>MOLECULE
mol_data/opt/cam/geoms/mol2/13ei13ei-13ei.out
 41 43 0 0 0
SMALL
GASTEIGER

@<TRIPOS>ATOM
      1 C           1.2651   -0.3669    0.0181 C.ar    1  LIG1        0.0179
      2 C           0.8930    0.9630    0.0041 C.ar    1  LIG1        0.0455
      3 C          -0.5353    1.0103   -0.0024 C.ar    1  LIG1       -0.0084
      4 C          -0.9760   -0.3021    0.0081 C.ar    1  LIG1        0.0682
      5 N           0.1365   -1.1153    0.0204 N.ar    1  LIG1       -0.3581
      6 H           0.0887   -2.1241    0.0287 H       1  LIG1        0.1654
      7 H           2.2472   -0.8126    0.0262 H       1  LIG1        0.0819
      8 C           1.7697    2.0824   -0.0028 C.1     1  LIG1       -0.0679
      9 C           2.4975    3.0427   -0.0090 C.1     1  LIG1       -0.1139
     10 H           3.1492    3.8853   -0.0148 H       1  LIG1        0.1232
     11 C          -1.3506    2.2640   -0.0176 C.3     1  LIG1       -0.0365
     12 H          -1.9907    2.3523    0.8671 H       1  LIG1        0.0279
     13 H          -1.9926    2.3299   -0.9029 H       1  LIG1        0.0279
     14 H          -0.6901    3.1332   -0.0293 H       1  LIG1        0.0279
     15 C          -2.3051   -0.8741    0.0075 C.ar    1  LIG1        0.0795
     16 C          -2.7121   -2.2093    0.0127 C.ar    1  LIG1        0.0549
     17 C          -4.1391   -2.2371    0.0093 C.ar    1  LIG1       -0.0077
     18 C          -4.5622   -0.9218    0.0021 C.ar    1  LIG1        0.0687
     19 N          -3.4398   -0.1211    0.0012 N.ar    1  LIG1       -0.3506
     20 H          -3.4786    0.8883   -0.0010 H       1  LIG1        0.1660
     21 C          -1.8732   -3.3542    0.0202 C.1     1  LIG1       -0.0672
     22 C          -1.1708   -4.3368    0.0269 C.1     1  LIG1       -0.1138
     23 H          -0.5659   -5.2141    0.0320 H       1  LIG1        0.1232
     24 C          -4.9662   -3.4841    0.0137 C.3     1  LIG1       -0.0365
     25 H          -4.3184   -4.3623    0.0309 H       1  LIG1        0.0279
     26 H          -5.5940   -3.5681   -0.8814 H       1  LIG1        0.0279
     27 H          -5.6146   -3.5476    0.8956 H       1  LIG1        0.0279
     28 C          -5.8903   -0.3484   -0.0045 C.ar    1  LIG1        0.0790
     29 C          -6.3158    0.9785   -0.0018 C.ar    1  LIG1        0.0542
     30 C          -7.7493    0.9827   -0.0122 C.ar    1  LIG1       -0.0171
     31 C          -8.1409   -0.3260   -0.0207 C.ar    1  LIG1        0.0063
     32 N          -7.0190   -1.1192   -0.0158 N.ar    1  LIG1       -0.3583
     33 H          -7.0203   -2.1242   -0.0227 H       1  LIG1        0.1654
     34 H          -9.1298   -0.7583   -0.0297 H       1  LIG1        0.0810
     35 C          -5.4971    2.1374    0.0095 C.1     1  LIG1       -0.0672
     36 C          -4.8256    3.1408    0.0187 C.1     1  LIG1       -0.1138
     37 H          -4.2452    4.0344    0.0270 H       1  LIG1        0.1232
     38 C          -8.6207    2.1960   -0.0130 C.3     1  LIG1       -0.0371
     39 H          -9.6774    1.9199   -0.0226 H       1  LIG1        0.0278
     40 H          -8.4279    2.8241   -0.8880 H       1  LIG1        0.0278
     41 H          -8.4416    2.8155    0.8710 H       1  LIG1        0.0278
@<TRIPOS>BOND
     1    13    11    1
     2    40    38    1
     3    26    24    1
     4    34    31    1
     5    14    11    1
     6    33    32    1
     7    39    38    1
     8    31    32   ar
     9    31    30   ar
    10    11     3    1
    11    11    12    1
    12    32    28   ar
    13    10     9    1
    14    38    30    1
    15    38    41    1
    16    30    29   ar
    17     9     8    3
    18    28    29   ar
    19    28    18    1
    20     8     2    1
    21     3     2   ar
    22     3     4   ar
    23    29    35    1
    24    20    19    1
    25    19    18   ar
    26    19    15   ar
    27    18    17   ar
    28     2     1   ar
    29    15     4    1
    30    15    16   ar
    31     4     5   ar
    32    17    16   ar
    33    17    24    1
    34    35    36    3
    35    16    21    1
    36    24    25    1
    37    24    27    1
    38     1     5   ar
    39     1     7    1
    40    36    37    1
    41    21    22    3
    42     5     6    1
    43    22    23    1
