@<TRIPOS>MOLECULE
mol_data/opt/cam/geoms/mol2/13ei13ei-12lh4ii.out
 50 53 0 0 0
SMALL
GASTEIGER

@<TRIPOS>ATOM
      1 C           0.9922   -0.1436    0.8112 C.ar    1  LIG1        0.0213
      2 C           0.6700    1.0846    0.2498 C.ar    1  LIG1        0.0840
      3 C          -0.7171    1.0178   -0.1142 C.ar    1  LIG1        0.1590
      4 C          -1.1923   -0.2450    0.2284 C.ar    1  LIG1        0.1098
      5 N          -0.1131   -0.9455    0.7741 N.ar    1  LIG1       -0.3553
      6 H          -0.2132   -1.7797    1.3307 H       1  LIG1        0.1655
      7 H           1.9268   -0.4827    1.2300 H       1  LIG1        0.0820
      8 C           1.5438    2.1842    0.0589 C.1     1  LIG1       -0.0645
      9 C           2.2916    3.1227   -0.0994 C.1     1  LIG1       -0.1137
     10 H           2.9425    3.9525   -0.2455 H       1  LIG1        0.1232
     11 O          -1.3721    2.0266   -0.7239 O.3     1  LIG1       -0.5035
     12 H          -2.3327    1.8487   -0.6754 H       1  LIG1        0.2923
     13 C          -2.4894   -0.8394    0.0301 C.ar    1  LIG1        0.1105
     14 C          -3.7342   -0.2483   -0.1376 C.ar    1  LIG1        0.1628
     15 C          -4.7209   -1.2690   -0.3110 C.ar    1  LIG1        0.0952
     16 C          -4.0342   -2.4895   -0.2427 C.ar    1  LIG1        0.1018
     17 N          -2.7032   -2.2049   -0.0339 N.ar    1  LIG1       -0.3466
     18 H          -1.9815   -2.9053   -0.1014 H       1  LIG1        0.1662
     19 O          -3.9378    1.1112   -0.1723 O.3     1  LIG1       -0.4917
     20 C          -4.6577    1.6513    0.9514 C.3     1  LIG1        0.0789
     21 H          -4.7100    2.7292    0.7906 H       1  LIG1        0.0660
     22 H          -5.6673    1.2337    0.9911 H       1  LIG1        0.0660
     23 H          -4.1290    1.4393    1.8870 H       1  LIG1        0.0660
     24 C          -6.1085   -1.0832   -0.5125 C.1     1  LIG1       -0.0637
     25 C          -7.2970   -0.9121   -0.6778 C.1     1  LIG1       -0.1137
     26 H          -8.3380   -0.7575   -0.8425 H       1  LIG1        0.1232
     27 C          -4.4917   -3.8429   -0.3654 C.ar    1  LIG1        0.1543
     28 C          -5.7135   -4.4346   -0.5303 C.ar    1  LIG1        0.0017
     29 C          -5.4858   -5.8519   -0.5726 C.ar    1  LIG1        0.0711
     30 C          -4.1206   -6.0415   -0.4229 C.ar    1  LIG1        0.1545
     31 O          -3.5173   -4.8117   -0.3032 O.2     1  LIG1       -0.4519
     32 H          -6.6633   -3.9321   -0.6207 H       1  LIG1        0.0668
     33 C          -6.4936   -6.8191   -0.8211 C.1     1  LIG1       -0.0658
     34 C          -7.3955   -7.5888   -1.0629 C.1     1  LIG1       -0.1138
     35 H          -8.1804   -8.2742   -1.2831 H       1  LIG1        0.1232
     36 C          -3.5379   -8.4215    0.1602 C.ar    1  LIG1        0.1308
     37 C          -2.6388   -9.4916    0.0957 C.ar    1  LIG1       -0.0192
     38 C          -3.2111   -7.1825   -0.4459 C.ar    1  LIG1        0.0601
     39 C          -1.4056   -9.3364   -0.5391 C.ar    1  LIG1       -0.0583
     40 H          -2.8886  -10.4407    0.5536 H       1  LIG1        0.0654
     41 C          -1.9553   -7.0540   -1.0614 C.ar    1  LIG1       -0.0475
     42 C          -1.0551   -8.1151   -1.1117 C.ar    1  LIG1       -0.0609
     43 H          -1.7027   -6.1053   -1.5229 H       1  LIG1        0.0626
     44 H          -0.7195  -10.1773   -0.5788 H       1  LIG1        0.0619
     45 O          -4.7287   -8.4718    0.8108 O.3     1  LIG1       -0.4944
     46 C          -5.1644   -9.7059    1.3582 C.3     1  LIG1        0.0788
     47 H          -6.1562   -9.5133    1.7677 H       1  LIG1        0.0660
     48 H          -5.2345  -10.4850    0.5893 H       1  LIG1        0.0660
     49 H          -4.4997  -10.0495    2.1610 H       1  LIG1        0.0660
     50 H          -0.0966   -7.9921   -1.6054 H       1  LIG1        0.0618
@<TRIPOS>BOND
     1    50    42    1
     2    43    41    1
     3    35    34    1
     4    42    41   ar
     5    42    39   ar
     6    34    33    3
     7    41    38   ar
     8    26    25    1
     9    33    29    1
    10    11    12    1
    11    11     3    1
    12    25    24    3
    13    32    28    1
    14    44    39    1
    15    29    28   ar
    16    29    30   ar
    17    39    37   ar
    18    28    27   ar
    19    24    15    1
    20    38    30    1
    21    38    36   ar
    22    30    31   ar
    23    27    31   ar
    24    27    16    1
    25    15    16   ar
    26    15    14   ar
    27    10     9    1
    28    16    17   ar
    29    19    14    1
    30    19    20    1
    31    14    13   ar
    32     3     4   ar
    33     3     2   ar
    34    18    17    1
    35     9     8    3
    36    17    13   ar
    37    13     4    1
    38     8     2    1
    39    37    36   ar
    40    37    40    1
    41    36    45    1
    42     4     5   ar
    43     2     1   ar
    44    48    46    1
    45     5     1   ar
    46     5     6    1
    47    21    20    1
    48    45    46    1
    49     1     7    1
    50    20    22    1
    51    20    23    1
    52    46    47    1
    53    46    49    1
