@<TRIPOS>MOLECULE
mol_data/opt/cam/geoms/mol2/13ei13ei-13ei-13ei-.out
 54 57 0 0 0
SMALL
GASTEIGER

@<TRIPOS>ATOM
      1 C           1.2452   -0.2694   -0.5731 C.ar    1  LIG1        0.0179
      2 C           0.7840    0.9808   -0.9362 C.ar    1  LIG1        0.0455
      3 C          -0.6356    0.9803   -0.7691 C.ar    1  LIG1       -0.0084
      4 C          -0.9800   -0.2793   -0.3088 C.ar    1  LIG1        0.0682
      5 N           0.1781   -1.0159   -0.2003 N.ar    1  LIG1       -0.3581
      6 H           0.1997   -1.9708    0.1291 H       1  LIG1        0.1654
      7 H           2.2502   -0.6605   -0.5587 H       1  LIG1        0.0819
      8 C           1.5742    2.0725   -1.3891 C.1     1  LIG1       -0.0679
      9 C           2.2262    3.0101   -1.7736 C.1     1  LIG1       -0.1139
     10 H           2.8119    3.8321   -2.1141 H       1  LIG1        0.1232
     11 C          -1.5308    2.1461   -1.0498 C.3     1  LIG1       -0.0365
     12 H          -2.1428    2.4159   -0.1817 H       1  LIG1        0.0279
     13 H          -2.2027    1.9621   -1.8976 H       1  LIG1        0.0279
     14 H          -0.9306    3.0204   -1.3078 H       1  LIG1        0.0279
     15 C          -2.2601   -0.8575    0.0344 C.ar    1  LIG1        0.0795
     16 C          -2.5854   -2.1075    0.5562 C.ar    1  LIG1        0.0549
     17 C          -4.0086   -2.1790    0.6917 C.ar    1  LIG1       -0.0077
     18 C          -4.5082   -0.9786    0.2450 C.ar    1  LIG1        0.0687
     19 N          -3.4364   -0.1842   -0.1300 N.ar    1  LIG1       -0.3506
     20 H          -3.5260    0.6758   -0.6455 H       1  LIG1        0.1660
     21 C          -1.6729   -3.1323    0.9212 C.1     1  LIG1       -0.0672
     22 C          -0.9027   -4.0088    1.2317 C.1     1  LIG1       -0.1138
     23 H          -0.2433   -4.7960    1.5165 H       1  LIG1        0.1232
     24 C          -4.7719   -3.3326    1.2529 C.3     1  LIG1       -0.0365
     25 H          -4.2260   -3.7893    2.0825 H       1  LIG1        0.0279
     26 H          -4.9384   -4.1066    0.4980 H       1  LIG1        0.0279
     27 H          -5.7536   -3.0161    1.6094 H       1  LIG1        0.0279
     28 C          -5.8641   -0.4657    0.1754 C.ar    1  LIG1        0.0795
     29 C          -7.0374   -1.0180   -0.3210 C.ar    1  LIG1        0.0549
     30 C          -8.0846   -0.0557   -0.1590 C.ar    1  LIG1       -0.0077
     31 C          -7.5170    1.0585    0.4175 C.ar    1  LIG1        0.0687
     32 N          -6.1751    0.7924    0.6157 N.ar    1  LIG1       -0.3506
     33 H          -5.5162    1.4342    1.0259 H       1  LIG1        0.1660
     34 C          -7.1790   -2.2980   -0.9215 C.1     1  LIG1       -0.0672
     35 C          -7.3277   -3.3767   -1.4377 C.1     1  LIG1       -0.1138
     36 H          -7.4522   -4.3265   -1.9036 H       1  LIG1        0.1232
     37 C          -9.5142   -0.2513   -0.5424 C.3     1  LIG1       -0.0365
     38 H          -9.8225   -1.2834   -0.3590 H       1  LIG1        0.0279
     39 H          -9.6761   -0.0400   -1.6036 H       1  LIG1        0.0279
     40 H         -10.1667    0.4179    0.0217 H       1  LIG1        0.0279
     41 C          -8.0946    2.3251    0.8341 C.ar    1  LIG1        0.0790
     42 C          -8.9147    3.2241    0.1693 C.ar    1  LIG1        0.0542
     43 C          -9.1725    4.3222    1.0560 C.ar    1  LIG1       -0.0171
     44 C          -8.4979    4.0553    2.2151 C.ar    1  LIG1        0.0063
     45 N          -7.8377    2.8587    2.0718 N.ar    1  LIG1       -0.3583
     46 H          -7.3869    2.3539    2.8173 H       1  LIG1        0.1654
     47 H          -8.4322    4.6254    3.1295 H       1  LIG1        0.0810
     48 C          -9.3736    3.1182   -1.1713 C.1     1  LIG1       -0.0672
     49 C          -9.7730    3.0579   -2.3067 C.1     1  LIG1       -0.1138
     50 H         -10.1187    3.0013   -3.3127 H       1  LIG1        0.1232
     51 C         -10.0028    5.5236    0.7412 C.3     1  LIG1       -0.0371
     52 H         -11.0300    5.2414    0.4919 H       1  LIG1        0.0278
     53 H          -9.6040    6.0683   -0.1198 H       1  LIG1        0.0278
     54 H         -10.0376    6.2113    1.5893 H       1  LIG1        0.0278
@<TRIPOS>BOND
     1    50    49    1
     2    49    48    3
     3    10     9    1
     4    36    35    1
     5    13    11    1
     6     9     8    3
     7    39    37    1
     8    35    34    3
     9     8     2    1
    10    14    11    1
    11    48    42    1
    12    11     3    1
    13    11    12    1
    14     2     3   ar
    15     2     1   ar
    16    34    29    1
    17     3     4   ar
    18    20    19    1
    19     1     7    1
    20     1     5   ar
    21    37    38    1
    22    37    30    1
    23    37    40    1
    24    29    30   ar
    25    29    28   ar
    26     4     5   ar
    27     4    15    1
    28     5     6    1
    29    30    31   ar
    30    19    15   ar
    31    19    18   ar
    32    53    51    1
    33    15    16   ar
    34    42    41   ar
    35    42    43   ar
    36    28    18    1
    37    28    32   ar
    38    18    17   ar
    39    31    32   ar
    40    31    41    1
    41    52    51    1
    42    26    24    1
    43    16    17   ar
    44    16    21    1
    45    32    33    1
    46    17    24    1
    47    51    43    1
    48    51    54    1
    49    41    45   ar
    50    21    22    3
    51    43    44   ar
    52    22    23    1
    53    24    27    1
    54    24    25    1
    55    45    44   ar
    56    45    46    1
    57    44    47    1
