@<TRIPOS>MOLECULE
mol_data/opt/cam/geoms/mol2/13ei13ei13ei.out
 41 43 0 0 0
SMALL
GASTEIGER

@<TRIPOS>ATOM
      1 C           0.8303   -0.0397   -1.5550 C.ar    1  LIG1        0.0179
      2 C           0.8186    0.9625   -0.6087 C.ar    1  LIG1        0.0455
      3 C          -0.4445    0.9083    0.0676 C.ar    1  LIG1       -0.0084
      4 C          -1.1525   -0.1267   -0.5003 C.ar    1  LIG1        0.0682
      5 N          -0.3536   -0.7043   -1.4733 N.ar    1  LIG1       -0.3581
      6 H          -0.6803   -1.3846   -2.1399 H       1  LIG1        0.1654
      7 H           1.5941   -0.3152   -2.2652 H       1  LIG1        0.0819
      8 C           1.8788    1.8692   -0.3325 C.1     1  LIG1       -0.0679
      9 C           2.7674    2.6434   -0.0828 C.1     1  LIG1       -0.1139
     10 H           3.5545    3.3284    0.1311 H       1  LIG1        0.1232
     11 C          -0.8717    1.7938    1.1913 C.3     1  LIG1       -0.0365
     12 H          -1.6496    1.3187    1.7924 H       1  LIG1        0.0279
     13 H          -1.2831    2.7377    0.8216 H       1  LIG1        0.0279
     14 H          -0.0226    2.0320    1.8367 H       1  LIG1        0.0279
     15 C          -2.4704   -0.6642   -0.2074 C.ar    1  LIG1        0.0795
     16 C          -3.7078   -0.0500   -0.0729 C.ar    1  LIG1        0.0549
     17 C          -4.6813   -1.0650    0.1935 C.ar    1  LIG1       -0.0077
     18 C          -4.0114   -2.2680    0.2009 C.ar    1  LIG1        0.0687
     19 N          -2.6754   -2.0067   -0.0394 N.ar    1  LIG1       -0.3506
     20 H          -1.9514   -2.7053   -0.0842 H       1  LIG1        0.1660
     21 C          -3.9765    1.3392   -0.2055 C.1     1  LIG1       -0.0672
     22 C          -4.2319    2.5116   -0.3146 C.1     1  LIG1       -0.1138
     23 H          -4.4533    3.5481   -0.4219 H       1  LIG1        0.1232
     24 C          -6.1382   -0.8352    0.4258 C.3     1  LIG1       -0.0365
     25 H          -6.5789   -1.6555    0.9958 H       1  LIG1        0.0279
     26 H          -6.6878   -0.7669   -0.5177 H       1  LIG1        0.0279
     27 H          -6.2964    0.0988    0.9703 H       1  LIG1        0.0279
     28 C          -4.4737   -3.6242    0.4423 C.ar    1  LIG1        0.0790
     29 C          -5.5299   -4.3446   -0.0947 C.ar    1  LIG1        0.0542
     30 C          -5.5161   -5.6516    0.4970 C.ar    1  LIG1       -0.0171
     31 C          -4.4550   -5.6794    1.3589 C.ar    1  LIG1        0.0063
     32 N          -3.8208   -4.4612    1.3117 N.ar    1  LIG1       -0.3583
     33 H          -3.1034   -4.1571    1.9495 H       1  LIG1        0.1654
     34 H          -4.0987   -6.4720    1.9994 H       1  LIG1        0.0810
     35 C          -6.4336   -3.8999   -1.0970 C.1     1  LIG1       -0.0672
     36 C          -7.2106   -3.5521   -1.9499 C.1     1  LIG1       -0.1138
     37 H          -7.8921   -3.2400   -2.7068 H       1  LIG1        0.1232
     38 C          -6.4749   -6.7574    0.1965 C.3     1  LIG1       -0.0371
     39 H          -6.2379   -7.6522    0.7764 H       1  LIG1        0.0278
     40 H          -6.4531   -7.0257   -0.8640 H       1  LIG1        0.0278
     41 H          -7.5029   -6.4651    0.4301 H       1  LIG1        0.0278
@<TRIPOS>BOND
     1    37    36    1
     2     7     1    1
     3     6     5    1
     4    36    35    3
     5     1     5   ar
     6     1     2   ar
     7     5     4   ar
     8    35    29    1
     9    40    38    1
    10     2     8    1
    11     2     3   ar
    12    26    24    1
    13     4    15    1
    14     4     3   ar
    15    23    22    1
    16     8     9    3
    17    22    21    3
    18    15    16   ar
    19    15    19   ar
    20    21    16    1
    21    29    28   ar
    22    29    30   ar
    23    20    19    1
    24     9    10    1
    25    16    17   ar
    26    19    18   ar
    27     3    11    1
    28    17    18   ar
    29    17    24    1
    30    38    41    1
    31    38    30    1
    32    38    39    1
    33    18    28    1
    34    24    27    1
    35    24    25    1
    36    28    32   ar
    37    30    31   ar
    38    13    11    1
    39    11    12    1
    40    11    14    1
    41    32    31   ar
    42    32    33    1
    43    31    34    1
