@<TRIPOS>MOLECULE
mol_data/opt/cam/geoms/mol2/13ei4dd6ie13ie.out
 54 57 0 0 0
SMALL
GASTEIGER

@<TRIPOS>ATOM
      1 C           0.9426    0.6706   -1.4305 C.ar    1  LIG1        0.0179
      2 C           0.9595    1.1847   -0.1513 C.ar    1  LIG1        0.0454
      3 C          -0.2914    0.8602    0.4650 C.ar    1  LIG1       -0.0098
      4 C          -1.0222    0.1589   -0.4732 C.ar    1  LIG1        0.0519
      5 N          -0.2432    0.0352   -1.6098 N.ar    1  LIG1       -0.3593
      6 H          -0.5689   -0.3425   -2.4846 H       1  LIG1        0.1654
      7 H           1.6873    0.7223   -2.2092 H       1  LIG1        0.0819
      8 C           2.0341    1.8870    0.4603 C.1     1  LIG1       -0.0679
      9 C           2.9347    2.4802    0.9961 C.1     1  LIG1       -0.1139
     10 H           3.7327    3.0091    1.4636 H       1  LIG1        0.1232
     11 C          -0.6506    1.1806    1.8796 C.3     1  LIG1       -0.0365
     12 H          -1.4103    0.4987    2.2684 H       1  LIG1        0.0279
     13 H          -1.0441    2.1968    1.9722 H       1  LIG1        0.0279
     14 H           0.2339    1.1066    2.5163 H       1  LIG1        0.0279
     15 C          -3.4848    0.1397    0.0844 C.ar    1  LIG1        0.0615
     16 C          -4.7051   -0.5374    0.1519 C.ar    1  LIG1       -0.0347
     17 C          -2.3292   -0.4969   -0.4069 C.ar    1  LIG1        0.0172
     18 C          -4.8408   -1.8487   -0.2875 C.ar    1  LIG1        0.0025
     19 H          -5.5714   -0.0200    0.5481 H       1  LIG1        0.0637
     20 C          -2.4719   -1.8080   -0.8645 C.ar    1  LIG1       -0.0334
     21 C          -3.6969   -2.4700   -0.8210 C.ar    1  LIG1        0.0602
     22 H          -1.6042   -2.3344   -1.2457 H       1  LIG1        0.0637
     23 N          -3.4977    2.6331    0.7888 N.1     1  LIG1       -0.1908
     24 C          -3.4646    1.5196    0.4782 C.1     1  LIG1        0.0998
     25 N          -3.7954   -4.8785   -1.7757 N.1     1  LIG1       -0.1908
     26 C          -3.7655   -3.8050   -1.3469 C.1     1  LIG1        0.0998
     27 C          -6.4393   -3.6337    0.5788 C.ar    1  LIG1        0.0468
     28 C          -6.1686   -2.5153   -0.2316 C.ar    1  LIG1        0.0056
     29 C          -7.2066   -2.0209   -1.0082 C.ar    1  LIG1       -0.0347
     30 C          -8.4756   -2.6015   -0.9796 C.ar    1  LIG1        0.0526
     31 C          -8.6772   -3.6650   -0.0764 C.ar    1  LIG1        0.1030
     32 N          -7.6572   -4.1616    0.6410 N.ar    1  LIG1       -0.2486
     33 H          -7.0287   -1.1917   -1.6848 H       1  LIG1        0.0637
     34 C          -5.3961   -4.2908    1.4392 C.3     1  LIG1       -0.0217
     35 H          -4.6677   -3.5728    1.8216 H       1  LIG1        0.0293
     36 H          -4.8510   -5.0492    0.8694 H       1  LIG1        0.0293
     37 H          -5.8866   -4.7860    2.2768 H       1  LIG1        0.0293
     38 C          -9.4478   -2.1604   -1.9287 C.1     1  LIG1       -0.0675
     39 C         -10.1973   -1.7676   -2.7848 C.1     1  LIG1       -0.1138
     40 H         -10.8771   -1.4358   -3.5358 H       1  LIG1        0.1232
     41 C          -9.9496   -4.3516    0.1398 C.ar    1  LIG1        0.0703
     42 C         -11.2806   -3.9673    0.1723 C.ar    1  LIG1       -0.0083
     43 C         -12.0271   -5.1311    0.5377 C.ar    1  LIG1        0.0455
     44 C         -11.1285   -6.1644    0.7300 C.ar    1  LIG1        0.0179
     45 N          -9.8902   -5.6823    0.4963 N.ar    1  LIG1       -0.3581
     46 H          -9.0106   -6.1541    0.6376 H       1  LIG1        0.1654
     47 H         -11.3035   -7.1904    1.0141 H       1  LIG1        0.0819
     48 C         -11.8914   -2.6153   -0.0064 C.3     1  LIG1       -0.0365
     49 H         -12.7451   -2.5096    0.6673 H       1  LIG1        0.0279
     50 H         -12.2535   -2.4618   -1.0265 H       1  LIG1        0.0279
     51 H         -11.1807   -1.8157    0.2067 H       1  LIG1        0.0279
     52 C         -13.4373   -5.2019    0.7042 C.1     1  LIG1       -0.0679
     53 C         -14.6332   -5.2437    0.8442 C.1     1  LIG1       -0.1139
     54 H         -15.6902   -5.2882    0.9681 H       1  LIG1        0.1232
@<TRIPOS>BOND
     1    40    39    1
     2    39    38    3
     3     6     5    1
     4     7     1    1
     5    38    30    1
     6    25    26    3
     7    33    29    1
     8     5     1   ar
     9     5     4   ar
    10     1     2   ar
    11    26    21    1
    12    22    20    1
    13    50    48    1
    14    29    30   ar
    15    29    28   ar
    16    30    31   ar
    17    20    21   ar
    18    20    17   ar
    19    21    18   ar
    20     4    17    1
    21     4     3   ar
    22    17    15   ar
    23    18    28    1
    24    18    16   ar
    25    28    27   ar
    26     2     8    1
    27     2     3   ar
    28    31    41    1
    29    31    32   ar
    30    48    42    1
    31    48    51    1
    32    48    49    1
    33    15    16   ar
    34    15    24    1
    35    41    42   ar
    36    41    45   ar
    37    16    19    1
    38    42    43   ar
    39     8     9    3
    40     3    11    1
    41    24    23    3
    42    45    46    1
    43    45    44   ar
    44    43    52    1
    45    43    44   ar
    46    27    32   ar
    47    27    34    1
    48    52    53    3
    49    44    47    1
    50    53    54    1
    51    36    34    1
    52     9    10    1
    53    34    35    1
    54    34    37    1
    55    11    13    1
    56    11    12    1
    57    11    14    1
