@<TRIPOS>MOLECULE
mol_data/opt/cam/geoms/mol2/13ei13ei-13ei13ei-.out
 54 57 0 0 0
SMALL
GASTEIGER

@<TRIPOS>ATOM
      1 C           1.3243   -0.3280    0.0066 C.ar    1  LIG1        0.0179
      2 C           0.9414    0.9627   -0.3021 C.ar    1  LIG1        0.0455
      3 C          -0.4875    0.9987   -0.3044 C.ar    1  LIG1       -0.0084
      4 C          -0.9167   -0.2799    0.0083 C.ar    1  LIG1        0.0682
      5 N           0.2020   -1.0630    0.1918 N.ar    1  LIG1       -0.3581
      6 H           0.1616   -2.0480    0.4113 H       1  LIG1        0.1654
      7 H           2.3101   -0.7551    0.1015 H       1  LIG1        0.0819
      8 C           1.8086    2.0558   -0.5750 C.1     1  LIG1       -0.0679
      9 C           2.5278    2.9937   -0.8099 C.1     1  LIG1       -0.1139
     10 H           3.1720    3.8164   -1.0165 H       1  LIG1        0.1232
     11 C          -1.3147    2.2082   -0.6032 C.3     1  LIG1       -0.0365
     12 H          -1.8720    2.5563    0.2741 H       1  LIG1        0.0279
     13 H          -2.0366    2.0271   -1.4066 H       1  LIG1        0.0279
     14 H          -0.6691    3.0290   -0.9212 H       1  LIG1        0.0279
     15 C          -2.2417   -0.8429    0.1466 C.ar    1  LIG1        0.0795
     16 C          -2.6471   -2.1650    0.3392 C.ar    1  LIG1        0.0549
     17 C          -4.0716   -2.1851    0.4155 C.ar    1  LIG1       -0.0077
     18 C          -4.4951   -0.8788    0.2629 C.ar    1  LIG1        0.0687
     19 N          -3.3746   -0.0901    0.1024 N.ar    1  LIG1       -0.3506
     20 H          -3.4076    0.9160    0.0287 H       1  LIG1        0.1660
     21 C          -1.8044   -3.3018    0.4531 C.1     1  LIG1       -0.0672
     22 C          -1.0960   -4.2741    0.5588 C.1     1  LIG1       -0.1138
     23 H          -0.4879   -5.1451    0.6436 H       1  LIG1        0.1232
     24 C          -4.9016   -3.4091    0.6356 C.3     1  LIG1       -0.0365
     25 H          -4.2733   -4.2296    0.9875 H       1  LIG1        0.0279
     26 H          -5.3889   -3.7510   -0.2849 H       1  LIG1        0.0279
     27 H          -5.6829   -3.2435    1.3831 H       1  LIG1        0.0279
     28 C          -5.8195   -0.3005    0.2553 C.ar    1  LIG1        0.0795
     29 C          -6.2319    1.0263    0.3819 C.ar    1  LIG1        0.0549
     30 C          -7.6564    1.0559    0.3001 C.ar    1  LIG1       -0.0077
     31 C          -8.0719   -0.2510    0.1286 C.ar    1  LIG1        0.0687
     32 N          -6.9486   -1.0483    0.1069 N.ar    1  LIG1       -0.3506
     33 H          -6.9774   -2.0409   -0.0777 H       1  LIG1        0.1660
     34 C          -5.3991    2.1606    0.5676 C.1     1  LIG1       -0.0672
     35 C          -4.7124    3.1419    0.7193 C.1     1  LIG1       -0.1138
     36 H          -4.1175    4.0131    0.8703 H       1  LIG1        0.1232
     37 C          -8.4915    2.2943    0.3870 C.3     1  LIG1       -0.0365
     38 H          -9.0717    2.3412    1.3172 H       1  LIG1        0.0279
     39 H          -9.1867    2.3801   -0.4552 H       1  LIG1        0.0279
     40 H          -7.8518    3.1785    0.3715 H       1  LIG1        0.0279
     41 C          -9.3927   -0.8228   -0.0133 C.ar    1  LIG1        0.0790
     42 C          -9.7979   -2.1145   -0.3427 C.ar    1  LIG1        0.0542
     43 C         -11.2313   -2.1422   -0.3361 C.ar    1  LIG1       -0.0171
     44 C         -11.6420   -0.8811   -0.0080 C.ar    1  LIG1        0.0063
     45 N         -10.5320   -0.0938    0.1822 N.ar    1  LIG1       -0.3583
     46 H         -10.5465    0.8704    0.4661 H       1  LIG1        0.1654
     47 H         -12.6373   -0.4790    0.1038 H       1  LIG1        0.0810
     48 C          -8.9584   -3.2175   -0.6473 C.1     1  LIG1       -0.0672
     49 C          -8.2639   -4.1698   -0.9096 C.1     1  LIG1       -0.1138
     50 H          -7.6709   -5.0202   -1.1558 H       1  LIG1        0.1232
     51 C         -12.0853   -3.3299   -0.6385 C.3     1  LIG1       -0.0371
     52 H         -11.8813   -4.1532    0.0527 H       1  LIG1        0.0278
     53 H         -11.9002   -3.7071   -1.6489 H       1  LIG1        0.0278
     54 H         -13.1458   -3.0802   -0.5614 H       1  LIG1        0.0278
@<TRIPOS>BOND
     1    53    51    1
     2    13    11    1
     3    50    49    1
     4    10     9    1
     5    14    11    1
     6    49    48    3
     7     9     8    3
     8    48    42    1
     9    51    54    1
    10    51    43    1
    11    51    52    1
    12    11     3    1
    13    11    12    1
    14     8     2    1
    15    39    37    1
    16    42    43   ar
    17    42    41   ar
    18    43    44   ar
    19     3     2   ar
    20     3     4   ar
    21     2     1   ar
    22    26    24    1
    23    33    32    1
    24    41    31    1
    25    41    45   ar
    26    44    47    1
    27    44    45   ar
    28     1     7    1
    29     1     5   ar
    30     4    15    1
    31     4     5   ar
    32    20    19    1
    33    19    15   ar
    34    19    18   ar
    35    32    31   ar
    36    32    28   ar
    37    31    30   ar
    38    15    16   ar
    39    45    46    1
    40     5     6    1
    41    28    18    1
    42    28    29   ar
    43    18    17   ar
    44    30    29   ar
    45    30    37    1
    46    16    17   ar
    47    16    21    1
    48    40    37    1
    49    29    34    1
    50    37    38    1
    51    17    24    1
    52    21    22    3
    53    22    23    1
    54    34    35    3
    55    24    25    1
    56    24    27    1
    57    35    36    1
