@<TRIPOS>MOLECULE
mol_data/opt/cam/geoms/mol2/13ei13ei-4ei13ei.out
 56 59 0 0 0
SMALL
GASTEIGER

@<TRIPOS>ATOM
      1 C           1.4152   -0.4520   -0.0360 C.ar    1  LIG1        0.0179
      2 C           1.0695    0.7510   -0.6202 C.ar    1  LIG1        0.0455
      3 C          -0.3581    0.8201   -0.6511 C.ar    1  LIG1       -0.0084
      4 C          -0.8232   -0.3508   -0.0773 C.ar    1  LIG1        0.0682
      5 N           0.2719   -1.1030    0.2859 N.ar    1  LIG1       -0.3581
      6 H           0.2020   -2.0159    0.7127 H       1  LIG1        0.1654
      7 H           2.3885   -0.8718    0.1632 H       1  LIG1        0.0819
      8 C           1.9680    1.7387   -1.1087 C.1     1  LIG1       -0.0679
      9 C           2.7136    2.5871   -1.5287 C.1     1  LIG1       -0.1139
     10 H           3.3809    3.3309   -1.8977 H       1  LIG1        0.1232
     11 C          -1.1506    1.9536   -1.2211 C.3     1  LIG1       -0.0365
     12 H          -1.7235    2.4919   -0.4563 H       1  LIG1        0.0279
     13 H          -1.8550    1.6167   -1.9896 H       1  LIG1        0.0279
     14 H          -0.4795    2.6775   -1.6870 H       1  LIG1        0.0279
     15 C          -2.1650   -0.8351    0.1607 C.ar    1  LIG1        0.0794
     16 C          -2.6173   -2.0699    0.6275 C.ar    1  LIG1        0.0548
     17 C          -4.0430   -2.0246    0.6855 C.ar    1  LIG1       -0.0091
     18 C          -4.4218   -0.7670    0.2545 C.ar    1  LIG1        0.0523
     19 N          -3.2694   -0.0737   -0.0568 N.ar    1  LIG1       -0.3518
     20 H          -3.2537    0.9020   -0.3068 H       1  LIG1        0.1660
     21 C          -1.8133   -3.1794    0.9988 C.1     1  LIG1       -0.0672
     22 C          -1.1353   -4.1242    1.3244 C.1     1  LIG1       -0.1138
     23 H          -0.5570   -4.9737    1.6061 H       1  LIG1        0.1232
     24 C          -4.9015   -3.1474    1.1749 C.3     1  LIG1       -0.0365
     25 H          -4.3597   -3.7362    1.9188 H       1  LIG1        0.0279
     26 H          -5.1823   -3.8347    0.3687 H       1  LIG1        0.0279
     27 H          -5.8216   -2.7799    1.6340 H       1  LIG1        0.0279
     28 C          -6.0347    1.1875    0.3104 C.ar    1  LIG1        0.0344
     29 C          -7.3321    1.6625    0.1172 C.ar    1  LIG1       -0.0363
     30 C          -5.7528   -0.1785    0.0883 C.ar    1  LIG1        0.0142
     31 C          -8.3816    0.8339   -0.2760 C.ar    1  LIG1        0.0036
     32 H          -7.5282    2.7132    0.2908 H       1  LIG1        0.0637
     33 C          -6.8147   -0.9930   -0.3127 C.ar    1  LIG1       -0.0479
     34 C          -8.1152   -0.5329   -0.4866 C.ar    1  LIG1       -0.0406
     35 H          -6.6119   -2.0390   -0.5104 H       1  LIG1        0.0627
     36 C          -5.0431    2.1272    0.7452 C.1     1  LIG1       -0.0690
     37 C          -4.2403    2.9514    1.1043 C.1     1  LIG1       -0.1139
     38 H          -3.5411    3.6762    1.4540 H       1  LIG1        0.1232
     39 C          -9.1841   -1.5206   -0.8820 C.3     1  LIG1       -0.0391
     40 H          -8.8875   -2.5335   -0.6032 H       1  LIG1        0.0278
     41 H          -9.3561   -1.5324   -1.9651 H       1  LIG1        0.0278
     42 H         -10.1377   -1.2978   -0.3996 H       1  LIG1        0.0278
     43 C          -9.7145    1.4307   -0.4393 C.ar    1  LIG1        0.0626
     44 C         -10.3804    2.3708    0.3387 C.ar    1  LIG1        0.0528
     45 C         -11.6422    2.6456   -0.2822 C.ar    1  LIG1       -0.0172
     46 C         -11.6969    1.8734   -1.4100 C.ar    1  LIG1        0.0063
     47 N         -10.5404    1.1397   -1.4912 N.ar    1  LIG1       -0.3594
     48 H         -10.2880    0.5431   -2.2604 H       1  LIG1        0.1654
     49 H         -12.4695    1.7858   -2.1588 H       1  LIG1        0.0810
     50 C          -9.9252    2.9491    1.5546 C.1     1  LIG1       -0.0673
     51 C          -9.5659    3.4601    2.5853 C.1     1  LIG1       -0.1138
     52 H          -9.2421    3.9016    3.4990 H       1  LIG1        0.1232
     53 C         -12.6832    3.5873    0.2291 C.3     1  LIG1       -0.0371
     54 H         -13.5455    3.6217   -0.4406 H       1  LIG1        0.0278
     55 H         -12.2874    4.6028    0.3243 H       1  LIG1        0.0278
     56 H         -13.0370    3.2892    1.2207 H       1  LIG1        0.0278
@<TRIPOS>BOND
     1    48    47    1
     2    49    46    1
     3    13    11    1
     4    41    39    1
     5    10     9    1
     6    14    11    1
     7     9     8    3
     8    47    46   ar
     9    47    43   ar
    10    46    45   ar
    11    11     3    1
    12    11    12    1
    13     8     2    1
    14    39    40    1
    15    39    34    1
    16    39    42    1
    17     3     2   ar
    18     3     4   ar
    19     2     1   ar
    20    35    33    1
    21    34    33   ar
    22    34    31   ar
    23    54    53    1
    24    43    31    1
    25    43    44   ar
    26    33    30   ar
    27    20    19    1
    28    45    53    1
    29    45    44   ar
    30    31    29   ar
    31     4    15    1
    32     4     5   ar
    33    19    15   ar
    34    19    18   ar
    35     1     7    1
    36     1     5   ar
    37    30    18    1
    38    30    28   ar
    39    29    32    1
    40    29    28   ar
    41    15    16   ar
    42    53    55    1
    43    53    56    1
    44    18    17   ar
    45     5     6    1
    46    28    36    1
    47    44    50    1
    48    26    24    1
    49    16    17   ar
    50    16    21    1
    51    17    24    1
    52    36    37    3
    53    21    22    3
    54    37    38    1
    55    24    27    1
    56    24    25    1
    57    22    23    1
    58    50    51    3
    59    51    52    1
