@<TRIPOS>MOLECULE
mol_data/opt/cam/geoms/mol2/13ei13ei13ei-13ei.out
 54 57 0 0 0
SMALL
GASTEIGER

@<TRIPOS>ATOM
      1 C           1.1426   -0.0826   -0.9628 C.ar    1  LIG1        0.0179
      2 C           0.9300    0.9901   -0.1231 C.ar    1  LIG1        0.0455
      3 C          -0.4473    0.9677    0.2731 C.ar    1  LIG1       -0.0084
      4 C          -1.0190   -0.1197   -0.3502 C.ar    1  LIG1        0.0682
      5 N          -0.0320   -0.7557   -1.0836 N.ar    1  LIG1       -0.3581
      6 H          -0.2051   -1.5120   -1.7254 H       1  LIG1        0.1654
      7 H           2.0402   -0.4006   -1.4697 H       1  LIG1        0.0819
      8 C           1.9079    1.9330    0.2979 C.1     1  LIG1       -0.0679
      9 C           2.7237    2.7390    0.6669 C.1     1  LIG1       -0.1139
     10 H           3.4480    3.4508    0.9880 H       1  LIG1        0.1232
     11 C          -1.0964    1.9252    1.2174 C.3     1  LIG1       -0.0365
     12 H          -1.9700    1.4768    1.6945 H       1  LIG1        0.0279
     13 H          -1.4387    2.8278    0.7026 H       1  LIG1        0.0279
     14 H          -0.3907    2.2329    1.9929 H       1  LIG1        0.0279
     15 C          -2.3639   -0.6636   -0.3074 C.ar    1  LIG1        0.0795
     16 C          -3.6120   -0.0611   -0.4165 C.ar    1  LIG1        0.0549
     17 C          -4.6031   -1.0866   -0.3384 C.ar    1  LIG1       -0.0077
     18 C          -3.9281   -2.2857   -0.1936 C.ar    1  LIG1        0.0687
     19 N          -2.5796   -2.0051   -0.1848 N.ar    1  LIG1       -0.3506
     20 H          -1.8671   -2.6953    0.0079 H       1  LIG1        0.1660
     21 C          -3.8700    1.3180   -0.6404 C.1     1  LIG1       -0.0672
     22 C          -4.1199    2.4802   -0.8384 C.1     1  LIG1       -0.1138
     23 H          -4.3275    3.5093   -1.0195 H       1  LIG1        0.1232
     24 C          -6.0784   -0.8580   -0.4253 C.3     1  LIG1       -0.0365
     25 H          -6.5963   -1.1522    0.4942 H       1  LIG1        0.0279
     26 H          -6.5336   -1.4074   -1.2563 H       1  LIG1        0.0279
     27 H          -6.2785    0.2029   -0.5866 H       1  LIG1        0.0279
     28 C          -4.3941   -3.6480   -0.0643 C.ar    1  LIG1        0.0795
     29 C          -3.6733   -4.8376    0.0570 C.ar    1  LIG1        0.0549
     30 C          -4.6067   -5.9124    0.1566 C.ar    1  LIG1       -0.0077
     31 C          -5.8678   -5.3505    0.0937 C.ar    1  LIG1        0.0687
     32 N          -5.7130   -3.9872   -0.0393 N.ar    1  LIG1       -0.3506
     33 H          -6.4898   -3.3443   -0.0997 H       1  LIG1        0.1660
     34 C          -2.2609   -4.9767    0.0866 C.1     1  LIG1       -0.0672
     35 C          -1.0606   -5.1087    0.1174 C.1     1  LIG1       -0.1138
     36 H          -0.0042   -5.2439    0.1555 H       1  LIG1        0.1232
     37 C          -4.2332   -7.3540    0.3022 C.3     1  LIG1       -0.0365
     38 H          -3.1471   -7.4577    0.3309 H       1  LIG1        0.0279
     39 H          -4.5897   -7.9615   -0.5381 H       1  LIG1        0.0279
     40 H          -4.6205   -7.7901    1.2305 H       1  LIG1        0.0279
     41 C          -7.1826   -5.9517    0.1442 C.ar    1  LIG1        0.0790
     42 C          -8.4530   -5.3817    0.0918 C.ar    1  LIG1        0.0542
     43 C          -9.4159   -6.4398    0.1824 C.ar    1  LIG1       -0.0171
     44 C          -8.7057   -7.6024    0.2855 C.ar    1  LIG1        0.0063
     45 N          -7.3655   -7.3012    0.2619 N.ar    1  LIG1       -0.3583
     46 H          -6.6202   -7.9727    0.3205 H       1  LIG1        0.1654
     47 H          -9.0468   -8.6225    0.3745 H       1  LIG1        0.0810
     48 C          -8.7655   -4.0028   -0.0284 C.1     1  LIG1       -0.0672
     49 C          -9.0607   -2.8365   -0.1301 C.1     1  LIG1       -0.1138
     50 H          -9.3368   -1.8112   -0.2192 H       1  LIG1        0.1232
     51 C         -10.9005   -6.2758    0.1659 C.3     1  LIG1       -0.0371
     52 H         -11.4026   -7.2422    0.2494 H       1  LIG1        0.0278
     53 H         -11.2383   -5.7988   -0.7591 H       1  LIG1        0.0278
     54 H         -11.2408   -5.6461    0.9934 H       1  LIG1        0.0278
@<TRIPOS>BOND
     1     6     5    1
     2     7     1    1
     3    26    24    1
     4     5     1   ar
     5     5     4   ar
     6    23    22    1
     7     1     2   ar
     8    22    21    3
     9    53    51    1
    10    21    16    1
    11    27    24    1
    12    39    37    1
    13    24    17    1
    14    24    25    1
    15    16    17   ar
    16    16    15   ar
    17     4    15    1
    18     4     3   ar
    19    17    18   ar
    20    15    19   ar
    21    50    49    1
    22    18    19   ar
    23    18    28    1
    24    19    20    1
    25    49    48    3
    26     2     3   ar
    27     2     8    1
    28    33    32    1
    29    28    32   ar
    30    28    29   ar
    31    32    31   ar
    32    48    42    1
    33    29    34    1
    34    29    30   ar
    35    34    35    3
    36    42    41   ar
    37    42    43   ar
    38    31    41    1
    39    31    30   ar
    40    35    36    1
    41    41    45   ar
    42    30    37    1
    43    51    43    1
    44    51    52    1
    45    51    54    1
    46    43    44   ar
    47    45    44   ar
    48    45    46    1
    49     3    11    1
    50    44    47    1
    51     8     9    3
    52    37    38    1
    53    37    40    1
    54     9    10    1
    55    13    11    1
    56    11    12    1
    57    11    14    1
