@<TRIPOS>MOLECULE
mol_data/opt/cam/geoms/mol2/13el13el13el-13el.out
 58 61 0 0 0
SMALL
GASTEIGER

@<TRIPOS>ATOM
      1 C           1.2732   -0.3080   -0.9570 C.ar    1  LIG1        0.0213
      2 C           1.0970    0.8222   -0.1838 C.ar    1  LIG1        0.0842
      3 C          -0.2928    0.8598    0.1685 C.ar    1  LIG1        0.1620
      4 C          -0.9055   -0.2358   -0.3992 C.ar    1  LIG1        0.1077
      5 N           0.0804   -0.9473   -1.0626 N.ar    1  LIG1       -0.3554
      6 H          -0.1066   -1.7237   -1.6760 H       1  LIG1        0.1655
      7 H           2.1682   -0.6847   -1.4267 H       1  LIG1        0.0820
      8 C           2.1258    1.7163    0.2191 C.1     1  LIG1       -0.0645
      9 C           3.0051    2.4677    0.5559 C.1     1  LIG1       -0.1137
     10 H           3.7838    3.1264    0.8637 H       1  LIG1        0.1232
     11 O          -0.9195    1.7286    0.9965 O.3     1  LIG1       -0.4917
     12 C          -0.8206    3.1018    0.6364 C.3     1  LIG1        0.0789
     13 H          -1.3986    3.6523    1.3791 H       1  LIG1        0.0660
     14 H           0.2170    3.4447    0.6539 H       1  LIG1        0.0660
     15 H          -1.2514    3.2708   -0.3552 H       1  LIG1        0.0660
     16 C          -2.2669   -0.7233   -0.3296 C.ar    1  LIG1        0.0862
     17 C          -3.4886   -0.0654   -0.4429 C.ar    1  LIG1        0.0937
     18 C          -4.4959   -1.0689   -0.3247 C.ar    1  LIG1        0.1627
     19 C          -3.8808   -2.2909   -0.1579 C.ar    1  LIG1        0.1082
     20 N          -2.5241   -2.0575   -0.1799 N.ar    1  LIG1       -0.3478
     21 H          -1.8400   -2.7602    0.0631 H       1  LIG1        0.1661
     22 C          -3.7027    1.3097   -0.7197 C.1     1  LIG1       -0.0638
     23 C          -3.9256    2.4672   -0.9706 C.1     1  LIG1       -0.1137
     24 H          -4.1210    3.4888   -1.2008 H       1  LIG1        0.1232
     25 O          -5.8493   -0.9199   -0.4123 O.3     1  LIG1       -0.4917
     26 C          -6.4247   -0.0713    0.5814 C.3     1  LIG1        0.0789
     27 H          -7.5039   -0.1182    0.4346 H       1  LIG1        0.0660
     28 H          -6.1770   -0.4300    1.5859 H       1  LIG1        0.0660
     29 H          -6.0772    0.9577    0.4648 H       1  LIG1        0.0660
     30 C          -4.4646   -3.5954    0.0097 C.ar    1  LIG1        0.0862
     31 C          -3.8802   -4.8320    0.2955 C.ar    1  LIG1        0.0937
     32 C          -4.9539   -5.7698    0.3611 C.ar    1  LIG1        0.1627
     33 C          -6.1336   -5.0986    0.1188 C.ar    1  LIG1        0.1081
     34 N          -5.8073   -3.7788   -0.0862 N.ar    1  LIG1       -0.3478
     35 H          -6.4587   -3.0370   -0.3149 H       1  LIG1        0.1661
     36 C          -2.5010   -5.0697    0.5224 C.1     1  LIG1       -0.0638
     37 C          -1.3219   -5.2551    0.7080 C.1     1  LIG1       -0.1137
     38 H          -0.2926   -5.4434    0.9103 H       1  LIG1        0.1232
     39 O          -4.8938   -7.1030    0.6609 O.3     1  LIG1       -0.4917
     40 C          -4.0946   -7.8809   -0.2284 C.3     1  LIG1        0.0789
     41 H          -4.1567   -8.9119    0.1213 H       1  LIG1        0.0660
     42 H          -4.4769   -7.8148   -1.2527 H       1  LIG1        0.0660
     43 H          -3.0523   -7.5537   -0.2077 H       1  LIG1        0.0660
     44 C          -7.4851   -5.5987    0.0965 C.ar    1  LIG1        0.0858
     45 C          -8.6880   -4.9810   -0.2392 C.ar    1  LIG1        0.0930
     46 C          -9.7094   -5.9728   -0.0691 C.ar    1  LIG1        0.1533
     47 C          -9.1105   -7.1275    0.3573 C.ar    1  LIG1        0.0457
     48 N          -7.7614   -6.8856    0.4450 N.ar    1  LIG1       -0.3554
     49 H          -7.0388   -7.5244    0.7427 H       1  LIG1        0.1655
     50 H          -9.5422   -8.0882    0.5853 H       1  LIG1        0.0845
     51 C          -8.8357   -3.6519   -0.7105 C.1     1  LIG1       -0.0638
     52 C          -8.9372   -2.5167   -1.1091 C.1     1  LIG1       -0.1137
     53 H          -9.0274   -1.5334   -1.5094 H       1  LIG1        0.1232
     54 O         -11.0372   -5.8388   -0.3336 O.3     1  LIG1       -0.4924
     55 C         -11.7091   -4.8786    0.4689 C.3     1  LIG1        0.0789
     56 H         -12.7547   -4.8923    0.1586 H       1  LIG1        0.0660
     57 H         -11.6418   -5.1404    1.5316 H       1  LIG1        0.0660
     58 H         -11.3017   -3.8742    0.3201 H       1  LIG1        0.0660
@<TRIPOS>BOND
     1     6     5    1
     2    53    52    1
     3     7     1    1
     4    42    40    1
     5    24    23    1
     6    52    51    3
     7     5     1   ar
     8     5     4   ar
     9    23    22    3
    10     1     2   ar
    11    22    17    1
    12    51    45    1
    13    17    16   ar
    14    17    18   ar
    15    25    18    1
    16    25    26    1
    17     4    16    1
    18     4     3   ar
    19    15    12    1
    20    54    46    1
    21    54    55    1
    22    16    20   ar
    23    18    19   ar
    24    35    34    1
    25    45    46   ar
    26    45    44   ar
    27    40    43    1
    28    40    41    1
    29    40    39    1
    30     2     3   ar
    31     2     8    1
    32    20    19   ar
    33    20    21    1
    34    19    30    1
    35    34    30   ar
    36    34    33   ar
    37    46    47   ar
    38    30    31   ar
    39    44    33    1
    40    44    48   ar
    41    33    32   ar
    42    56    55    1
    43     3    11    1
    44     8     9    3
    45    31    32   ar
    46    31    36    1
    47    58    55    1
    48    47    48   ar
    49    47    50    1
    50    32    39    1
    51    27    26    1
    52    48    49    1
    53    29    26    1
    54    55    57    1
    55    36    37    3
    56     9    10    1
    57    26    28    1
    58    12    14    1
    59    12    11    1
    60    12    13    1
    61    37    38    1
