@<TRIPOS>MOLECULE
mol_data/opt/cam/geoms/mol2/13el13id6eh4df-.out
 53 56 0 0 0
SMALL
GASTEIGER

@<TRIPOS>ATOM
      1 C           0.7013    0.3034    2.0248 C.ar    1  LIG1        0.0213
      2 C           0.6954    1.3066    1.0774 C.ar    1  LIG1        0.0842
      3 C          -0.5216    1.1536    0.3364 C.ar    1  LIG1        0.1620
      4 C          -1.2069    0.0759    0.8512 C.ar    1  LIG1        0.1066
      5 N          -0.4329   -0.4319    1.8797 N.ar    1  LIG1       -0.3554
      6 H          -0.7444   -1.1411    2.5233 H       1  LIG1        0.1655
      7 H           1.4314    0.0832    2.7876 H       1  LIG1        0.0820
      8 C           1.6959    2.2994    0.8976 C.1     1  LIG1       -0.0645
      9 C           2.5445    3.1400    0.7414 C.1     1  LIG1       -0.1137
     10 H           3.2883    3.8920    0.6141 H       1  LIG1        0.1232
     11 O          -0.9677    1.9286   -0.6858 O.3     1  LIG1       -0.4917
     12 C          -0.1524    1.9129   -1.8526 C.3     1  LIG1        0.0789
     13 H          -0.6364    2.5710   -2.5748 H       1  LIG1        0.0660
     14 H           0.8538    2.2839   -1.6399 H       1  LIG1        0.0660
     15 H          -0.0883    0.9010   -2.2683 H       1  LIG1        0.0660
     16 C          -2.4729   -0.5190    0.4682 C.ar    1  LIG1        0.0712
     17 C          -3.6765    0.0600    0.1270 C.ar    1  LIG1       -0.0057
     18 C          -4.5707   -1.0174   -0.1399 C.ar    1  LIG1        0.0806
     19 C          -3.8948   -2.2257    0.0513 C.ar    1  LIG1        0.0675
     20 N          -2.6292   -1.8849    0.4223 N.ar    1  LIG1       -0.3516
     21 H          -1.8791   -2.5580    0.5030 H       1  LIG1        0.1660
     22 C          -4.0000    1.5164    0.0623 C.3     1  LIG1       -0.0364
     23 H          -5.0634    1.6866    0.2450 H       1  LIG1        0.0279
     24 H          -3.7514    1.9377   -0.9153 H       1  LIG1        0.0279
     25 H          -3.4226    2.0744    0.8020 H       1  LIG1        0.0279
     26 N          -7.0300   -0.6697   -0.8329 N.1     1  LIG1       -0.1908
     27 C          -5.9247   -0.8378   -0.5278 C.1     1  LIG1        0.1016
     28 C          -3.4808   -4.7261   -0.1798 C.ar    1  LIG1        0.1231
     29 C          -4.3495   -3.6140   -0.0661 C.ar    1  LIG1        0.0352
     30 C          -5.7121   -3.8921   -0.0672 C.ar    1  LIG1       -0.0271
     31 C          -6.1980   -5.1951   -0.1751 C.ar    1  LIG1        0.0516
     32 C          -5.2396   -6.2337   -0.2219 C.ar    1  LIG1        0.0943
     33 N          -3.9400   -5.9772   -0.2504 N.ar    1  LIG1       -0.2359
     34 H          -6.4286   -3.0835    0.0036 H       1  LIG1        0.0644
     35 C          -2.0474   -4.6212   -0.2405 C.1     1  LIG1       -0.0491
     36 C          -0.8440   -4.5658   -0.2883 C.1     1  LIG1       -0.1124
     37 H           0.2197   -4.5404   -0.3579 H       1  LIG1        0.1232
     38 N          -7.5456   -5.4175   -0.2955 N.pl3   1  LIG1       -0.3563
     39 H          -8.1575   -4.6691   -0.0090 H       1  LIG1        0.1424
     40 H          -7.9002   -6.3375   -0.0954 H       1  LIG1        0.1424
     41 C          -6.4047   -8.3294    0.6426 C.ar    1  LIG1        0.0612
     42 C          -6.6863   -9.6961    0.5033 C.ar    1  LIG1       -0.0403
     43 C          -5.6049   -7.6766   -0.3127 C.ar    1  LIG1        0.0230
     44 C          -6.1824  -10.4182   -0.5577 C.ar    1  LIG1       -0.0189
     45 H          -7.2991  -10.1858    1.2515 H       1  LIG1        0.0632
     46 C          -5.0880   -8.4206   -1.3676 C.ar    1  LIG1       -0.0097
     47 C          -5.3697   -9.7771   -1.4948 C.ar    1  LIG1        0.1176
     48 H          -4.4460   -7.9224   -2.0874 H       1  LIG1        0.0661
     49 H          -6.3918  -11.4744   -0.6758 H       1  LIG1        0.0654
     50 N          -7.3346   -7.0992    2.7245 N.1     1  LIG1       -0.1908
     51 C          -6.9060   -7.6419    1.7962 C.1     1  LIG1        0.0998
     52 O          -4.8865  -10.5265   -2.5106 O.3     1  LIG1       -0.5067
     53 H          -4.3291   -9.9840   -3.0819 H       1  LIG1        0.2921
@<TRIPOS>BOND
     1    53    52    1
     2    13    12    1
     3    52    47    1
     4    15    12    1
     5    48    46    1
     6    12    14    1
     7    12    11    1
     8    47    46   ar
     9    47    44   ar
    10    46    43   ar
    11    24    22    1
    12    26    27    3
    13    11     3    1
    14    49    44    1
    15    44    42   ar
    16    27    18    1
    17    37    36    1
    18    43    32    1
    19    43    41   ar
    20    38    31    1
    21    38    40    1
    22    38    39    1
    23    36    35    3
    24    33    32   ar
    25    33    28   ar
    26    35    28    1
    27    32    31   ar
    28    28    29   ar
    29    31    30   ar
    30    18    19   ar
    31    18    17   ar
    32    30    29   ar
    33    30    34    1
    34    29    19    1
    35    19    20   ar
    36    22    17    1
    37    22    23    1
    38    22    25    1
    39    17    16   ar
    40     3     4   ar
    41     3     2   ar
    42    20    16   ar
    43    20    21    1
    44    16     4    1
    45    42    41   ar
    46    42    45    1
    47    10     9    1
    48    41    51    1
    49     9     8    3
    50     4     5   ar
    51     8     2    1
    52     2     1   ar
    53    51    50    3
    54     5     1   ar
    55     5     6    1
    56     1     7    1
