@<TRIPOS>MOLECULE
mol_data/opt/cam/geoms/mol2/13el13el-13el13el-.out
 58 61 0 0 0
SMALL
GASTEIGER

@<TRIPOS>ATOM
      1 C           1.3422   -0.3408    0.0039 C.ar    1  LIG1        0.0213
      2 C           0.9672    0.9890   -0.0764 C.ar    1  LIG1        0.0842
      3 C          -0.4605    0.9944   -0.0860 C.ar    1  LIG1        0.1620
      4 C          -0.8988   -0.3118   -0.0136 C.ar    1  LIG1        0.1077
      5 N           0.2236   -1.1066    0.0338 N.ar    1  LIG1       -0.3554
      6 H           0.1864   -2.1131    0.1041 H       1  LIG1        0.1655
      7 H           2.3302   -0.7722    0.0344 H       1  LIG1        0.0820
      8 C           1.8402    2.1064   -0.1627 C.1     1  LIG1       -0.0645
      9 C           2.5790    3.0555   -0.2329 C.1     1  LIG1       -0.1137
     10 H           3.2356    3.8910   -0.3087 H       1  LIG1        0.1232
     11 O          -1.3050    2.0626   -0.1901 O.3     1  LIG1       -0.4917
     12 C          -1.1936    3.0188    0.8631 C.3     1  LIG1        0.0789
     13 H          -1.9721    3.7615    0.6859 H       1  LIG1        0.0660
     14 H          -1.3576    2.5437    1.8361 H       1  LIG1        0.0660
     15 H          -0.2126    3.4997    0.8526 H       1  LIG1        0.0660
     16 C          -2.2442   -0.8262    0.0034 C.ar    1  LIG1        0.0862
     17 C          -2.7280   -2.1260    0.1691 C.ar    1  LIG1        0.0937
     18 C          -4.1495   -2.0292    0.1094 C.ar    1  LIG1        0.1627
     19 C          -4.4875   -0.7066   -0.0904 C.ar    1  LIG1        0.1082
     20 N          -3.3100    0.0027   -0.1451 N.ar    1  LIG1       -0.3478
     21 H          -3.2233    0.9977   -0.3135 H       1  LIG1        0.1661
     22 C          -1.9476   -3.2898    0.3862 C.1     1  LIG1       -0.0638
     23 C          -1.2684   -4.2727    0.5615 C.1     1  LIG1       -0.1137
     24 H          -0.6976   -5.1546    0.7408 H       1  LIG1        0.1232
     25 O          -5.0676   -3.0270    0.2606 O.3     1  LIG1       -0.4917
     26 C          -5.0244   -4.0384   -0.7450 C.3     1  LIG1        0.0789
     27 H          -5.8690   -4.6998   -0.5506 H       1  LIG1        0.0660
     28 H          -5.1284   -3.5979   -1.7420 H       1  LIG1        0.0660
     29 H          -4.0903   -4.6039   -0.6921 H       1  LIG1        0.0660
     30 C          -5.7903   -0.1082   -0.2182 C.ar    1  LIG1        0.0862
     31 C          -6.1711    1.1946   -0.5512 C.ar    1  LIG1        0.0937
     32 C          -7.5974    1.2035   -0.5364 C.ar    1  LIG1        0.1627
     33 C          -8.0379   -0.0601   -0.2035 C.ar    1  LIG1        0.1081
     34 N          -6.9195   -0.8381   -0.0204 N.ar    1  LIG1       -0.3478
     35 H          -6.9202   -1.8130    0.2563 H       1  LIG1        0.1661
     36 C          -5.2926    2.2536   -0.8933 C.1     1  LIG1       -0.0638
     37 C          -4.5239    3.1390   -1.1813 C.1     1  LIG1       -0.1137
     38 H          -3.8492    3.9061   -1.4843 H       1  LIG1        0.1232
     39 O          -8.4411    2.2354   -0.8443 O.3     1  LIG1       -0.4917
     40 C          -8.2715    3.4062   -0.0482 C.3     1  LIG1        0.0789
     41 H          -9.0176    4.1240   -0.3907 H       1  LIG1        0.0660
     42 H          -8.4343    3.1820    1.0116 H       1  LIG1        0.0660
     43 H          -7.2732    3.8298   -0.1804 H       1  LIG1        0.0660
     44 C          -9.3836   -0.5613   -0.0849 C.ar    1  LIG1        0.0858
     45 C          -9.8640   -1.8034    0.3243 C.ar    1  LIG1        0.0930
     46 C         -11.2879   -1.7337    0.2283 C.ar    1  LIG1        0.1533
     47 C         -11.6283   -0.4833   -0.2251 C.ar    1  LIG1        0.0457
     48 N         -10.4518    0.2136   -0.4079 N.ar    1  LIG1       -0.3554
     49 H         -10.3443    1.1549   -0.7549 H       1  LIG1        0.1655
     50 H         -12.5861   -0.0363   -0.4303 H       1  LIG1        0.0845
     51 C          -9.0880   -2.9028    0.7682 C.1     1  LIG1       -0.0638
     52 C          -8.4021   -3.8217    1.1450 C.1     1  LIG1       -0.1137
     53 H          -7.8136   -4.6277    1.5173 H       1  LIG1        0.1232
     54 O         -12.0821   -2.7778    0.5556 O.3     1  LIG1       -0.4924
     55 C         -13.4646   -2.5482    0.4056 C.3     1  LIG1        0.0789
     56 H         -13.9712   -3.4662    0.7025 H       1  LIG1        0.0660
     57 H         -13.8019   -1.7233    1.0462 H       1  LIG1        0.0660
     58 H         -13.7174   -2.3138   -0.6363 H       1  LIG1        0.0660
@<TRIPOS>BOND
     1    28    26    1
     2    38    37    1
     3    37    36    3
     4    36    31    1
     5    39    32    1
     6    39    40    1
     7    49    48    1
     8    26    29    1
     9    26    27    1
    10    26    25    1
    11    58    55    1
    12    31    32   ar
    13    31    30   ar
    14    32    33   ar
    15    50    47    1
    16    48    47   ar
    17    48    44   ar
    18    41    40    1
    19    21    20    1
    20    10     9    1
    21     9     8    3
    22    47    46   ar
    23    30    19    1
    24    30    34   ar
    25    33    44    1
    26    33    34   ar
    27    11     3    1
    28    11    12    1
    29    43    40    1
    30     8     2    1
    31    20    19   ar
    32    20    16   ar
    33    19    18   ar
    34     3     2   ar
    35     3     4   ar
    36    44    45   ar
    37     2     1   ar
    38    40    42    1
    39    34    35    1
    40     4    16    1
    41     4     5   ar
    42    16    17   ar
    43     1     5   ar
    44     1     7    1
    45     5     6    1
    46    18    17   ar
    47    18    25    1
    48    17    22    1
    49    46    45   ar
    50    46    54    1
    51    45    51    1
    52    22    23    3
    53    55    54    1
    54    55    56    1
    55    55    57    1
    56    23    24    1
    57    13    12    1
    58    51    52    3
    59    15    12    1
    60    12    14    1
    61    52    53    1
