@<TRIPOS>MOLECULE
mol_data/opt/cam/geoms/mol2/13el13el-13el.out
 44 46 0 0 0
SMALL
GASTEIGER

@<TRIPOS>ATOM
      1 C           1.2251   -0.4866    0.2381 C.ar    1  LIG1        0.0213
      2 C           0.9087    0.8585    0.3133 C.ar    1  LIG1        0.0842
      3 C          -0.5149    0.9322    0.2316 C.ar    1  LIG1        0.1620
      4 C          -1.0087   -0.3505    0.1128 C.ar    1  LIG1        0.1077
      5 N           0.0758   -1.1977    0.1260 N.ar    1  LIG1       -0.3554
      6 H          -0.0036   -2.2003    0.0383 H       1  LIG1        0.1655
      7 H           2.1915   -0.9645    0.2646 H       1  LIG1        0.0820
      8 C           1.8263    1.9314    0.4719 C.1     1  LIG1       -0.0645
      9 C           2.6035    2.8424    0.6037 C.1     1  LIG1       -0.1137
     10 H           3.2925    3.6444    0.7341 H       1  LIG1        0.1232
     11 O          -1.3138    2.0372    0.2971 O.3     1  LIG1       -0.4917
     12 C          -1.0873    3.0037   -0.7278 C.3     1  LIG1        0.0789
     13 H          -1.8472    3.7741   -0.5950 H       1  LIG1        0.0660
     14 H          -0.0915    3.4440   -0.6371 H       1  LIG1        0.0660
     15 H          -1.1976    2.5501   -1.7186 H       1  LIG1        0.0660
     16 C          -2.3733   -0.7987    0.0013 C.ar    1  LIG1        0.0862
     17 C          -2.9064   -2.0711   -0.2170 C.ar    1  LIG1        0.0937
     18 C          -4.3236   -1.9054   -0.2451 C.ar    1  LIG1        0.1627
     19 C          -4.6100   -0.5716   -0.0471 C.ar    1  LIG1        0.1081
     20 N          -3.4067    0.0783    0.0943 N.ar    1  LIG1       -0.3478
     21 H          -3.2871    1.0671    0.2806 H       1  LIG1        0.1661
     22 C          -2.1663   -3.2651   -0.4094 C.1     1  LIG1       -0.0638
     23 C          -1.5207   -4.2740   -0.5637 C.1     1  LIG1       -0.1137
     24 H          -0.9774   -5.1760   -0.7278 H       1  LIG1        0.1232
     25 O          -5.2793   -2.8570   -0.4744 O.3     1  LIG1       -0.4917
     26 C          -5.3015   -3.9209    0.4759 C.3     1  LIG1        0.0789
     27 H          -6.1137   -4.5849    0.1785 H       1  LIG1        0.0660
     28 H          -4.3595   -4.4743    0.4675 H       1  LIG1        0.0660
     29 H          -5.4890   -3.5365    1.4843 H       1  LIG1        0.0660
     30 C          -5.8868    0.0962   -0.0119 C.ar    1  LIG1        0.0858
     31 C          -6.2269    1.4147    0.2834 C.ar    1  LIG1        0.0930
     32 C          -7.6523    1.4998    0.1538 C.ar    1  LIG1        0.1533
     33 C          -8.1182    0.2653   -0.2104 C.ar    1  LIG1        0.0457
     34 N          -7.0357   -0.5755   -0.2991 N.ar    1  LIG1       -0.3554
     35 H          -7.0325   -1.5511   -0.5581 H       1  LIG1        0.1655
     36 H          -9.1263   -0.0680   -0.3943 H       1  LIG1        0.0845
     37 C          -5.3277    2.4332    0.6888 C.1     1  LIG1       -0.0638
     38 C          -4.5437    3.2851    1.0315 C.1     1  LIG1       -0.1137
     39 H          -3.8648    4.0263    1.3851 H       1  LIG1        0.1232
     40 O          -8.4367    2.5836    0.4010 O.3     1  LIG1       -0.4924
     41 C          -8.2019    3.6946   -0.4518 C.3     1  LIG1        0.0789
     42 H          -8.9043    4.4722   -0.1487 H       1  LIG1        0.0660
     43 H          -7.1799    4.0718   -0.3491 H       1  LIG1        0.0660
     44 H          -8.3838    3.4292   -1.5000 H       1  LIG1        0.0660
@<TRIPOS>BOND
     1    15    12    1
     2    44    41    1
     3    12    14    1
     4    12    13    1
     5    12    11    1
     6    24    23    1
     7    23    22    3
     8    35    34    1
     9    25    18    1
    10    25    26    1
    11    41    43    1
    12    41    42    1
    13    41    40    1
    14    22    17    1
    15    36    33    1
    16    34    33   ar
    17    34    30   ar
    18    18    17   ar
    19    18    19   ar
    20    17    16   ar
    21    33    32   ar
    22    19    30    1
    23    19    20   ar
    24    30    31   ar
    25    16    20   ar
    26    16     4    1
    27     6     5    1
    28    20    21    1
    29     4     5   ar
    30     4     3   ar
    31     5     1   ar
    32    32    31   ar
    33    32    40    1
    34    27    26    1
    35     3    11    1
    36     3     2   ar
    37     1     7    1
    38     1     2   ar
    39    31    37    1
    40     2     8    1
    41    28    26    1
    42     8     9    3
    43    26    29    1
    44     9    10    1
    45    37    38    3
    46    38    39    1
