@<TRIPOS>MOLECULE
mol_data/opt/cam/geoms/mol2/13el13el-13el-13el.out
 58 61 0 0 0
SMALL
GASTEIGER

@<TRIPOS>ATOM
      1 C           1.1799   -0.2434    0.0581 C.ar    1  LIG1        0.0213
      2 C           0.7562    1.0474   -0.2086 C.ar    1  LIG1        0.0842
      3 C          -0.6671    0.9816   -0.3004 C.ar    1  LIG1        0.1620
      4 C          -1.0538   -0.3260   -0.0859 C.ar    1  LIG1        0.1077
      5 N           0.0935   -1.0507    0.1348 N.ar    1  LIG1       -0.3554
      6 H           0.0899   -2.0432    0.3236 H       1  LIG1        0.1655
      7 H           2.1813   -0.6177    0.1993 H       1  LIG1        0.0820
      8 C           1.5868    2.1941   -0.3257 C.1     1  LIG1       -0.0645
      9 C           2.2915    3.1663   -0.4250 C.1     1  LIG1       -0.1137
     10 H           2.9173    4.0252   -0.5006 H       1  LIG1        0.1232
     11 O          -1.5589    2.0014   -0.5074 O.3     1  LIG1       -0.4917
     12 C          -1.3586    2.7494   -1.7104 C.3     1  LIG1        0.0789
     13 H          -2.1602    3.4877   -1.7454 H       1  LIG1        0.0660
     14 H          -0.3902    3.2535   -1.6985 H       1  LIG1        0.0660
     15 H          -1.4194    2.0937   -2.5852 H       1  LIG1        0.0660
     16 C          -2.3766   -0.8936   -0.0456 C.ar    1  LIG1        0.0862
     17 C          -2.8290   -2.1921    0.1702 C.ar    1  LIG1        0.0937
     18 C          -4.2548   -2.1495    0.0964 C.ar    1  LIG1        0.1627
     19 C          -4.6343   -0.8443   -0.1623 C.ar    1  LIG1        0.1082
     20 N          -3.4667   -0.1060   -0.2315 N.ar    1  LIG1       -0.3478
     21 H          -3.3765    0.8694   -0.4806 H       1  LIG1        0.1661
     22 C          -2.0222   -3.3292    0.4300 C.1     1  LIG1       -0.0638
     23 C          -1.3093   -4.2769    0.6540 C.1     1  LIG1       -0.1137
     24 H          -0.7168   -5.1411    0.8475 H       1  LIG1        0.1232
     25 O          -5.0439   -3.2390    0.2637 O.3     1  LIG1       -0.4917
     26 C          -5.8340   -3.2343    1.4451 C.3     1  LIG1        0.0789
     27 H          -6.3713   -4.1828    1.4600 H       1  LIG1        0.0660
     28 H          -5.2014   -3.1577    2.3365 H       1  LIG1        0.0660
     29 H          -6.5581   -2.4143    1.4397 H       1  LIG1        0.0660
     30 C          -5.9005   -0.1595   -0.2922 C.ar    1  LIG1        0.0862
     31 C          -7.1718   -0.5512   -0.7188 C.ar    1  LIG1        0.0937
     32 C          -7.9875    0.6236   -0.6722 C.ar    1  LIG1        0.1627
     33 C          -7.2103    1.6793   -0.2505 C.ar    1  LIG1        0.1081
     34 N          -5.9506    1.1782   -0.0301 N.ar    1  LIG1       -0.3478
     35 H          -5.2169    1.7281    0.3945 H       1  LIG1        0.1661
     36 C          -7.5462   -1.8284   -1.2098 C.1     1  LIG1       -0.0638
     37 C          -7.8715   -2.9100   -1.6298 C.1     1  LIG1       -0.1137
     38 H          -8.1313   -3.8663   -2.0207 H       1  LIG1        0.1232
     39 O          -9.2955    0.7721   -1.0386 O.3     1  LIG1       -0.4917
     40 C         -10.2096   -0.1234   -0.4087 C.3     1  LIG1        0.0789
     41 H         -11.2005    0.1360   -0.7828 H       1  LIG1        0.0660
     42 H          -9.9834   -1.1603   -0.6645 H       1  LIG1        0.0660
     43 H         -10.1837   -0.0018    0.6799 H       1  LIG1        0.0660
     44 C          -7.5169    3.0761   -0.0868 C.ar    1  LIG1        0.0858
     45 C          -6.6942    4.1440    0.2720 C.ar    1  LIG1        0.0930
     46 C          -7.5265    5.3117    0.2581 C.ar    1  LIG1        0.1533
     47 C          -8.7905    4.9249   -0.0981 C.ar    1  LIG1        0.0457
     48 N          -8.7657    3.5661   -0.3070 N.ar    1  LIG1       -0.3554
     49 H          -9.5185    2.9801   -0.6365 H       1  LIG1        0.1655
     50 H          -9.6833    5.5140   -0.2283 H       1  LIG1        0.0845
     51 C          -5.2996    4.0546    0.5200 C.1     1  LIG1       -0.0638
     52 C          -4.1144    3.9207    0.7192 C.1     1  LIG1       -0.1137
     53 H          -3.0647    3.7857    0.8610 H       1  LIG1        0.1232
     54 O          -7.1458    6.5958    0.4937 O.3     1  LIG1       -0.4924
     55 C          -6.6417    6.8381    1.7993 C.3     1  LIG1        0.0789
     56 H          -6.3985    7.9003    1.8454 H       1  LIG1        0.0660
     57 H          -7.3958    6.6043    2.5600 H       1  LIG1        0.0660
     58 H          -5.7386    6.2528    1.9977 H       1  LIG1        0.0660
@<TRIPOS>BOND
     1    15    12    1
     2    38    37    1
     3    13    12    1
     4    12    14    1
     5    12    11    1
     6    37    36    3
     7    36    31    1
     8    39    32    1
     9    39    40    1
    10    41    40    1
    11    31    32   ar
    12    31    30   ar
    13    32    33   ar
    14    42    40    1
    15    49    48    1
    16    11     3    1
    17    10     9    1
    18    21    20    1
    19     9     8    3
    20    40    43    1
    21     8     2    1
    22    48    47   ar
    23    48    44   ar
    24     3     2   ar
    25     3     4   ar
    26    30    19    1
    27    30    34   ar
    28    33    44    1
    29    33    34   ar
    30    20    19   ar
    31    20    16   ar
    32    50    47    1
    33     2     1   ar
    34    19    18   ar
    35    47    46   ar
    36    44    45   ar
    37     4    16    1
    38     4     5   ar
    39    16    17   ar
    40    34    35    1
    41     1     5   ar
    42     1     7    1
    43    18    17   ar
    44    18    25    1
    45     5     6    1
    46    17    22    1
    47    46    45   ar
    48    46    54    1
    49    25    26    1
    50    45    51    1
    51    22    23    3
    52    54    55    1
    53    51    52    3
    54    23    24    1
    55    52    53    1
    56    29    26    1
    57    26    27    1
    58    26    28    1
    59    55    56    1
    60    55    58    1
    61    55    57    1
