@<TRIPOS>MOLECULE
mol_data/opt/cam/geoms/mol2/13el13el13el13el.out
 58 61 0 0 0
SMALL
GASTEIGER

@<TRIPOS>ATOM
      1 C          -2.0600    2.1228   -2.8940 C.ar    1  LIG1        0.0213
      2 C          -0.9223    2.4316   -2.1752 C.ar    1  LIG1        0.0842
      3 C          -0.8969    1.5385   -1.0530 C.ar    1  LIG1        0.1620
      4 C          -2.0103    0.7304   -1.1271 C.ar    1  LIG1        0.1077
      5 N          -2.6927    1.0928   -2.2770 N.ar    1  LIG1       -0.3554
      6 H          -3.6080    0.7493   -2.5175 H       1  LIG1        0.1655
      7 H          -2.4433    2.5719   -3.7967 H       1  LIG1        0.0820
      8 C           0.0456    3.4058   -2.5418 C.1     1  LIG1       -0.0645
      9 C           0.8596    4.2336   -2.8633 C.1     1  LIG1       -0.1137
     10 H           1.5865    4.9566   -3.1527 H       1  LIG1        0.1232
     11 O           0.0756    1.3942   -0.1231 O.3     1  LIG1       -0.4917
     12 C           0.4161    2.5689    0.6036 C.3     1  LIG1        0.0789
     13 H           1.1804    2.2700    1.3212 H       1  LIG1        0.0660
     14 H           0.8160    3.3435   -0.0552 H       1  LIG1        0.0660
     15 H          -0.4555    2.9538    1.1424 H       1  LIG1        0.0660
     16 C          -2.4616   -0.3726   -0.3048 C.ar    1  LIG1        0.0862
     17 C          -2.5281   -0.5296    1.0777 C.ar    1  LIG1        0.0937
     18 C          -3.1032   -1.8156    1.3060 C.ar    1  LIG1        0.1627
     19 C          -3.3745   -2.3979    0.0864 C.ar    1  LIG1        0.1082
     20 N          -2.9790   -1.5002   -0.8774 N.ar    1  LIG1       -0.3478
     21 H          -2.9472   -1.7249   -1.8621 H       1  LIG1        0.1661
     22 C          -2.1318    0.4082    2.0663 C.1     1  LIG1       -0.0638
     23 C          -1.8252    1.1872    2.9334 C.1     1  LIG1       -0.1137
     24 H          -1.5293    1.8674    3.6980 H       1  LIG1        0.1232
     25 O          -3.3366   -2.4427    2.4983 O.3     1  LIG1       -0.4917
     26 C          -4.2231   -1.7552    3.3795 C.3     1  LIG1        0.0789
     27 H          -4.3023   -2.3686    4.2778 H       1  LIG1        0.0660
     28 H          -3.8286   -0.7723    3.6442 H       1  LIG1        0.0660
     29 H          -5.2121   -1.6395    2.9217 H       1  LIG1        0.0660
     30 C          -3.9228   -3.6945   -0.2124 C.ar    1  LIG1        0.0862
     31 C          -4.2152   -4.3096   -1.4273 C.ar    1  LIG1        0.0937
     32 C          -4.6985   -5.6202   -1.1142 C.ar    1  LIG1        0.1627
     33 C          -4.6880   -5.7670    0.2552 C.ar    1  LIG1        0.1081
     34 N          -4.2203   -4.5759    0.7814 N.ar    1  LIG1       -0.3478
     35 H          -3.9525   -4.4043    1.7409 H       1  LIG1        0.1661
     36 C          -4.0290   -3.7464   -2.7154 C.1     1  LIG1       -0.0638
     37 C          -3.8635   -3.2521   -3.8049 C.1     1  LIG1       -0.1137
     38 H          -3.7086   -2.8600   -4.7836 H       1  LIG1        0.1232
     39 O          -5.0932   -6.5717   -1.9951 O.3     1  LIG1       -0.4917
     40 C          -6.2601   -6.2524   -2.7397 C.3     1  LIG1        0.0789
     41 H          -6.4598   -7.1107   -3.3819 H       1  LIG1        0.0660
     42 H          -7.1163   -6.0897   -2.0749 H       1  LIG1        0.0660
     43 H          -6.1106   -5.3631   -3.3599 H       1  LIG1        0.0660
     44 C          -5.1070   -6.8591    1.1088 C.ar    1  LIG1        0.0858
     45 C          -4.9294   -8.2322    1.0029 C.ar    1  LIG1        0.0930
     46 C          -5.5522   -8.8129    2.1579 C.ar    1  LIG1        0.1533
     47 C          -6.0720   -7.8013    2.9170 C.ar    1  LIG1        0.0457
     48 N          -5.7757   -6.6182    2.2809 N.ar    1  LIG1       -0.3554
     49 H          -6.1458   -5.7185    2.5376 H       1  LIG1        0.1655
     50 H          -6.5995   -7.8376    3.8561 H       1  LIG1        0.0845
     51 C          -4.1881   -8.9182    0.0059 C.1     1  LIG1       -0.0638
     52 C          -3.5552   -9.5163   -0.8263 C.1     1  LIG1       -0.1137
     53 H          -2.9843  -10.0280   -1.5656 H       1  LIG1        0.1232
     54 O          -5.5734  -10.1262    2.5099 O.3     1  LIG1       -0.4924
     55 C          -6.2304  -10.9822    1.5854 C.3     1  LIG1        0.0789
     56 H          -6.1741  -11.9883    2.0029 H       1  LIG1        0.0660
     57 H          -7.2826  -10.6963    1.4680 H       1  LIG1        0.0660
     58 H          -5.7412  -10.9676    0.6076 H       1  LIG1        0.0660
@<TRIPOS>BOND
     1    38    37    1
     2    37    36    3
     3     7     1    1
     4    41    40    1
     5    43    40    1
     6    10     9    1
     7     1     5   ar
     8     1     2   ar
     9     9     8    3
    10    40    42    1
    11    40    39    1
    12    36    31    1
    13     8     2    1
    14     6     5    1
    15     5     4   ar
    16     2     3   ar
    17    39    32    1
    18    21    20    1
    19    53    52    1
    20    31    32   ar
    21    31    30   ar
    22     4     3   ar
    23     4    16    1
    24    32    33   ar
    25     3    11    1
    26    20    16   ar
    27    20    19   ar
    28    52    51    3
    29    16    17   ar
    30    30    19    1
    31    30    34   ar
    32    11    12    1
    33    14    12    1
    34    51    45    1
    35    19    18   ar
    36    33    34   ar
    37    33    44    1
    38    12    15    1
    39    12    13    1
    40    58    55    1
    41    34    35    1
    42    45    44   ar
    43    45    46   ar
    44    17    18   ar
    45    17    22    1
    46    44    48   ar
    47    18    25    1
    48    57    55    1
    49    55    56    1
    50    55    54    1
    51    22    23    3
    52    46    54    1
    53    46    47   ar
    54    48    49    1
    55    48    47   ar
    56    25    26    1
    57    47    50    1
    58    29    26    1
    59    23    24    1
    60    26    28    1
    61    26    27    1
