@<TRIPOS>MOLECULE
mol_data/opt/cam/geoms/mol2/13el13el-13el-13el-.out
 58 61 0 0 0
SMALL
GASTEIGER

@<TRIPOS>ATOM
      1 C           0.8028    0.4133   -1.2731 C.ar    1  LIG1        0.0213
      2 C           0.1502    1.6235   -1.4342 C.ar    1  LIG1        0.0842
      3 C          -1.2246    1.3690   -1.1442 C.ar    1  LIG1        0.1620
      4 C          -1.3576    0.0344   -0.8186 C.ar    1  LIG1        0.1077
      5 N          -0.1037   -0.5236   -0.9010 N.ar    1  LIG1       -0.3554
      6 H           0.0787   -1.4982   -0.7071 H       1  LIG1        0.1655
      7 H           1.8482    0.1794   -1.3974 H       1  LIG1        0.0820
      8 C           0.7545    2.8615   -1.7817 C.1     1  LIG1       -0.0645
      9 C           1.2674    3.9110   -2.0767 C.1     1  LIG1       -0.1137
     10 H           1.7264    4.8398   -2.3251 H       1  LIG1        0.1232
     11 O          -2.2714    2.2527   -1.1210 O.3     1  LIG1       -0.4917
     12 C          -2.4984    2.9584   -2.3443 C.3     1  LIG1        0.0789
     13 H          -3.3745    3.5849   -2.1746 H       1  LIG1        0.0660
     14 H          -1.6394    3.5826   -2.5985 H       1  LIG1        0.0660
     15 H          -2.6960    2.2570   -3.1616 H       1  LIG1        0.0660
     16 C          -2.5327   -0.6990   -0.4248 C.ar    1  LIG1        0.0862
     17 C          -2.7301   -2.0370   -0.0954 C.ar    1  LIG1        0.0937
     18 C          -4.1175   -2.1863    0.2093 C.ar    1  LIG1        0.1627
     19 C          -4.7268   -0.9538    0.0577 C.ar    1  LIG1        0.1082
     20 N          -3.7311   -0.0699   -0.3173 N.ar    1  LIG1       -0.3478
     21 H          -3.8447    0.9001   -0.5786 H       1  LIG1        0.1661
     22 C          -1.7351   -3.0470   -0.0566 C.1     1  LIG1       -0.0638
     23 C          -0.8655   -3.8834   -0.0273 C.1     1  LIG1       -0.1137
     24 H          -0.1304   -4.6540    0.0047 H       1  LIG1        0.1232
     25 O          -4.6797   -3.3627    0.5804 O.3     1  LIG1       -0.4917
     26 C          -5.1191   -3.4193    1.9317 C.3     1  LIG1        0.0789
     27 H          -5.5034   -4.4274    2.0884 H       1  LIG1        0.0660
     28 H          -4.2867   -3.2333    2.6195 H       1  LIG1        0.0660
     29 H          -5.9199   -2.6991    2.1235 H       1  LIG1        0.0660
     30 C          -6.0670   -0.4509    0.2611 C.ar    1  LIG1        0.0862
     31 C          -7.3386   -1.0188    0.1521 C.ar    1  LIG1        0.0937
     32 C          -8.2698    0.0367    0.4063 C.ar    1  LIG1        0.1627
     33 C          -7.5634    1.1942    0.6455 C.ar    1  LIG1        0.1081
     34 N          -6.2327    0.8699    0.5608 N.ar    1  LIG1       -0.3478
     35 H          -5.4983    1.5244    0.7927 H       1  LIG1        0.1661
     36 C          -7.6484   -2.3632   -0.1786 C.1     1  LIG1       -0.0638
     37 C          -7.9248   -3.5013   -0.4618 C.1     1  LIG1       -0.1137
     38 H          -8.1458   -4.5132   -0.7104 H       1  LIG1        0.1232
     39 O          -9.6349   -0.0229    0.4486 O.3     1  LIG1       -0.4917
     40 C         -10.2563   -0.4497   -0.7634 C.3     1  LIG1        0.0789
     41 H         -11.3310   -0.4425   -0.5781 H       1  LIG1        0.0660
     42 H         -10.0190    0.2378   -1.5827 H       1  LIG1        0.0660
     43 H          -9.9388   -1.4594   -1.0316 H       1  LIG1        0.0660
     44 C          -8.0078    2.5331    0.9301 C.ar    1  LIG1        0.0858
     45 C          -7.2794    3.7183    1.0236 C.ar    1  LIG1        0.0930
     46 C          -8.2269    4.7470    1.3155 C.ar    1  LIG1        0.1533
     47 C          -9.4734    4.1752    1.3892 C.ar    1  LIG1        0.0457
     48 N          -9.3142    2.8244    1.1510 N.ar    1  LIG1       -0.3554
     49 H         -10.0320    2.1154    1.1387 H       1  LIG1        0.1655
     50 H         -10.4414    4.6019    1.5892 H       1  LIG1        0.0845
     51 C          -5.8780    3.8450    0.8429 C.1     1  LIG1       -0.0638
     52 C          -4.6807    3.8840    0.6825 C.1     1  LIG1       -0.1137
     53 H          -3.6245    3.9076    0.5290 H       1  LIG1        0.1232
     54 O          -7.8600    6.0380    1.4725 O.3     1  LIG1       -0.4924
     55 C          -8.9125    6.9299    1.7644 C.3     1  LIG1        0.0789
     56 H          -8.4683    7.9198    1.8644 H       1  LIG1        0.0660
     57 H          -9.6556    6.9444    0.9570 H       1  LIG1        0.0660
     58 H          -9.4128    6.6590    2.7027 H       1  LIG1        0.0660
@<TRIPOS>BOND
     1    15    12    1
     2    14    12    1
     3    12    13    1
     4    12    11    1
     5    10     9    1
     6     9     8    3
     7     8     2    1
     8    42    40    1
     9     2     1   ar
    10     2     3   ar
    11     7     1    1
    12     1     5   ar
    13     3    11    1
    14     3     4   ar
    15    43    40    1
    16     5     4   ar
    17     5     6    1
    18     4    16    1
    19    40    41    1
    20    40    39    1
    21    38    37    1
    22    21    20    1
    23    37    36    3
    24    16    20   ar
    25    16    17   ar
    26    20    19   ar
    27    36    31    1
    28    17    22    1
    29    17    18   ar
    30    22    23    3
    31    23    24    1
    32    19    18   ar
    33    19    30    1
    34    31    30   ar
    35    31    32   ar
    36    18    25    1
    37    30    34   ar
    38    32    39    1
    39    32    33   ar
    40    53    52    1
    41    34    33   ar
    42    34    35    1
    43    25    26    1
    44    33    44    1
    45    52    51    3
    46    51    45    1
    47    44    45   ar
    48    44    48   ar
    49    57    55    1
    50    45    46   ar
    51    49    48    1
    52    48    47   ar
    53    46    47   ar
    54    46    54    1
    55    47    50    1
    56    54    55    1
    57    55    56    1
    58    55    58    1
    59    26    27    1
    60    26    29    1
    61    26    28    1
