@<TRIPOS>MOLECULE
mol_data/opt/cam/geoms/mol2/13el13el-.out
 30 31 0 0 0
SMALL
GASTEIGER

@<TRIPOS>ATOM
      1 C           1.2400   -0.3480   -0.0005 C.ar    1  LIG1        0.0213
      2 C           0.8803    0.9929   -0.0002 C.ar    1  LIG1        0.0842
      3 C          -0.5503    1.0104    0.0004 C.ar    1  LIG1        0.1620
      4 C          -0.9959   -0.2973    0.0003 C.ar    1  LIG1        0.1077
      5 N           0.1206   -1.1022   -0.0002 N.ar    1  LIG1       -0.3554
      6 H           0.0682   -2.1116   -0.0004 H       1  LIG1        0.1655
      7 H           2.2270   -0.7822   -0.0010 H       1  LIG1        0.0820
      8 C           1.8201    2.0609   -0.0004 C.1     1  LIG1       -0.0645
      9 C           2.6494    2.9352   -0.0004 C.1     1  LIG1       -0.1137
     10 H           3.3808    3.7096    0.0004 H       1  LIG1        0.1232
     11 O          -1.4405    2.0424    0.0009 O.3     1  LIG1       -0.4917
     12 C          -0.9333    3.3665    0.0007 C.3     1  LIG1        0.0789
     13 H          -1.8042    4.0224    0.0011 H       1  LIG1        0.0660
     14 H          -0.3276    3.5595    0.8901 H       1  LIG1        0.0660
     15 H          -0.3284    3.5596   -0.8891 H       1  LIG1        0.0660
     16 C          -2.3408   -0.8148    0.0008 C.ar    1  LIG1        0.0857
     17 C          -2.8104   -2.1273    0.0007 C.ar    1  LIG1        0.0930
     18 C          -4.2371   -2.0442    0.0013 C.ar    1  LIG1        0.1533
     19 C          -4.5904   -0.7184    0.0016 C.ar    1  LIG1        0.0457
     20 N          -3.4182    0.0113    0.0013 N.ar    1  LIG1       -0.3554
     21 H          -3.3250    1.0155    0.0014 H       1  LIG1        0.1655
     22 H          -5.5535   -0.2372    0.0021 H       1  LIG1        0.0845
     23 C          -2.0255   -3.3070    0.0002 C.1     1  LIG1       -0.0638
     24 C          -1.3339   -4.2969   -0.0002 C.1     1  LIG1       -0.1137
     25 H          -0.7614   -5.1953   -0.0003 H       1  LIG1        0.1232
     26 O          -5.0199   -3.1464    0.0014 O.3     1  LIG1       -0.4924
     27 C          -6.4070   -2.8956    0.0019 C.3     1  LIG1        0.0789
     28 H          -6.9034   -3.8657    0.0019 H       1  LIG1        0.0660
     29 H          -6.7080   -2.3328    0.8947 H       1  LIG1        0.0660
     30 H          -6.7087   -2.3325   -0.8905 H       1  LIG1        0.0660
@<TRIPOS>BOND
     1    30    27    1
     2    15    12    1
     3     7     1    1
     4     1     5   ar
     5     1     2   ar
     6     9     8    3
     7     9    10    1
     8     6     5    1
     9     8     2    1
    10    25    24    1
    11    24    23    3
    12     5     4   ar
    13     2     3   ar
    14    23    17    1
    15     4     3   ar
    16     4    16    1
    17     3    11    1
    18    17    16   ar
    19    17    18   ar
    20    12    11    1
    21    12    13    1
    22    12    14    1
    23    16    20   ar
    24    18    26    1
    25    18    19   ar
    26    20    21    1
    27    20    19   ar
    28    26    27    1
    29    19    22    1
    30    28    27    1
    31    27    29    1
