@<TRIPOS>MOLECULE
mol_data/opt/cam/geoms/mol2/13el13el.out
 30 31 0 0 0
SMALL
GASTEIGER

@<TRIPOS>ATOM
      1 C           1.2637   -0.3302   -0.6222 C.ar    1  LIG1        0.0213
      2 C           1.0524    0.8956   -0.0238 C.ar    1  LIG1        0.0842
      3 C          -0.3458    0.9578    0.2911 C.ar    1  LIG1        0.1620
      4 C          -0.9291   -0.2176   -0.1244 C.ar    1  LIG1        0.1077
      5 N           0.0822   -0.9992   -0.6584 N.ar    1  LIG1       -0.3554
      6 H          -0.0819   -1.8555   -1.1618 H       1  LIG1        0.1655
      7 H           2.1747   -0.7554   -1.0131 H       1  LIG1        0.0820
      8 C           2.0537    1.8613    0.2670 C.1     1  LIG1       -0.0645
      9 C           2.9071    2.6759    0.5107 C.1     1  LIG1       -0.1137
     10 H           3.6628    3.3920    0.7365 H       1  LIG1        0.1232
     11 O          -1.0001    1.9318    0.9685 O.3     1  LIG1       -0.4917
     12 C          -0.9542    3.2240    0.3730 C.3     1  LIG1        0.0789
     13 H          -1.5418    3.8771    1.0189 H       1  LIG1        0.0660
     14 H           0.0711    3.5985    0.3126 H       1  LIG1        0.0660
     15 H          -1.4029    3.2022   -0.6246 H       1  LIG1        0.0660
     16 C          -2.2907   -0.7076   -0.0169 C.ar    1  LIG1        0.0857
     17 C          -3.5046   -0.1317   -0.3629 C.ar    1  LIG1        0.0930
     18 C          -4.5199   -1.0935   -0.0427 C.ar    1  LIG1        0.1533
     19 C          -3.9075   -2.2027    0.4718 C.ar    1  LIG1        0.0457
     20 N          -2.5533   -1.9643    0.4615 N.ar    1  LIG1       -0.3554
     21 H          -1.8639   -2.5402    0.9158 H       1  LIG1        0.1655
     22 H          -4.3297   -3.1322    0.8172 H       1  LIG1        0.0845
     23 C          -3.7017    1.1238   -0.9947 C.1     1  LIG1       -0.0638
     24 C          -3.9010    2.1790   -1.5422 C.1     1  LIG1       -0.1137
     25 H          -4.0792    3.1050   -2.0377 H       1  LIG1        0.1232
     26 O          -5.8563   -0.9832   -0.2681 O.3     1  LIG1       -0.4924
     27 C          -6.4970    0.0585    0.4565 C.3     1  LIG1        0.0789
     28 H          -7.5520    0.0218    0.1823 H       1  LIG1        0.0660
     29 H          -6.3962   -0.0980    1.5369 H       1  LIG1        0.0660
     30 H          -6.0885    1.0387    0.1949 H       1  LIG1        0.0660
@<TRIPOS>BOND
     1    25    24    1
     2    24    23    3
     3     6     5    1
     4     7     1    1
     5    23    17    1
     6     5     1   ar
     7     5     4   ar
     8    15    12    1
     9     1     2   ar
    10    17    18   ar
    11    17    16   ar
    12    26    18    1
    13    26    27    1
    14     4    16    1
    15     4     3   ar
    16    18    19   ar
    17     2     8    1
    18     2     3   ar
    19    16    20   ar
    20    28    27    1
    21    30    27    1
    22     8     9    3
    23     3    11    1
    24    14    12    1
    25    12    11    1
    26    12    13    1
    27    27    29    1
    28    20    19   ar
    29    20    21    1
    30    19    22    1
    31     9    10    1
