@<TRIPOS>MOLECULE
mol_data/opt/cam/geoms/mol2/13el6ll6fi-12id.out
 57 60 0 0 0
SMALL
GASTEIGER

@<TRIPOS>ATOM
      1 C           1.0944   -0.2616    0.1468 C.ar    1  LIG1        0.0179
      2 C           0.6770    0.8631    0.8442 C.ar    1  LIG1        0.0455
      3 C          -0.7623    0.8761    0.8305 C.ar    1  LIG1       -0.0084
      4 C          -1.1652   -0.2424    0.1158 C.ar    1  LIG1        0.0682
      5 N          -0.0187   -0.9314   -0.2699 N.ar    1  LIG1       -0.3581
      6 H          -0.0189   -1.7005   -0.9213 H       1  LIG1        0.1654
      7 H           2.0904   -0.6162   -0.0691 H       1  LIG1        0.0819
      8 C           1.5186    1.8107    1.4831 C.1     1  LIG1       -0.0679
      9 C           2.2200    2.6285    2.0364 C.1     1  LIG1       -0.1139
     10 H           2.8429    3.3457    2.5175 H       1  LIG1        0.1232
     11 C          -1.6303    1.8864    1.5137 C.3     1  LIG1       -0.0365
     12 H          -2.5963    1.4556    1.7899 H       1  LIG1        0.0279
     13 H          -1.8378    2.7459    0.8666 H       1  LIG1        0.0279
     14 H          -1.1407    2.2614    2.4172 H       1  LIG1        0.0279
     15 C          -2.4780   -0.7719   -0.1971 C.ar    1  LIG1        0.0795
     16 C          -3.6490   -0.1617   -0.6635 C.ar    1  LIG1        0.0549
     17 C          -4.6487   -1.1797   -0.8314 C.ar    1  LIG1       -0.0060
     18 C          -4.0590   -2.3837   -0.4633 C.ar    1  LIG1        0.0905
     19 N          -2.7464   -2.1152   -0.1046 N.ar    1  LIG1       -0.3493
     20 H          -2.1444   -2.7984    0.3284 H       1  LIG1        0.1661
     21 C          -3.8136    1.2023   -1.0129 C.1     1  LIG1       -0.0672
     22 C          -3.9900    2.3582   -1.3308 C.1     1  LIG1       -0.1138
     23 H          -4.1312    3.3743   -1.6162 H       1  LIG1        0.1232
     24 C          -6.0223   -0.9322   -1.3757 C.3     1  LIG1       -0.0364
     25 H          -6.5862   -1.8586   -1.4844 H       1  LIG1        0.0279
     26 H          -5.9663   -0.4381   -2.3524 H       1  LIG1        0.0279
     27 H          -6.5896   -0.2602   -0.7203 H       1  LIG1        0.0279
     28 C          -4.5190   -3.7512   -0.3951 C.ar    1  LIG1        0.1953
     29 C          -5.7327   -4.3949   -0.3268 C.ar    1  LIG1        0.1885
     30 C          -5.4760   -5.8012   -0.2216 C.ar    1  LIG1        0.1140
     31 C          -4.1099   -5.9522   -0.1884 C.ar    1  LIG1        0.1603
     32 O          -3.5276   -4.6960   -0.3172 O.2     1  LIG1       -0.4476
     33 O          -6.9969   -3.8675   -0.3918 O.3     1  LIG1       -0.4896
     34 C          -7.5415   -3.5095    0.8889 C.3     1  LIG1        0.0791
     35 H          -8.5528   -3.1433    0.7025 H       1  LIG1        0.0660
     36 H          -7.5803   -4.3793    1.5547 H       1  LIG1        0.0660
     37 H          -6.9458   -2.7193    1.3587 H       1  LIG1        0.0660
     38 N          -6.4894   -6.7624   -0.1701 N.pl3   1  LIG1       -0.3522
     39 H          -7.3492   -6.3995   -0.5685 H       1  LIG1        0.1425
     40 H          -6.2342   -7.6338   -0.6202 H       1  LIG1        0.1425
     41 C          -3.3619   -8.1776    0.7212 C.ar    1  LIG1       -0.0397
     42 C          -2.4746   -9.2569    0.6115 C.ar    1  LIG1       -0.0579
     43 C          -3.2077   -7.1035   -0.1875 C.ar    1  LIG1        0.0224
     44 C          -1.4474   -9.2767   -0.3266 C.ar    1  LIG1       -0.0586
     45 H          -2.5814  -10.0917    1.2998 H       1  LIG1        0.0620
     46 C          -2.1492   -7.1293   -1.1172 C.ar    1  LIG1       -0.0478
     47 C          -1.2578   -8.1973   -1.2012 C.ar    1  LIG1       -0.0498
     48 H          -2.0421   -6.2890   -1.7973 H       1  LIG1        0.0627
     49 H          -0.7779  -10.1323   -0.3726 H       1  LIG1        0.0620
     50 C          -4.3823   -8.1529    1.8345 C.3     1  LIG1       -0.0390
     51 H          -4.2270   -8.9938    2.5156 H       1  LIG1        0.0278
     52 H          -5.4160   -8.1917    1.4758 H       1  LIG1        0.0278
     53 H          -4.2996   -7.2264    2.4136 H       1  LIG1        0.0278
     54 C          -0.1267   -8.1992   -2.2028 C.3     1  LIG1       -0.0397
     55 H          -0.1998   -7.3523   -2.8907 H       1  LIG1        0.0278
     56 H          -0.1229   -9.1172   -2.8008 H       1  LIG1        0.0278
     57 H           0.8479   -8.1384   -1.7036 H       1  LIG1        0.0278
@<TRIPOS>BOND
     1    55    54    1
     2    56    54    1
     3    26    24    1
     4    54    57    1
     5    54    47    1
     6    48    46    1
     7    23    22    1
     8    25    24    1
     9    24    17    1
    10    24    27    1
    11    22    21    3
    12    47    46   ar
    13    47    44   ar
    14    46    43   ar
    15    21    16    1
    16     6     5    1
    17    17    16   ar
    18    17    18   ar
    19    16    15   ar
    20    40    38    1
    21    39    38    1
    22    18    28    1
    23    18    19   ar
    24    28    29   ar
    25    28    32   ar
    26    33    29    1
    27    33    34    1
    28    49    44    1
    29    29    30   ar
    30    44    42   ar
    31    32    31   ar
    32     5     4   ar
    33     5     1   ar
    34    30    31   ar
    35    30    38    1
    36    15    19   ar
    37    15     4    1
    38    31    43    1
    39    43    41   ar
    40    19    20    1
    41     7     1    1
    42     4     3   ar
    43     1     2   ar
    44    42    41   ar
    45    42    45    1
    46    35    34    1
    47    41    50    1
    48     3     2   ar
    49     3    11    1
    50     2     8    1
    51    13    11    1
    52    34    37    1
    53    34    36    1
    54    52    50    1
    55     8     9    3
    56    11    12    1
    57    11    14    1
    58    50    53    1
    59    50    51    1
    60     9    10    1
