@<TRIPOS>MOLECULE
mol_data/opt/cam/geoms/mol2/13el13el13el13el-.out
 58 61 0 0 0
SMALL
GASTEIGER

@<TRIPOS>ATOM
      1 C           0.7140    0.3429   -2.2636 C.ar    1  LIG1        0.0213
      2 C           0.9114    1.0659   -1.1044 C.ar    1  LIG1        0.0842
      3 C          -0.2591    0.8684   -0.2991 C.ar    1  LIG1        0.1620
      4 C          -1.1176    0.0436   -0.9901 C.ar    1  LIG1        0.1077
      5 N          -0.4875   -0.2845   -2.1799 N.ar    1  LIG1       -0.3554
      6 H          -0.9431   -0.7592   -2.9421 H       1  LIG1        0.1655
      7 H           1.3539    0.2405   -3.1258 H       1  LIG1        0.0820
      8 C           2.0816    1.8015   -0.7737 C.1     1  LIG1       -0.0645
      9 C           3.0765    2.4230   -0.4995 C.1     1  LIG1       -0.1137
     10 H           3.9604    2.9635   -0.2519 H       1  LIG1        0.1232
     11 O          -0.4802    1.3044    0.9641 O.3     1  LIG1       -0.4917
     12 C          -0.4491    2.7173    1.1366 C.3     1  LIG1        0.0789
     13 H          -0.6606    2.8990    2.1907 H       1  LIG1        0.0660
     14 H           0.5328    3.1273    0.8862 H       1  LIG1        0.0660
     15 H          -1.2202    3.1945    0.5247 H       1  LIG1        0.0660
     16 C          -2.4060   -0.5171   -0.6305 C.ar    1  LIG1        0.0862
     17 C          -3.5676    0.0797   -0.1576 C.ar    1  LIG1        0.0937
     18 C          -4.5394   -0.9606   -0.0177 C.ar    1  LIG1        0.1627
     19 C          -3.9622   -2.1487   -0.4096 C.ar    1  LIG1        0.1082
     20 N          -2.6646   -1.8508   -0.7819 N.ar    1  LIG1       -0.3478
     21 H          -1.9904   -2.5286   -1.0996 H       1  LIG1        0.1661
     22 C          -3.7805    1.4641    0.0716 C.1     1  LIG1       -0.0638
     23 C          -3.9958    2.6342    0.2637 C.1     1  LIG1       -0.1137
     24 H          -4.1944    3.6688    0.4220 H       1  LIG1        0.1232
     25 O          -5.8232   -0.8303    0.3966 O.3     1  LIG1       -0.4917
     26 C          -5.9780   -0.3854    1.7387 C.3     1  LIG1        0.0789
     27 H          -7.0515   -0.3431    1.9252 H       1  LIG1        0.0660
     28 H          -5.5146   -1.0899    2.4387 H       1  LIG1        0.0660
     29 H          -5.5438    0.6078    1.8836 H       1  LIG1        0.0660
     30 C          -4.4653   -3.5054   -0.4353 C.ar    1  LIG1        0.0862
     31 C          -5.6901   -4.0226   -0.8499 C.ar    1  LIG1        0.0937
     32 C          -5.6047   -5.4369   -0.6752 C.ar    1  LIG1        0.1627
     33 C          -4.3542   -5.7435   -0.1853 C.ar    1  LIG1        0.1081
     34 N          -3.6732   -4.5550   -0.0607 N.ar    1  LIG1       -0.3478
     35 H          -2.7771   -4.4867    0.4031 H       1  LIG1        0.1661
     36 C          -6.7629   -3.2966   -1.4299 C.1     1  LIG1       -0.0638
     37 C          -7.6760   -2.6957   -1.9356 C.1     1  LIG1       -0.1137
     38 H          -8.4712   -2.1458   -2.3826 H       1  LIG1        0.1232
     39 O          -6.5346   -6.3904   -0.9847 O.3     1  LIG1       -0.4917
     40 C          -7.8093   -6.2117   -0.3684 C.3     1  LIG1        0.0789
     41 H          -8.4300   -7.0455   -0.6982 H       1  LIG1        0.0660
     42 H          -7.7175   -6.2293    0.7231 H       1  LIG1        0.0660
     43 H          -8.2663   -5.2705   -0.6803 H       1  LIG1        0.0660
     44 C          -3.7763   -7.0218    0.1413 C.ar    1  LIG1        0.0858
     45 C          -2.5405   -7.3484    0.6959 C.ar    1  LIG1        0.0930
     46 C          -2.5082   -8.7738    0.7920 C.ar    1  LIG1        0.1533
     47 C          -3.6945   -9.2641    0.3050 C.ar    1  LIG1        0.0457
     48 N          -4.4512   -8.1778   -0.0843 N.ar    1  LIG1       -0.3554
     49 H          -5.3667   -8.1870   -0.5090 H       1  LIG1        0.1655
     50 H          -4.0599  -10.2716    0.2022 H       1  LIG1        0.0845
     51 C          -1.5263   -6.4400    1.0898 C.1     1  LIG1       -0.0638
     52 C          -0.6795   -5.6429    1.4147 C.1     1  LIG1       -0.1137
     53 H           0.0884   -4.9735    1.7278 H       1  LIG1        0.1232
     54 O          -1.4426   -9.4355    1.2948 O.3     1  LIG1       -0.4924
     55 C          -1.5674  -10.8398    1.3217 C.3     1  LIG1        0.0789
     56 H          -0.6437  -11.2304    1.7477 H       1  LIG1        0.0660
     57 H          -2.4155  -11.1504    1.9450 H       1  LIG1        0.0660
     58 H          -1.7023  -11.2454    0.3111 H       1  LIG1        0.0660
@<TRIPOS>BOND
     1     7     1    1
     2     6     5    1
     3    38    37    1
     4     1     5   ar
     5     1     2   ar
     6     5     4   ar
     7    37    36    3
     8    36    31    1
     9     2     8    1
    10     2     3   ar
    11    21    20    1
    12     4    16    1
    13     4     3   ar
    14    39    32    1
    15    39    40    1
    16    31    32   ar
    17    31    30   ar
    18    20    16   ar
    19    20    19   ar
    20     8     9    3
    21    41    40    1
    22    43    40    1
    23    32    33   ar
    24    16    17   ar
    25    49    48    1
    26     9    10    1
    27    30    19    1
    28    30    34   ar
    29    19    18   ar
    30    40    42    1
    31     3    11    1
    32    33    34   ar
    33    33    44    1
    34    17    18   ar
    35    17    22    1
    36    48    44   ar
    37    48    47   ar
    38    34    35    1
    39    18    25    1
    40    22    23    3
    41    44    45   ar
    42    50    47    1
    43    23    24    1
    44    47    46   ar
    45    58    55    1
    46    25    26    1
    47    15    12    1
    48    45    46   ar
    49    45    51    1
    50    46    54    1
    51    14    12    1
    52    11    12    1
    53    51    52    3
    54    12    13    1
    55    54    55    1
    56    55    56    1
    57    55    57    1
    58    52    53    1
    59    26    29    1
    60    26    27    1
    61    26    28    1
