@<TRIPOS>MOLECULE
mol_data/opt/cam/geoms/mol2/13el4ha-6ff-6ii.out
 54 57 0 0 0
SMALL
GASTEIGER

@<TRIPOS>ATOM
      1 C           1.2444    0.0743    1.1319 C.ar    1  LIG1        0.0213
      2 C           1.0158    1.2619    0.4697 C.ar    1  LIG1        0.0842
      3 C          -0.3562    1.2329    0.0682 C.ar    1  LIG1        0.1606
      4 C          -0.9213    0.0476    0.4857 C.ar    1  LIG1        0.0917
      5 N           0.0888   -0.6408    1.1298 N.ar    1  LIG1       -0.3565
      6 H          -0.0599   -1.5010    1.6313 H       1  LIG1        0.1655
      7 H           2.1425   -0.2905    1.6047 H       1  LIG1        0.0820
      8 C           1.9510    2.3048    0.2342 C.1     1  LIG1       -0.0645
      9 C           2.7379    3.1922    0.0235 C.1     1  LIG1       -0.1137
     10 H           3.4338    3.9803   -0.1486 H       1  LIG1        0.1232
     11 O          -1.0173    2.2283   -0.5964 O.3     1  LIG1       -0.4918
     12 C          -0.6405    2.3921   -1.9612 C.3     1  LIG1        0.0789
     13 H          -1.2492    3.2054   -2.3572 H       1  LIG1        0.0660
     14 H           0.4174    2.6564   -2.0400 H       1  LIG1        0.0660
     15 H          -0.8346    1.4760   -2.5289 H       1  LIG1        0.0660
     16 C          -3.4498    0.1992    0.4954 C.ar    1  LIG1        0.0345
     17 C          -4.6754   -0.4751    0.4184 C.ar    1  LIG1       -0.0325
     18 C          -2.2560   -0.5482    0.3434 C.ar    1  LIG1        0.0226
     19 C          -4.7620   -1.8473    0.2084 C.ar    1  LIG1       -0.0109
     20 H          -5.5906    0.1011    0.5203 H       1  LIG1        0.0642
     21 C          -2.3592   -1.9214    0.1113 C.ar    1  LIG1       -0.0502
     22 C          -3.5785   -2.5783    0.0470 C.ar    1  LIG1       -0.0531
     23 H          -1.4466   -2.4931   -0.0306 H       1  LIG1        0.0625
     24 N          -3.4269    1.5486    0.7709 N.pl3   1  LIG1       -0.3574
     25 H          -2.6703    2.0827    0.3588 H       1  LIG1        0.1423
     26 H          -4.3224    2.0096    0.7198 H       1  LIG1        0.1423
     27 H          -3.6096   -3.6540   -0.0900 H       1  LIG1        0.0624
     28 C          -6.4451   -3.4020   -0.8763 C.ar    1  LIG1        0.2210
     29 C          -6.0887   -2.5094    0.1586 C.ar    1  LIG1        0.0470
     30 C          -7.0488   -2.2712    1.1299 C.ar    1  LIG1       -0.0052
     31 C          -8.2877   -2.8994    1.0663 C.ar    1  LIG1        0.1436
     32 C          -8.5380   -3.7654   -0.0003 C.ar    1  LIG1        0.1178
     33 N          -7.6156   -3.9985   -0.9410 N.ar    1  LIG1       -0.2088
     34 H          -6.8363   -1.6151    1.9669 H       1  LIG1        0.0662
     35 O          -5.6007   -3.6980   -1.8940 O.3     1  LIG1       -0.4920
     36 H          -4.8140   -3.1403   -1.8195 H       1  LIG1        0.2937
     37 O          -9.1831   -2.6426    2.0612 O.3     1  LIG1       -0.5046
     38 H          -9.9306   -3.2485    1.9708 H       1  LIG1        0.2922
     39 C          -9.9530   -5.8535   -0.2791 C.ar    1  LIG1        0.0475
     40 C          -9.8513   -4.4540   -0.1350 C.ar    1  LIG1        0.0253
     41 C         -11.0273   -3.7090   -0.1332 C.ar    1  LIG1       -0.0464
     42 C         -12.2672   -4.3303   -0.2739 C.ar    1  LIG1       -0.0317
     43 C         -12.2455   -5.7118   -0.4088 C.ar    1  LIG1        0.0308
     44 N         -11.1363   -6.4511   -0.4104 N.ar    1  LIG1       -0.2592
     45 H         -10.9732   -2.6263   -0.0434 H       1  LIG1        0.0628
     46 H         -13.1805   -6.2584   -0.5224 H       1  LIG1        0.0832
     47 C          -8.7457   -6.7481   -0.2867 C.3     1  LIG1       -0.0217
     48 H          -8.1140   -6.5730    0.5892 H       1  LIG1        0.0293
     49 H          -8.1263   -6.5527   -1.1644 H       1  LIG1        0.0293
     50 H          -9.0772   -7.7860   -0.2913 H       1  LIG1        0.0293
     51 C         -13.5520   -3.5502   -0.2920 C.3     1  LIG1       -0.0383
     52 H         -14.4139   -4.2153   -0.3801 H       1  LIG1        0.0278
     53 H         -13.5816   -2.8528   -1.1346 H       1  LIG1        0.0278
     54 H         -13.6763   -2.9610    0.6215 H       1  LIG1        0.0278
@<TRIPOS>BOND
     1    15    12    1
     2    13    12    1
     3    14    12    1
     4    12    11    1
     5    35    36    1
     6    35    28    1
     7    49    47    1
     8    53    51    1
     9    33    28   ar
    10    33    32   ar
    11    28    29   ar
    12    11     3    1
    13    46    43    1
    14    44    43   ar
    15    44    39   ar
    16    43    42   ar
    17    52    51    1
    18    51    42    1
    19    51    54    1
    20    50    47    1
    21    47    39    1
    22    47    48    1
    23    39    40   ar
    24    42    41   ar
    25    10     9    1
    26    40    41   ar
    27    40    32    1
    28    41    45    1
    29    27    22    1
    30    23    21    1
    31    32    31   ar
    32     9     8    3
    33    22    21   ar
    34    22    19   ar
    35     3     2   ar
    36     3     4   ar
    37    21    18   ar
    38    29    19    1
    39    29    30   ar
    40    19    17   ar
    41     8     2    1
    42    18     4    1
    43    18    16   ar
    44    25    24    1
    45    17    16   ar
    46    17    20    1
    47     2     1   ar
    48     4     5   ar
    49    16    24    1
    50    26    24    1
    51    31    30   ar
    52    31    37    1
    53     5     1   ar
    54     5     6    1
    55    30    34    1
    56     1     7    1
    57    38    37    1
