@<TRIPOS>MOLECULE
mol_data/opt/cam/geoms/mol2/13el13el13el.out
 44 46 0 0 0
SMALL
GASTEIGER

@<TRIPOS>ATOM
      1 C           1.0810   -0.1203   -1.4128 C.ar    1  LIG1        0.0213
      2 C           1.0500    0.8964   -0.4796 C.ar    1  LIG1        0.0842
      3 C          -0.2716    0.8946    0.0779 C.ar    1  LIG1        0.1620
      4 C          -0.9894   -0.1098   -0.5298 C.ar    1  LIG1        0.1077
      5 N          -0.1310   -0.7330   -1.4214 N.ar    1  LIG1       -0.3554
      6 H          -0.4296   -1.4093   -2.1051 H       1  LIG1        0.1655
      7 H           1.8867   -0.4368   -2.0563 H       1  LIG1        0.0820
      8 C           2.1450    1.7271   -0.1181 C.1     1  LIG1       -0.0645
      9 C           3.0765    2.4286    0.1845 C.1     1  LIG1       -0.1137
     10 H           3.9029    3.0419    0.4597 H       1  LIG1        0.1232
     11 O          -0.7430    1.6550    1.0953 O.3     1  LIG1       -0.4917
     12 C          -0.7159    3.0605    0.8679 C.3     1  LIG1        0.0789
     13 H          -1.1365    3.5212    1.7622 H       1  LIG1        0.0660
     14 H           0.3059    3.4200    0.7198 H       1  LIG1        0.0660
     15 H          -1.3323    3.3198    0.0020 H       1  LIG1        0.0660
     16 C          -2.3457   -0.5814   -0.3190 C.ar    1  LIG1        0.0862
     17 C          -3.5625    0.0874   -0.3403 C.ar    1  LIG1        0.0937
     18 C          -4.5777   -0.8938   -0.1083 C.ar    1  LIG1        0.1627
     19 C          -3.9691   -2.1197    0.0426 C.ar    1  LIG1        0.1081
     20 N          -2.6108   -1.9035   -0.0934 N.ar    1  LIG1       -0.3478
     21 H          -1.9089   -2.6237   -0.0399 H       1  LIG1        0.1661
     22 C          -3.7680    1.4656   -0.6111 C.1     1  LIG1       -0.0638
     23 C          -3.9723    2.6294   -0.8484 C.1     1  LIG1       -0.1137
     24 H          -4.1592    3.6538   -1.0731 H       1  LIG1        0.1232
     25 O          -5.9179   -0.6944   -0.0742 O.3     1  LIG1       -0.4917
     26 C          -6.3737    0.1454    0.9786 C.3     1  LIG1        0.0789
     27 H          -7.4579    0.2023    0.8780 H       1  LIG1        0.0660
     28 H          -6.1217   -0.2825    1.9559 H       1  LIG1        0.0660
     29 H          -5.9480    1.1500    0.9029 H       1  LIG1        0.0660
     30 C          -4.5109   -3.4351    0.3236 C.ar    1  LIG1        0.0858
     31 C          -5.5586   -4.1343   -0.2576 C.ar    1  LIG1        0.0930
     32 C          -5.6283   -5.3992    0.4161 C.ar    1  LIG1        0.1533
     33 C          -4.6404   -5.4330    1.3613 C.ar    1  LIG1        0.0457
     34 N          -3.9525   -4.2446    1.2796 N.ar    1  LIG1       -0.3554
     35 H          -3.2778   -3.9260    1.9554 H       1  LIG1        0.1655
     36 H          -4.3706   -6.2115    2.0562 H       1  LIG1        0.0845
     37 C          -6.3422   -3.7115   -1.3631 C.1     1  LIG1       -0.0638
     38 C          -7.0083   -3.3681   -2.3060 C.1     1  LIG1       -0.1137
     39 H          -7.5883   -3.0508   -3.1410 H       1  LIG1        0.1232
     40 O          -6.4626   -6.4362    0.1388 O.3     1  LIG1       -0.4924
     41 C          -7.8457   -6.1491    0.2975 C.3     1  LIG1        0.0789
     42 H          -8.3815   -7.0657    0.0477 H       1  LIG1        0.0660
     43 H          -8.0699   -5.8682    1.3334 H       1  LIG1        0.0660
     44 H          -8.1679   -5.3466   -0.3717 H       1  LIG1        0.0660
@<TRIPOS>BOND
     1    39    38    1
     2    38    37    3
     3     6     5    1
     4     7     1    1
     5     5     1   ar
     6     5     4   ar
     7     1     2   ar
     8    37    31    1
     9    24    23    1
    10    23    22    3
    11    22    17    1
    12     4    16    1
    13     4     3   ar
    14     2     8    1
    15     2     3   ar
    16    44    41    1
    17    17    16   ar
    18    17    18   ar
    19    16    20   ar
    20    31    30   ar
    21    31    32   ar
    22     8     9    3
    23    18    25    1
    24    18    19   ar
    25    20    21    1
    26    20    19   ar
    27    25    26    1
    28    15    12    1
    29    19    30    1
    30    42    41    1
    31     3    11    1
    32    40    41    1
    33    40    32    1
    34     9    10    1
    35    41    43    1
    36    30    34   ar
    37    32    33   ar
    38    14    12    1
    39    12    11    1
    40    12    13    1
    41    27    26    1
    42    29    26    1
    43    26    28    1
    44    34    33   ar
    45    34    35    1
    46    33    36    1
