@<TRIPOS>MOLECULE
mol_data/opt/cam/geoms/mol2/13el4dh13fa4al.out
 52 55 0 0 0
SMALL
GASTEIGER

@<TRIPOS>ATOM
      1 C           1.2653   -0.1729    0.8620 C.ar    1  LIG1        0.0213
      2 C           1.0347    1.0359    0.2336 C.ar    1  LIG1        0.0842
      3 C          -0.3588    1.0526   -0.1092 C.ar    1  LIG1        0.1606
      4 C          -0.9167   -0.1348    0.3175 C.ar    1  LIG1        0.0913
      5 N           0.1071   -0.8760    0.8812 N.ar    1  LIG1       -0.3565
      6 H          -0.0388   -1.7405    1.3757 H       1  LIG1        0.1655
      7 H           2.1776   -0.5579    1.2899 H       1  LIG1        0.0820
      8 C           2.0340    2.0060   -0.0513 C.1     1  LIG1       -0.0645
      9 C           2.8993    2.8107   -0.2864 C.1     1  LIG1       -0.1137
     10 H           3.6616    3.5229   -0.5019 H       1  LIG1        0.1232
     11 O          -1.0396    1.9683   -0.8354 O.3     1  LIG1       -0.4918
     12 C          -0.8919    3.3322   -0.4431 C.3     1  LIG1        0.0789
     13 H          -1.5398    3.9042   -1.1071 H       1  LIG1        0.0660
     14 H          -1.2246    3.4741    0.5880 H       1  LIG1        0.0660
     15 H           0.1410    3.6665   -0.5595 H       1  LIG1        0.0660
     16 C          -3.4330    0.0250    0.4141 C.ar    1  LIG1        0.0617
     17 C          -4.6789   -0.5817    0.2580 C.ar    1  LIG1       -0.0327
     18 C          -2.2555   -0.6995    0.1539 C.ar    1  LIG1        0.0210
     19 C          -4.8156   -1.9073   -0.1495 C.ar    1  LIG1        0.0238
     20 H          -5.5717   -0.0111    0.4796 H       1  LIG1        0.0638
     21 C          -2.3944   -2.0190   -0.2739 C.ar    1  LIG1       -0.0299
     22 C          -3.6354   -2.6274   -0.4424 C.ar    1  LIG1        0.0346
     23 H          -1.5011   -2.5777   -0.5392 H       1  LIG1        0.0643
     24 N          -3.4233    2.4282    1.3778 N.1     1  LIG1       -0.1908
     25 C          -3.3988    1.3623    0.9276 C.1     1  LIG1        0.0998
     26 N          -3.7060   -3.9568   -0.8831 N.pl3   1  LIG1       -0.3574
     27 H          -4.4406   -4.1121   -1.5638 H       1  LIG1        0.1423
     28 H          -2.8226   -4.3059   -1.2307 H       1  LIG1        0.1423
     29 C          -6.1437   -2.5073   -0.2397 C.ar    1  LIG1        0.0907
     30 C          -7.3883   -1.9233   -0.4078 C.ar    1  LIG1        0.1427
     31 C          -8.3751   -2.9287   -0.3340 C.ar    1  LIG1        0.0058
     32 C          -7.7213   -4.1284   -0.1146 C.ar    1  LIG1        0.0506
     33 N          -6.3840   -3.8622   -0.0778 N.ar    1  LIG1       -0.3512
     34 H          -5.6682   -4.5134    0.2074 H       1  LIG1        0.1660
     35 O          -7.5698   -0.5898   -0.6184 O.3     1  LIG1       -0.5046
     36 H          -8.5106   -0.4151   -0.7278 H       1  LIG1        0.2922
     37 H          -9.4393   -2.8008   -0.4730 H       1  LIG1        0.0675
     38 C          -9.5699   -5.6846    0.4643 C.ar    1  LIG1       -0.0524
     39 C         -10.0622   -6.9695    0.6017 C.ar    1  LIG1       -0.0577
     40 C          -8.2501   -5.4836    0.0349 C.ar    1  LIG1        0.0019
     41 C          -9.2689   -8.0835    0.3326 C.ar    1  LIG1       -0.0199
     42 H         -11.0836   -7.1190    0.9367 H       1  LIG1        0.0619
     43 C          -7.4569   -6.5939   -0.2425 C.ar    1  LIG1       -0.0108
     44 C          -7.9565   -7.8870   -0.0890 C.ar    1  LIG1        0.1207
     45 H          -6.4422   -6.4888   -0.6110 H       1  LIG1        0.0661
     46 H          -9.6779   -9.0780    0.4534 H       1  LIG1        0.0654
     47 H         -10.1921   -4.8311    0.7077 H       1  LIG1        0.0624
     48 O          -7.0857   -8.8871   -0.3888 O.3     1  LIG1       -0.4951
     49 C          -7.5366  -10.2193   -0.2708 C.3     1  LIG1        0.0788
     50 H          -6.6967  -10.8513   -0.5586 H       1  LIG1        0.0660
     51 H          -7.8288  -10.4575    0.7586 H       1  LIG1        0.0660
     52 H          -8.3828  -10.4201   -0.9381 H       1  LIG1        0.0660
@<TRIPOS>BOND
     1    27    26    1
     2    28    26    1
     3    13    12    1
     4    52    49    1
     5    26    22    1
     6    11    12    1
     7    11     3    1
     8    36    35    1
     9    35    30    1
    10    45    43    1
    11    15    12    1
    12    50    49    1
    13    23    21    1
    14    10     9    1
    15    37    31    1
    16    12    14    1
    17    22    21   ar
    18    22    19   ar
    19    30    31   ar
    20    30    29   ar
    21    48    49    1
    22    48    44    1
    23    31    32   ar
    24     9     8    3
    25    21    18   ar
    26    49    51    1
    27    43    44   ar
    28    43    40   ar
    29    29    19    1
    30    29    33   ar
    31    19    17   ar
    32    32    33   ar
    33    32    40    1
    34     3     2   ar
    35     3     4   ar
    36    44    41   ar
    37    33    34    1
    38     8     2    1
    39    40    38   ar
    40    18     4    1
    41    18    16   ar
    42     2     1   ar
    43    17    16   ar
    44    17    20    1
    45     4     5   ar
    46    41    46    1
    47    41    39   ar
    48    16    25    1
    49    38    39   ar
    50    38    47    1
    51    39    42    1
    52     1     5   ar
    53     1     7    1
    54     5     6    1
    55    25    24    3
