@<TRIPOS>MOLECULE
mol_data/opt/cam/geoms/mol2/13el13el13el-13el-.out
 58 61 0 0 0
SMALL
GASTEIGER

@<TRIPOS>ATOM
      1 C           0.8089    0.2694   -1.5160 C.ar    1  LIG1        0.0213
      2 C           0.8681    0.9787   -0.3328 C.ar    1  LIG1        0.0842
      3 C          -0.3580    0.7117    0.3617 C.ar    1  LIG1        0.1620
      4 C          -1.1116   -0.1390   -0.4168 C.ar    1  LIG1        0.1077
      5 N          -0.3637   -0.4136   -1.5498 N.ar    1  LIG1       -0.3554
      6 H          -0.7238   -0.9041   -2.3522 H       1  LIG1        0.1655
      7 H           1.5267    0.2145   -2.3193 H       1  LIG1        0.0820
      8 C           1.9708    1.7592    0.1086 C.1     1  LIG1       -0.0645
      9 C           2.9110    2.4177    0.4744 C.1     1  LIG1       -0.1137
     10 H           3.7461    2.9914    0.8035 H       1  LIG1        0.1232
     11 O          -0.7136    1.1087    1.6065 O.3     1  LIG1       -0.4917
     12 C          -0.7264    2.5153    1.8225 C.3     1  LIG1        0.0789
     13 H          -1.0615    2.6613    2.8496 H       1  LIG1        0.0660
     14 H           0.2702    2.9465    1.6988 H       1  LIG1        0.0660
     15 H          -1.4295    3.0023    1.1400 H       1  LIG1        0.0660
     16 C          -2.3938   -0.7723   -0.1908 C.ar    1  LIG1        0.0862
     17 C          -3.5959   -0.2714    0.3012 C.ar    1  LIG1        0.0937
     18 C          -4.5251   -1.3535    0.2654 C.ar    1  LIG1        0.1627
     19 C          -3.8876   -2.4626   -0.2471 C.ar    1  LIG1        0.1082
     20 N          -2.5958   -2.0804   -0.5316 N.ar    1  LIG1       -0.3478
     21 H          -1.8713   -2.7352   -0.7904 H       1  LIG1        0.1661
     22 C          -3.8812    1.0674    0.6750 C.1     1  LIG1       -0.0638
     23 C          -4.1672    2.1962    0.9857 C.1     1  LIG1       -0.1137
     24 H          -4.4218    3.1959    1.2514 H       1  LIG1        0.1232
     25 O          -5.8440   -1.3439    0.6121 O.3     1  LIG1       -0.4917
     26 C          -6.0990   -1.0280    1.9808 C.3     1  LIG1        0.0789
     27 H          -7.1720   -1.1501    2.1285 H       1  LIG1        0.0660
     28 H          -5.5606   -1.7147    2.6424 H       1  LIG1        0.0660
     29 H          -5.8065    0.0003    2.2053 H       1  LIG1        0.0660
     30 C          -4.3945   -3.7906   -0.4734 C.ar    1  LIG1        0.0862
     31 C          -3.7386   -4.9683   -0.8425 C.ar    1  LIG1        0.0937
     32 C          -4.7426   -5.9809   -0.8888 C.ar    1  LIG1        0.1627
     33 C          -5.9540   -5.4080   -0.5641 C.ar    1  LIG1        0.1081
     34 N          -5.7141   -4.0759   -0.3216 N.ar    1  LIG1       -0.3478
     35 H          -6.4129   -3.3883   -0.0636 H       1  LIG1        0.1661
     36 C          -2.3572   -5.0970   -1.1350 C.1     1  LIG1       -0.0638
     37 C          -1.1783   -5.1886   -1.3818 C.1     1  LIG1       -0.1137
     38 H          -0.1423   -5.3003   -1.6053 H       1  LIG1        0.1232
     39 O          -4.5990   -7.2984   -1.2288 O.3     1  LIG1       -0.4917
     40 C          -3.6868   -8.0304   -0.4120 C.3     1  LIG1        0.0789
     41 H          -3.6969   -9.0567   -0.7806 H       1  LIG1        0.0660
     42 H          -2.6749   -7.6266   -0.4926 H       1  LIG1        0.0660
     43 H          -4.0030   -8.0112    0.6366 H       1  LIG1        0.0660
     44 C          -7.2621   -6.0090   -0.4957 C.ar    1  LIG1        0.0858
     45 C          -8.5039   -5.4672   -0.1722 C.ar    1  LIG1        0.0930
     46 C          -9.4464   -6.5363   -0.2727 C.ar    1  LIG1        0.1533
     47 C          -8.7716   -7.6715   -0.6476 C.ar    1  LIG1        0.0457
     48 N          -7.4419   -7.3271   -0.7740 N.ar    1  LIG1       -0.3554
     49 H          -6.6834   -7.9163   -1.0828 H       1  LIG1        0.1655
     50 H          -9.1140   -8.6755   -0.8323 H       1  LIG1        0.0845
     51 C          -8.7804   -4.1156    0.1515 C.1     1  LIG1       -0.0638
     52 C          -8.9975   -2.9574    0.4112 C.1     1  LIG1       -0.1137
     53 H          -9.2168   -1.9333    0.6054 H       1  LIG1        0.1232
     54 O         -10.7626   -6.3592   -0.0209 O.3     1  LIG1       -0.4924
     55 C         -11.5625   -7.5090   -0.1787 C.3     1  LIG1        0.0789
     56 H         -12.5866   -7.2149    0.0497 H       1  LIG1        0.0660
     57 H         -11.5135   -7.8883   -1.2073 H       1  LIG1        0.0660
     58 H         -11.2515   -8.3064    0.5084 H       1  LIG1        0.0660
@<TRIPOS>BOND
     1     6     5    1
     2     7     1    1
     3    38    37    1
     4     5     1   ar
     5     5     4   ar
     6     1     2   ar
     7    37    36    3
     8    39    32    1
     9    39    40    1
    10    57    55    1
    11    36    31    1
    12    49    48    1
    13    32    31   ar
    14    32    33   ar
    15    31    30   ar
    16    50    47    1
    17    21    20    1
    18    41    40    1
    19    48    47   ar
    20    48    44   ar
    21    47    46   ar
    22    33    44    1
    23    33    34   ar
    24    20    19   ar
    25    20    16   ar
    26    44    45   ar
    27    42    40    1
    28    30    34   ar
    29    30    19    1
    30     4    16    1
    31     4     3   ar
    32    40    43    1
    33     2     8    1
    34     2     3   ar
    35    34    35    1
    36    46    45   ar
    37    46    54    1
    38    19    18   ar
    39    16    17   ar
    40    55    54    1
    41    55    56    1
    42    55    58    1
    43    45    51    1
    44     8     9    3
    45    51    52    3
    46    18    17   ar
    47    18    25    1
    48    17    22    1
    49     3    11    1
    50    52    53    1
    51     9    10    1
    52    25    26    1
    53    22    23    3
    54    23    24    1
    55    15    12    1
    56    11    12    1
    57    14    12    1
    58    12    13    1
    59    26    27    1
    60    26    29    1
    61    26    28    1
