@<TRIPOS>MOLECULE
mol_data/opt/cam/geoms/mol2/13fa4la-6fe-4aa-.out
 47 50 0 0 0
SMALL
GASTEIGER

@<TRIPOS>ATOM
      1 C           1.4035   -0.1068    0.9106 C.ar    1  LIG1        0.0441
      2 C           1.2819    0.6796   -0.2087 C.ar    1  LIG1        0.1347
      3 C          -0.0380    0.5470   -0.7006 C.ar    1  LIG1        0.0053
      4 C          -0.7007   -0.3370    0.1337 C.ar    1  LIG1        0.0535
      5 N           0.1934   -0.7300    1.0964 N.ar    1  LIG1       -0.3575
      6 H          -0.0436   -1.2819    1.9030 H       1  LIG1        0.1654
      7 H           2.2401   -0.2592    1.5722 H       1  LIG1        0.0844
      8 O           2.2936    1.4391   -0.7155 O.3     1  LIG1       -0.5053
      9 H           1.9803    1.8711   -1.5171 H       1  LIG1        0.2922
     10 H          -0.4628    1.0096   -1.5782 H       1  LIG1        0.0675
     11 C          -3.1180   -0.2008   -0.5334 C.ar    1  LIG1        0.1297
     12 C          -4.3943   -0.7404   -0.5722 C.ar    1  LIG1       -0.0114
     13 C          -2.0560   -0.8833    0.0864 C.ar    1  LIG1        0.0401
     14 C          -4.6798   -1.9765    0.0116 C.ar    1  LIG1       -0.0093
     15 H          -5.1672   -0.1822   -1.0896 H       1  LIG1        0.0660
     16 C          -2.3509   -2.1273    0.6555 C.ar    1  LIG1       -0.0485
     17 C          -3.6305   -2.6621    0.6336 C.ar    1  LIG1       -0.0530
     18 H          -1.5527   -2.7059    1.1094 H       1  LIG1        0.0625
     19 O          -2.9082    1.0054   -1.1559 O.3     1  LIG1       -0.4944
     20 C          -3.0353    2.1331   -0.2981 C.3     1  LIG1        0.0788
     21 H          -2.8726    3.0161   -0.9168 H       1  LIG1        0.0660
     22 H          -4.0386    2.1790    0.1407 H       1  LIG1        0.0660
     23 H          -2.2880    2.1093    0.5014 H       1  LIG1        0.0660
     24 H          -3.8184   -3.6156    1.1176 H       1  LIG1        0.0624
     25 C          -6.3276   -3.8566   -0.4171 C.ar    1  LIG1        0.2208
     26 C          -6.0543   -2.5296   -0.0209 C.ar    1  LIG1        0.0448
     27 C          -7.1579   -1.7643    0.3090 C.ar    1  LIG1       -0.0315
     28 C          -8.4540   -2.2943    0.2941 C.ar    1  LIG1        0.0514
     29 C          -8.5947   -3.6532   -0.0504 C.ar    1  LIG1        0.0901
     30 N          -7.5344   -4.3813   -0.4154 N.ar    1  LIG1       -0.2113
     31 H          -7.0221   -0.7275    0.5979 H       1  LIG1        0.0638
     32 O          -5.3548   -4.6896   -0.8393 O.3     1  LIG1       -0.4920
     33 H          -4.5250   -4.1977   -0.9106 H       1  LIG1        0.2937
     34 C          -9.5422   -1.4133    0.5881 C.1     1  LIG1       -0.0675
     35 C         -10.4058   -0.6099    0.8314 C.1     1  LIG1       -0.1138
     36 H         -11.1880    0.0832    1.0389 H       1  LIG1        0.1232
     37 C         -10.9120   -4.1158    0.8459 C.ar    1  LIG1       -0.0525
     38 C         -12.0953   -4.8427    0.8084 C.ar    1  LIG1       -0.0611
     39 C          -9.8909   -4.3795   -0.0696 C.ar    1  LIG1        0.0017
     40 C         -12.2773   -5.8372   -0.1443 C.ar    1  LIG1       -0.0617
     41 H         -12.8760   -4.6326    1.5323 H       1  LIG1        0.0618
     42 C         -10.0747   -5.3973   -1.0106 C.ar    1  LIG1       -0.0525
     43 C         -11.2614   -6.1134   -1.0536 C.ar    1  LIG1       -0.0611
     44 H          -9.2681   -5.6185   -1.6992 H       1  LIG1        0.0624
     45 H         -13.2047   -6.4002   -0.1745 H       1  LIG1        0.0618
     46 H         -10.7789   -3.3506    1.5997 H       1  LIG1        0.0624
     47 H         -11.3926   -6.8934   -1.7966 H       1  LIG1        0.0618
@<TRIPOS>BOND
     1    47    43    1
     2    44    42    1
     3    10     3    1
     4     9     8    1
     5    19    11    1
     6    19    20    1
     7    15    12    1
     8    43    42   ar
     9    43    40   ar
    10    42    39   ar
    11    21    20    1
    12    33    32    1
    13    32    25    1
    14     8     2    1
    15     3     2   ar
    16     3     4   ar
    17    12    11   ar
    18    12    14   ar
    19    11    13   ar
    20    25    30   ar
    21    25    26   ar
    22    30    29   ar
    23    20    22    1
    24    20    23    1
    25     2     1   ar
    26    45    40    1
    27    40    38   ar
    28    39    29    1
    29    39    37   ar
    30    29    28   ar
    31    26    14    1
    32    26    27   ar
    33    14    17   ar
    34    13     4    1
    35    13    16   ar
    36     4     5   ar
    37    28    27   ar
    38    28    34    1
    39    27    31    1
    40    34    35    3
    41    17    16   ar
    42    17    24    1
    43    16    18    1
    44    38    37   ar
    45    38    41    1
    46    35    36    1
    47    37    46    1
    48     1     5   ar
    49     1     7    1
    50     5     6    1
