@<TRIPOS>MOLECULE
mol_data/opt/cam/geoms/mol2/13fa13fa-13fa-13fa-.out
 38 41 0 0 0
SMALL
GASTEIGER

@<TRIPOS>ATOM
      1 C           1.4105   -0.5482   -0.3366 C.ar    1  LIG1        0.0442
      2 C           1.0718    0.7072   -0.7765 C.ar    1  LIG1        0.1347
      3 C          -0.3354    0.8473   -0.6800 C.ar    1  LIG1        0.0067
      4 C          -0.8230   -0.3477   -0.1761 C.ar    1  LIG1        0.0701
      5 N           0.2419   -1.1766    0.0247 N.ar    1  LIG1       -0.3564
      6 H           0.1485   -2.1082    0.3986 H       1  LIG1        0.1655
      7 H           2.3730   -1.0253   -0.2579 H       1  LIG1        0.0844
      8 O           1.9768    1.6289   -1.2169 O.3     1  LIG1       -0.5053
      9 H           1.4993    2.4118   -1.5091 H       1  LIG1        0.2922
     10 H          -0.9138    1.7237   -0.9399 H       1  LIG1        0.0676
     11 C          -2.1646   -0.7840    0.1278 C.ar    1  LIG1        0.1054
     12 C          -2.6089   -1.9693    0.6724 C.ar    1  LIG1        0.1441
     13 C          -4.0191   -1.9223    0.7853 C.ar    1  LIG1        0.0074
     14 C          -4.4204   -0.6915    0.2943 C.ar    1  LIG1        0.0705
     15 N          -3.2900   -0.0139   -0.0893 N.ar    1  LIG1       -0.3488
     16 H          -3.2977    0.8196   -0.6540 H       1  LIG1        0.1661
     17 O          -1.7543   -2.9783    1.0305 O.3     1  LIG1       -0.5046
     18 H          -2.2398   -3.6523    1.5171 H       1  LIG1        0.2922
     19 H          -4.6655   -2.6569    1.2458 H       1  LIG1        0.0676
     20 C          -5.7527   -0.1541    0.1287 C.ar    1  LIG1        0.1055
     21 C          -6.8887   -0.7853   -0.3348 C.ar    1  LIG1        0.1441
     22 C          -7.9540    0.1449   -0.3343 C.ar    1  LIG1        0.0074
     23 C          -7.4443    1.3463    0.1286 C.ar    1  LIG1        0.0705
     24 N          -6.1148    1.1577    0.3993 N.ar    1  LIG1       -0.3488
     25 H          -5.4886    1.8757    0.7232 H       1  LIG1        0.1661
     26 O          -6.9981   -2.0789   -0.7322 O.3     1  LIG1       -0.5046
     27 H          -6.1069   -2.4540   -0.7699 H       1  LIG1        0.2922
     28 H          -8.9857   -0.0594   -0.5790 H       1  LIG1        0.0676
     29 C          -8.0965    2.6298    0.2779 C.ar    1  LIG1        0.1050
     30 C          -8.9681    3.2623   -0.5833 C.ar    1  LIG1        0.1434
     31 C          -9.3019    4.5261   -0.0364 C.ar    1  LIG1       -0.0021
     32 C          -8.6232    4.6330    1.1517 C.ar    1  LIG1        0.0058
     33 N          -7.8732    3.5054    1.3311 N.ar    1  LIG1       -0.3566
     34 H          -7.4453    3.2362    2.2014 H       1  LIG1        0.1655
     35 H          -8.6186    5.4273    1.8822 H       1  LIG1        0.0808
     36 O          -9.4193    2.8009   -1.7778 O.3     1  LIG1       -0.5046
     37 H          -8.9606    1.9713   -1.9709 H       1  LIG1        0.2922
     38 H          -9.9526    5.2626   -0.4818 H       1  LIG1        0.0669
@<TRIPOS>BOND
     1    37    36    1
     2    36    30    1
     3     9     8    1
     4     8     2    1
     5    10     3    1
     6     2     3   ar
     7     2     1   ar
     8    27    26    1
     9    26    21    1
    10     3     4   ar
    11    16    15    1
    12    30    31   ar
    13    30    29   ar
    14    28    22    1
    15    38    31    1
    16     1     7    1
    17     1     5   ar
    18    21    22   ar
    19    21    20   ar
    20    22    23   ar
    21     4     5   ar
    22     4    11    1
    23    15    11   ar
    24    15    14   ar
    25    31    32   ar
    26     5     6    1
    27    11    12   ar
    28    23    29    1
    29    23    24   ar
    30    20    14    1
    31    20    24   ar
    32    29    33   ar
    33    14    13   ar
    34    24    25    1
    35    12    13   ar
    36    12    17    1
    37    13    19    1
    38    17    18    1
    39    32    33   ar
    40    32    35    1
    41    33    34    1
