@<TRIPOS>MOLECULE
mol_data/opt/cam/geoms/mol2/13fa13fa-13fa.out
 29 31 0 0 0
SMALL
GASTEIGER

@<TRIPOS>ATOM
      1 C           1.2707   -0.2062    0.0193 C.ar    1  LIG1        0.0442
      2 C           0.8562    1.1019    0.0199 C.ar    1  LIG1        0.1347
      3 C          -0.5613    1.1210    0.0142 C.ar    1  LIG1        0.0067
      4 C          -0.9793   -0.1997    0.0102 C.ar    1  LIG1        0.0701
      5 N           0.1364   -0.9858    0.0133 N.ar    1  LIG1       -0.3564
      6 H           0.0957   -1.9929    0.0114 H       1  LIG1        0.1655
      7 H           2.2625   -0.6263    0.0225 H       1  LIG1        0.0844
      8 O           1.7062    2.1717    0.0252 O.3     1  LIG1       -0.5053
      9 H           1.1786    2.9767    0.0247 H       1  LIG1        0.2922
     10 H          -1.1951    1.9976    0.0132 H       1  LIG1        0.0676
     11 C          -2.2964   -0.7890    0.0039 C.ar    1  LIG1        0.1054
     12 C          -2.6719   -2.1172    0.0002 C.ar    1  LIG1        0.1441
     13 C          -4.0817   -2.1969   -0.0055 C.ar    1  LIG1        0.0074
     14 C          -4.5501   -0.8920   -0.0052 C.ar    1  LIG1        0.0705
     15 N          -3.4655   -0.0619    0.0004 N.ar    1  LIG1       -0.3488
     16 H          -3.5440    0.9438    0.0016 H       1  LIG1        0.1661
     17 O          -1.7568   -3.1398    0.0020 O.3     1  LIG1       -0.5046
     18 H          -2.2227   -3.9819    0.0012 H       1  LIG1        0.2922
     19 H          -4.6774   -3.0995   -0.0095 H       1  LIG1        0.0676
     20 C          -5.8871   -0.3503   -0.0097 C.ar    1  LIG1        0.1050
     21 C          -6.3079    0.9636   -0.0097 C.ar    1  LIG1        0.1434
     22 C          -7.7226    0.9915   -0.0151 C.ar    1  LIG1       -0.0021
     23 C          -8.1378   -0.3195   -0.0183 C.ar    1  LIG1        0.0058
     24 N          -7.0323   -1.1177   -0.0151 N.ar    1  LIG1       -0.3566
     25 H          -7.0412   -2.1230   -0.0162 H       1  LIG1        0.1655
     26 H          -9.1323   -0.7371   -0.0226 H       1  LIG1        0.0808
     27 O          -5.4273    2.0152   -0.0050 O.3     1  LIG1       -0.5046
     28 H          -5.9196    2.8422   -0.0057 H       1  LIG1        0.2922
     29 H          -8.3589    1.8649   -0.0165 H       1  LIG1        0.0669
@<TRIPOS>BOND
     1    26    23    1
     2    23    22   ar
     3    23    24   ar
     4    29    22    1
     5    25    24    1
     6    22    21   ar
     7    24    20   ar
     8    20    21   ar
     9    20    14    1
    10    21    27    1
    11    19    13    1
    12    28    27    1
    13    13    14   ar
    14    13    12   ar
    15    14    15   ar
    16    12    17    1
    17    12    11   ar
    18    15    16    1
    19    15    11   ar
    20    18    17    1
    21    11     4    1
    22     4     5   ar
    23     4     3   ar
    24     6     5    1
    25    10     3    1
    26     5     1   ar
    27     3     2   ar
    28     1     2   ar
    29     1     7    1
    30     2     8    1
    31     9     8    1
