@<TRIPOS>MOLECULE
mol_data/opt/cam/geoms/mol2/13fa13fa-13fa13fa-.out
 38 41 0 0 0
SMALL
GASTEIGER

@<TRIPOS>ATOM
      1 C           1.3640   -0.2076    0.0035 C.ar    1  LIG1        0.0442
      2 C           0.9671    1.1058   -0.0009 C.ar    1  LIG1        0.1347
      3 C          -0.4501    1.1443   -0.0013 C.ar    1  LIG1        0.0067
      4 C          -0.8863   -0.1707    0.0029 C.ar    1  LIG1        0.0701
      5 N           0.2187   -0.9717    0.0057 N.ar    1  LIG1       -0.3564
      6 H           0.1631   -1.9781    0.0091 H       1  LIG1        0.1655
      7 H           2.3500   -0.6413    0.0051 H       1  LIG1        0.0844
      8 O           1.8312    2.1648   -0.0043 O.3     1  LIG1       -0.5053
      9 H           1.3132    2.9760   -0.0062 H       1  LIG1        0.2922
     10 H          -1.0717    2.0295   -0.0043 H       1  LIG1        0.0676
     11 C          -2.2106   -0.7431    0.0044 C.ar    1  LIG1        0.1054
     12 C          -2.6026   -2.0666    0.0083 C.ar    1  LIG1        0.1441
     13 C          -4.0128   -2.1299    0.0078 C.ar    1  LIG1        0.0074
     14 C          -4.4660   -0.8194    0.0034 C.ar    1  LIG1        0.0705
     15 N          -3.3712   -0.0016    0.0016 N.ar    1  LIG1       -0.3488
     16 H          -3.4376    1.0046   -0.0016 H       1  LIG1        0.1661
     17 O          -1.6999   -3.1009    0.0130 O.3     1  LIG1       -0.5046
     18 H          -2.1779   -3.9360    0.0043 H       1  LIG1        0.2922
     19 H          -4.6218   -3.0234    0.0106 H       1  LIG1        0.0676
     20 C          -5.7961   -0.2667    0.0010 C.ar    1  LIG1        0.1055
     21 C          -6.2047    1.0524   -0.0033 C.ar    1  LIG1        0.1441
     22 C          -7.6156    1.0969   -0.0040 C.ar    1  LIG1        0.0074
     23 C          -8.0515   -0.2195   -0.0001 C.ar    1  LIG1        0.0705
     24 N          -6.9473   -1.0229    0.0028 N.ar    1  LIG1       -0.3488
     25 H          -7.0033   -2.0301    0.0060 H       1  LIG1        0.1661
     26 O          -5.3151    2.0962   -0.0065 O.3     1  LIG1       -0.5046
     27 H          -5.7999    2.9275   -0.0050 H       1  LIG1        0.2922
     28 H          -8.2333    1.9844   -0.0071 H       1  LIG1        0.0676
     29 C          -9.3741   -0.7948    0.0012 C.ar    1  LIG1        0.1050
     30 C          -9.7600   -2.1195    0.0055 C.ar    1  LIG1        0.1434
     31 C         -11.1733   -2.1847    0.0052 C.ar    1  LIG1       -0.0021
     32 C         -11.6228   -0.8850    0.0007 C.ar    1  LIG1        0.0058
     33 N         -10.5392   -0.0578   -0.0017 N.ar    1  LIG1       -0.3566
     34 H         -10.5755    0.9470   -0.0051 H       1  LIG1        0.1655
     35 H         -12.6281   -0.4941   -0.0009 H       1  LIG1        0.0808
     36 O          -8.8517   -3.1473    0.0090 O.3     1  LIG1       -0.5046
     37 H          -9.3218   -3.9872    0.0142 H       1  LIG1        0.2922
     38 H         -11.7865   -3.0745    0.0079 H       1  LIG1        0.0669
@<TRIPOS>BOND
     1    28    22    1
     2    26    27    1
     3    26    21    1
     4     9     8    1
     5    34    33    1
     6    10     3    1
     7     8     2    1
     8    22    21   ar
     9    22    23   ar
    10    21    20   ar
    11    33    32   ar
    12    33    29   ar
    13    16    15    1
    14     3     2   ar
    15     3     4   ar
    16    35    32    1
    17     2     1   ar
    18    23    29    1
    19    23    24   ar
    20    32    31   ar
    21    20    24   ar
    22    20    14    1
    23    29    30   ar
    24    15    14   ar
    25    15    11   ar
    26    24    25    1
    27     4    11    1
    28     4     5   ar
    29    14    13   ar
    30     1     7    1
    31     1     5   ar
    32    18    17    1
    33    11    12   ar
    34    31    30   ar
    35    31    38    1
    36    30    36    1
    37     5     6    1
    38    13    12   ar
    39    13    19    1
    40    12    17    1
    41    36    37    1
