@<TRIPOS>MOLECULE
mol_data/opt/cam/geoms/mol2/13fa13fa13fa-13fa-.out
 38 41 0 0 0
SMALL
GASTEIGER

@<TRIPOS>ATOM
      1 C           1.2759   -0.2823   -0.3303 C.ar    1  LIG1        0.0442
      2 C           0.8420    0.9796   -0.6425 C.ar    1  LIG1        0.1347
      3 C          -0.5707    1.0124   -0.5177 C.ar    1  LIG1        0.0067
      4 C          -0.9703   -0.2489   -0.1233 C.ar    1  LIG1        0.0701
      5 N           0.1530   -1.0313   -0.0341 N.ar    1  LIG1       -0.3564
      6 H           0.1801   -1.9338    0.4091 H       1  LIG1        0.1655
      7 H           2.2691   -0.6989   -0.3106 H       1  LIG1        0.0844
      8 O           1.6677    1.9959   -1.0236 O.3     1  LIG1       -0.5053
      9 H           1.1341    2.7861   -1.1571 H       1  LIG1        0.2922
     10 H          -1.2319    1.8452   -0.7065 H       1  LIG1        0.0676
     11 C          -2.2896   -0.7669    0.1501 C.ar    1  LIG1        0.1054
     12 C          -3.4566   -0.1210    0.4849 C.ar    1  LIG1        0.1441
     13 C          -4.4804   -1.0893    0.6661 C.ar    1  LIG1        0.0074
     14 C          -3.9185   -2.3237    0.4244 C.ar    1  LIG1        0.0705
     15 N          -2.5788   -2.1295    0.1469 N.ar    1  LIG1       -0.3488
     16 H          -2.0641   -2.7868   -0.4210 H       1  LIG1        0.1661
     17 O          -3.5494    1.2295    0.6283 O.3     1  LIG1       -0.5046
     18 H          -4.4153    1.4473    0.9890 H       1  LIG1        0.2922
     19 H          -5.4943   -0.9049    0.9939 H       1  LIG1        0.0676
     20 C          -4.4711   -3.6557    0.4303 C.ar    1  LIG1        0.1055
     21 C          -3.8584   -4.8572    0.7195 C.ar    1  LIG1        0.1441
     22 C          -4.8154   -5.8933    0.6046 C.ar    1  LIG1        0.0074
     23 C          -6.0101   -5.2985    0.2405 C.ar    1  LIG1        0.0705
     24 N          -5.8004   -3.9435    0.1658 N.ar    1  LIG1       -0.3488
     25 H          -6.4155   -3.3107   -0.3200 H       1  LIG1        0.1661
     26 O          -2.5591   -5.0404    1.0939 O.3     1  LIG1       -0.5046
     27 H          -2.2414   -4.2121    1.4783 H       1  LIG1        0.2922
     28 H          -4.6654   -6.9334    0.8534 H       1  LIG1        0.0676
     29 C          -7.2843   -5.9029   -0.0751 C.ar    1  LIG1        0.1050
     30 C          -7.5453   -7.0683   -0.7662 C.ar    1  LIG1        0.1434
     31 C          -8.9496   -7.2228   -0.8697 C.ar    1  LIG1       -0.0021
     32 C          -9.5131   -6.1435   -0.2359 C.ar    1  LIG1        0.0058
     33 N          -8.5133   -5.3317    0.2191 N.ar    1  LIG1       -0.3566
     34 H          -8.6377   -4.5793    0.8756 H       1  LIG1        0.1655
     35 H         -10.5505   -5.8936   -0.0752 H       1  LIG1        0.0808
     36 O          -6.6379   -7.9239   -1.3029 O.3     1  LIG1       -0.5046
     37 H          -5.7615   -7.5225   -1.2206 H       1  LIG1        0.2922
     38 H          -9.4678   -8.0286   -1.3661 H       1  LIG1        0.0669
@<TRIPOS>BOND
     1    38    31    1
     2    36    37    1
     3    36    30    1
     4     9     8    1
     5     8     2    1
     6    31    30   ar
     7    31    32   ar
     8    30    29   ar
     9    10     3    1
    10     2     3   ar
    11     2     1   ar
    12     3     4   ar
    13    16    15    1
    14     1     7    1
    15     1     5   ar
    16    25    24    1
    17    32    35    1
    18    32    33   ar
    19     4     5   ar
    20     4    11    1
    21    29    33   ar
    22    29    23    1
    23     5     6    1
    24    15    11   ar
    25    15    14   ar
    26    11    12   ar
    27    24    23   ar
    28    24    20   ar
    29    33    34    1
    30    23    22   ar
    31    14    20    1
    32    14    13   ar
    33    20    21   ar
    34    12    17    1
    35    12    13   ar
    36    22    21   ar
    37    22    28    1
    38    17    18    1
    39    13    19    1
    40    21    26    1
    41    26    27    1
