@<TRIPOS>MOLECULE
mol_data/opt/cam/geoms/mol2/13fa13fa4lf13hi-.out
 48 51 0 0 0
SMALL
GASTEIGER

@<TRIPOS>ATOM
      1 C           1.4231   -0.0305   -0.4695 C.ar    1  LIG1        0.0442
      2 C           0.9404    1.2375   -0.6597 C.ar    1  LIG1        0.1347
      3 C          -0.4588    1.2261   -0.4221 C.ar    1  LIG1        0.0067
      4 C          -0.8001   -0.0674   -0.0850 C.ar    1  LIG1        0.0701
      5 N           0.3417   -0.8277   -0.1421 N.ar    1  LIG1       -0.3564
      6 H           0.4224   -1.7407    0.2727 H       1  LIG1        0.1655
      7 H           2.4233   -0.4211   -0.5566 H       1  LIG1        0.0844
      8 O           1.7111    2.2970   -1.0387 O.3     1  LIG1       -0.5053
      9 H           1.1568    3.0841   -1.0553 H       1  LIG1        0.2922
     10 H          -1.1497    2.0525   -0.5030 H       1  LIG1        0.0676
     11 C          -2.0788   -0.6414    0.2613 C.ar    1  LIG1        0.1054
     12 C          -3.2103   -0.0692    0.8005 C.ar    1  LIG1        0.1440
     13 C          -4.1989   -1.0711    0.9450 C.ar    1  LIG1        0.0060
     14 C          -3.6550   -2.2565    0.4902 C.ar    1  LIG1        0.0541
     15 N          -2.3591   -1.9900    0.1049 N.ar    1  LIG1       -0.3500
     16 H          -1.8536   -2.5729   -0.5431 H       1  LIG1        0.1661
     17 O          -3.2984    1.2499    1.1301 O.3     1  LIG1       -0.5046
     18 H          -4.1289    1.3950    1.5958 H       1  LIG1        0.2922
     19 H          -5.1862   -0.9641    1.3674 H       1  LIG1        0.0675
     20 C          -5.5768   -3.8656    0.3432 C.ar    1  LIG1        0.1300
     21 C          -6.0576   -5.1619    0.2537 C.ar    1  LIG1       -0.0066
     22 C          -4.2018   -3.6073    0.4127 C.ar    1  LIG1        0.0435
     23 C          -5.2158   -6.2816    0.2188 C.ar    1  LIG1        0.0450
     24 H          -7.1317   -5.3031    0.2515 H       1  LIG1        0.0662
     25 C          -3.3544   -4.7228    0.4129 C.ar    1  LIG1       -0.0069
     26 C          -3.8364   -6.0164    0.3158 C.ar    1  LIG1        0.1268
     27 H          -2.2833   -4.5748    0.5295 H       1  LIG1        0.0662
     28 O          -6.4876   -2.8320    0.3978 O.3     1  LIG1       -0.4944
     29 C          -6.8520   -2.3196   -0.8741 C.3     1  LIG1        0.0788
     30 H          -7.5973   -1.5419   -0.7009 H       1  LIG1        0.0660
     31 H          -5.9891   -1.8839   -1.3898 H       1  LIG1        0.0660
     32 H          -7.2901   -3.1034   -1.5036 H       1  LIG1        0.0660
     33 O          -2.9697   -7.0846    0.3319 O.3     1  LIG1       -0.5061
     34 H          -2.0687   -6.7603    0.4388 H       1  LIG1        0.2922
     35 C          -5.7690   -7.6257    0.1159 C.ar    1  LIG1        0.0713
     36 C          -7.0344   -8.0547   -0.2702 C.ar    1  LIG1        0.0532
     37 C          -7.0822   -9.4692   -0.1430 C.ar    1  LIG1       -0.0119
     38 C          -5.8424   -9.8625    0.3078 C.ar    1  LIG1        0.0069
     39 N          -5.0616   -8.7639    0.4569 N.ar    1  LIG1       -0.3588
     40 H          -4.0862   -8.7409    0.7028 H       1  LIG1        0.1654
     41 H          -5.4683  -10.8532    0.5199 H       1  LIG1        0.0810
     42 N          -8.1117   -7.2501   -0.6899 N.pl3   1  LIG1       -0.3561
     43 H          -7.8352   -6.5522   -1.3709 H       1  LIG1        0.1424
     44 H          -8.8609   -7.8085   -1.0795 H       1  LIG1        0.1424
     45 C          -8.2577  -10.3434   -0.4461 C.3     1  LIG1       -0.0365
     46 H          -7.9996  -11.3983   -0.3277 H       1  LIG1        0.0279
     47 H          -8.6116  -10.2129   -1.4762 H       1  LIG1        0.0279
     48 H          -9.1065  -10.1391    0.2162 H       1  LIG1        0.0279
@<TRIPOS>BOND
     1    32    29    1
     2    47    45    1
     3    31    29    1
     4    43    42    1
     5    44    42    1
     6     9     8    1
     7     8     2    1
     8    29    30    1
     9    29    28    1
    10    42    36    1
    11     2     1   ar
    12     2     3   ar
    13     7     1    1
    14    16    15    1
    15    10     3    1
    16     1     5   ar
    17    45    46    1
    18    45    37    1
    19    45    48    1
    20     3     4   ar
    21    36    37   ar
    22    36    35   ar
    23    37    38   ar
    24     5     4   ar
    25     5     6    1
    26     4    11    1
    27    15    11   ar
    28    15    14   ar
    29    35    23    1
    30    35    39   ar
    31    23    21   ar
    32    23    26   ar
    33    24    21    1
    34    21    20   ar
    35    11    12   ar
    36    38    39   ar
    37    38    41    1
    38    26    33    1
    39    26    25   ar
    40    33    34    1
    41    20    28    1
    42    20    22   ar
    43    22    25   ar
    44    22    14    1
    45    25    27    1
    46    39    40    1
    47    14    13   ar
    48    12    13   ar
    49    12    17    1
    50    13    19    1
    51    17    18    1
