@<TRIPOS>MOLECULE
mol_data/opt/cam/geoms/mol2/13fa12ih-12id-13ih-.out
 47 50 0 0 0
SMALL
GASTEIGER

@<TRIPOS>ATOM
      1 C           0.9008    0.1587    1.4961 C.ar    1  LIG1        0.0442
      2 C           0.6236    1.3573    0.8830 C.ar    1  LIG1        0.1348
      3 C          -0.6320    1.2466    0.2393 C.ar    1  LIG1        0.0082
      4 C          -1.0961   -0.0358    0.4854 C.ar    1  LIG1        0.0860
      5 N          -0.1579   -0.6764    1.2426 N.ar    1  LIG1       -0.3552
      6 H          -0.2536   -1.6286    1.5549 H       1  LIG1        0.1655
      7 H           1.7545   -0.1476    2.0775 H       1  LIG1        0.0844
      8 O           1.4587    2.4342    0.9140 O.3     1  LIG1       -0.5053
      9 H           1.0429    3.1605    0.4381 H       1  LIG1        0.2922
     10 H          -1.1226    2.0008   -0.3581 H       1  LIG1        0.0676
     11 C          -2.3046   -0.7180    0.0923 C.ar    1  LIG1        0.1567
     12 C          -3.4910   -0.3026   -0.4437 C.ar    1  LIG1        0.0182
     13 C          -4.2764   -1.4906   -0.6053 C.ar    1  LIG1        0.0777
     14 C          -3.5321   -2.5340   -0.1295 C.ar    1  LIG1        0.1917
     15 O          -2.3122   -2.0594    0.2997 O.2     1  LIG1       -0.4481
     16 C          -3.9230    1.0873   -0.7811 C.3     1  LIG1       -0.0343
     17 H          -5.0055    1.1905   -0.6635 H       1  LIG1        0.0279
     18 H          -3.6719    1.3682   -1.8104 H       1  LIG1        0.0279
     19 H          -3.4505    1.8147   -0.1169 H       1  LIG1        0.0279
     20 N          -5.5768   -1.5241   -1.1027 N.pl3   1  LIG1       -0.3547
     21 H          -5.7413   -0.8500   -1.8385 H       1  LIG1        0.1424
     22 H          -5.8698   -2.4477   -1.3944 H       1  LIG1        0.1424
     23 C          -3.7939   -3.9438   -0.0113 C.ar    1  LIG1        0.1767
     24 C          -4.8863   -4.6594    0.3710 C.ar    1  LIG1        0.0165
     25 C          -4.5258   -6.0440    0.1909 C.ar    1  LIG1        0.1025
     26 C          -3.2212   -6.0736   -0.2426 C.ar    1  LIG1        0.1697
     27 O          -2.7788   -4.8016   -0.3814 O.2     1  LIG1       -0.4486
     28 C          -6.1852   -4.1601    0.9135 C.3     1  LIG1       -0.0348
     29 H          -6.3577   -4.5550    1.9190 H       1  LIG1        0.0279
     30 H          -7.0275   -4.4880    0.2963 H       1  LIG1        0.0279
     31 H          -6.2008   -3.0709    0.9650 H       1  LIG1        0.0279
     32 N          -6.1681   -8.0070    0.4843 N.1     1  LIG1       -0.1907
     33 C          -5.4101   -7.1401    0.3581 C.1     1  LIG1        0.1033
     34 C          -2.2817   -7.1043   -0.5920 C.ar    1  LIG1        0.0882
     35 C          -2.1538   -8.4308   -0.2028 C.ar    1  LIG1       -0.0015
     36 C          -1.0176   -8.9415   -0.8873 C.ar    1  LIG1        0.0457
     37 C          -0.4852   -7.9234   -1.6483 C.ar    1  LIG1        0.0233
     38 N          -1.2517   -6.8095   -1.4511 N.ar    1  LIG1       -0.3564
     39 H          -1.1049   -5.9027   -1.8611 H       1  LIG1        0.1655
     40 H           0.3775   -7.9096   -2.2967 H       1  LIG1        0.0826
     41 C          -2.9533   -9.1975    0.8008 C.3     1  LIG1       -0.0359
     42 H          -2.3166   -9.9525    1.2703 H       1  LIG1        0.0279
     43 H          -3.8164   -9.7067    0.3605 H       1  LIG1        0.0279
     44 H          -3.3407   -8.5468    1.5874 H       1  LIG1        0.0279
     45 N          -0.5121  -10.2416   -0.7105 N.pl3   1  LIG1       -0.3566
     46 H          -1.2197  -10.9546   -0.8381 H       1  LIG1        0.1424
     47 H           0.2732  -10.4411   -1.3160 H       1  LIG1        0.1424
@<TRIPOS>BOND
     1    40    37    1
     2    39    38    1
     3    21    20    1
     4    18    16    1
     5    37    38   ar
     6    37    36   ar
     7    38    34   ar
     8    22    20    1
     9    47    45    1
    10    20    13    1
    11    36    45    1
    12    36    35   ar
    13    46    45    1
    14    16    17    1
    15    16    12    1
    16    16    19    1
    17    13    12   ar
    18    13    14   ar
    19    34    26    1
    20    34    35   ar
    21    12    11   ar
    22    27    26   ar
    23    27    23   ar
    24    10     3    1
    25    26    25   ar
    26    35    41    1
    27    14    23    1
    28    14    15   ar
    29    23    24   ar
    30    11    15   ar
    31    11     4    1
    32    25    33    1
    33    25    24   ar
    34     3     4   ar
    35     3     2   ar
    36    30    28    1
    37    33    32    3
    38    43    41    1
    39    24    28    1
    40     9     8    1
    41     4     5   ar
    42    41    42    1
    43    41    44    1
    44     2     8    1
    45     2     1   ar
    46    28    31    1
    47    28    29    1
    48     5     1   ar
    49     5     6    1
    50     1     7    1
