@<TRIPOS>MOLECULE
mol_data/opt/cam/geoms/mol2/13fa13fa13fa-13fa.out
 38 41 0 0 0
SMALL
GASTEIGER

@<TRIPOS>ATOM
      1 C           1.2373   -0.1161    0.3887 C.ar    1  LIG1        0.0442
      2 C           0.8555    1.1099   -0.0886 C.ar    1  LIG1        0.1347
      3 C          -0.5468    1.0918   -0.3053 C.ar    1  LIG1        0.0067
      4 C          -0.9947   -0.1635    0.0539 C.ar    1  LIG1        0.0701
      5 N           0.0960   -0.8945    0.4516 N.ar    1  LIG1       -0.3564
      6 H           0.0357   -1.7673    0.9482 H       1  LIG1        0.1655
      7 H           2.2083   -0.4916    0.6652 H       1  LIG1        0.0844
      8 O           1.7195    2.1410   -0.3231 O.3     1  LIG1       -0.5053
      9 H           1.2062    2.9008   -0.6164 H       1  LIG1        0.2922
     10 H          -1.1664    1.8870   -0.6934 H       1  LIG1        0.0676
     11 C          -2.3266   -0.7212    0.0466 C.ar    1  LIG1        0.1054
     12 C          -3.5605   -0.1071    0.1173 C.ar    1  LIG1        0.1441
     13 C          -4.5649   -1.1032    0.1191 C.ar    1  LIG1        0.0074
     14 C          -3.9180   -2.3254    0.0445 C.ar    1  LIG1        0.0705
     15 N          -2.5734   -2.0812    0.0123 N.ar    1  LIG1       -0.3488
     16 H          -1.9018   -2.8080   -0.1853 H       1  LIG1        0.1661
     17 O          -3.7196    1.2471    0.1780 O.3     1  LIG1       -0.5046
     18 H          -4.6447    1.4387    0.3637 H       1  LIG1        0.2922
     19 H          -5.6331   -0.9410    0.1664 H       1  LIG1        0.0676
     20 C          -4.4149   -3.6759   -0.0258 C.ar    1  LIG1        0.1055
     21 C          -3.7250   -4.8618   -0.1807 C.ar    1  LIG1        0.1441
     22 C          -4.6479   -5.9302   -0.2138 C.ar    1  LIG1        0.0074
     23 C          -5.9067   -5.3670   -0.0773 C.ar    1  LIG1        0.0705
     24 N          -5.7472   -4.0147    0.0403 N.ar    1  LIG1       -0.3488
     25 H          -6.5226   -3.3800    0.1573 H       1  LIG1        0.1661
     26 O          -2.3531   -4.9169   -0.2552 O.3     1  LIG1       -0.5046
     27 H          -2.0974   -5.7046   -0.7470 H       1  LIG1        0.2922
     28 H          -4.4142   -6.9808   -0.3156 H       1  LIG1        0.0676
     29 C          -7.2240   -5.9529   -0.0364 C.ar    1  LIG1        0.1050
     30 C          -8.4558   -5.3462    0.0996 C.ar    1  LIG1        0.1434
     31 C          -9.4606   -6.3421    0.0863 C.ar    1  LIG1       -0.0021
     32 C          -8.8129   -7.5465   -0.0586 C.ar    1  LIG1        0.0058
     33 N          -7.4731   -7.3054   -0.1329 N.ar    1  LIG1       -0.3566
     34 H          -6.7611   -8.0080   -0.2345 H       1  LIG1        0.1655
     35 H          -9.2072   -8.5488   -0.1142 H       1  LIG1        0.0808
     36 O          -8.5941   -3.9869    0.2183 O.3     1  LIG1       -0.5046
     37 H          -9.5228   -3.7718    0.3512 H       1  LIG1        0.2922
     38 H         -10.5278   -6.1948    0.1709 H       1  LIG1        0.0669
@<TRIPOS>BOND
     1    27    26    1
     2    10     3    1
     3     9     8    1
     4     8     2    1
     5    28    22    1
     6     3     2   ar
     7     3     4   ar
     8    26    21    1
     9    34    33    1
    10    22    21   ar
    11    22    23   ar
    12    16    15    1
    13    21    20   ar
    14    33    32   ar
    15    33    29   ar
    16    35    32    1
    17     2     1   ar
    18    23    29    1
    19    23    24   ar
    20    32    31   ar
    21    29    30   ar
    22    20    24   ar
    23    20    14    1
    24    15    14   ar
    25    15    11   ar
    26    24    25    1
    27    14    13   ar
    28    11     4    1
    29    11    12   ar
    30     4     5   ar
    31    31    30   ar
    32    31    38    1
    33    30    36    1
    34    12    13   ar
    35    12    17    1
    36    13    19    1
    37    17    18    1
    38    36    37    1
    39     1     5   ar
    40     1     7    1
    41     5     6    1
