@<TRIPOS>MOLECULE
mol_data/opt/cam/geoms/mol2/13fa13fa.out
 20 21 0 0 0
SMALL
GASTEIGER

@<TRIPOS>ATOM
      1 C           1.2060   -0.2737   -0.0006 C.ar    1  LIG1        0.0442
      2 C           0.7393    1.0144    0.0001 C.ar    1  LIG1        0.1347
      3 C          -0.6768    0.9784    0.0006 C.ar    1  LIG1        0.0067
      4 C          -1.0516   -0.3525    0.0002 C.ar    1  LIG1        0.0700
      5 N           0.0977   -1.0991   -0.0004 N.ar    1  LIG1       -0.3564
      6 H           0.1522   -2.1018   -0.0015 H       1  LIG1        0.1655
      7 H           2.2115   -0.6597   -0.0011 H       1  LIG1        0.0844
      8 O           1.5444    2.1168    0.0002 O.3     1  LIG1       -0.5053
      9 H           0.9831    2.8990    0.0007 H       1  LIG1        0.2922
     10 H          -1.3618    1.8126    0.0012 H       1  LIG1        0.0676
     11 C          -2.3798   -0.9246    0.0004 C.ar    1  LIG1        0.1050
     12 C          -3.6075   -0.2930    0.0002 C.ar    1  LIG1        0.1434
     13 C          -4.6271   -1.2758    0.0006 C.ar    1  LIG1       -0.0021
     14 C          -3.9995   -2.4971    0.0011 C.ar    1  LIG1        0.0058
     15 N          -2.6523   -2.2813    0.0011 N.ar    1  LIG1       -0.3566
     16 H          -1.9653   -3.0142    0.0014 H       1  LIG1        0.1655
     17 H          -4.4075   -3.4956    0.0016 H       1  LIG1        0.0808
     18 O          -3.7477    1.0654   -0.0004 O.3     1  LIG1       -0.5046
     19 H          -4.6868    1.2780   -0.0009 H       1  LIG1        0.2922
     20 H          -5.6944   -1.1046    0.0005 H       1  LIG1        0.0669
@<TRIPOS>BOND
     1     6     5    1
     2     7     1    1
     3    19    18    1
     4     1     5   ar
     5     1     2   ar
     6     5     4   ar
     7    18    12    1
     8     2     8    1
     9     2     3   ar
    10    12    11   ar
    11    12    13   ar
    12     4    11    1
    13     4     3   ar
    14     8     9    1
    15    11    15   ar
    16    20    13    1
    17     3    10    1
    18    13    14   ar
    19    15    14   ar
    20    15    16    1
    21    14    17    1
