@<TRIPOS>MOLECULE
mol_data/opt/cam/geoms/mol2/13fa12fa6hi-12ae-13hi-4fh12hl-4fe-.out
 94 101 0 0 0
SMALL
GASTEIGER

@<TRIPOS>ATOM
      1 C           2.1385   -0.9364    1.4502 C.ar    1  LIG1        0.0442
      2 C           1.9583    0.3511    1.0026 C.ar    1  LIG1        0.1348
      3 C           0.6477    0.4650    0.4778 C.ar    1  LIG1        0.0083
      4 C           0.0538   -0.7755    0.6241 C.ar    1  LIG1        0.0893
      5 N           0.9625   -1.6127    1.2058 N.ar    1  LIG1       -0.3551
      6 H           0.7632   -2.5625    1.4730 H       1  LIG1        0.1655
      7 H           2.9802   -1.3989    1.9388 H       1  LIG1        0.0844
      8 O           2.9166    1.3182    1.0725 O.3     1  LIG1       -0.5053
      9 H           2.5504    2.1361    0.7204 H       1  LIG1        0.2922
     10 H           0.1829    1.3346    0.0368 H       1  LIG1        0.0676
     11 C          -1.2609   -1.2371    0.2705 C.ar    1  LIG1        0.1930
     12 C          -2.4103   -0.6300   -0.1428 C.ar    1  LIG1        0.1647
     13 C          -3.3882   -1.6496   -0.3257 C.ar    1  LIG1        0.0266
     14 C          -2.7837   -2.8326   -0.0041 C.ar    1  LIG1        0.1427
     15 O          -1.4905   -2.5869    0.3539 O.2     1  LIG1       -0.4495
     16 O          -2.5306    0.7074   -0.3429 O.3     1  LIG1       -0.5032
     17 H          -3.4462    0.9149   -0.5575 H       1  LIG1        0.2923
     18 H          -4.4019   -1.5216   -0.6764 H       1  LIG1        0.0692
     19 C          -2.3972   -5.3371   -0.0581 C.ar    1  LIG1        0.1277
     20 C          -3.2535   -4.2082    0.0111 C.ar    1  LIG1        0.0571
     21 C          -4.6192   -4.4778    0.0569 C.ar    1  LIG1       -0.0427
     22 C          -5.1369   -5.7646    0.0215 C.ar    1  LIG1       -0.0207
     23 C          -4.1939   -6.8051   -0.0667 C.ar    1  LIG1        0.1110
     24 N          -2.8764   -6.5748   -0.1027 N.ar    1  LIG1       -0.2284
     25 H          -5.3098   -3.6432    0.1383 H       1  LIG1        0.0629
     26 N          -1.0299   -5.2399   -0.0617 N.pl3   1  LIG1       -0.3426
     27 H          -0.5545   -6.0853   -0.3360 H       1  LIG1        0.1437
     28 H          -0.6061   -4.3616   -0.3071 H       1  LIG1        0.1437
     29 C          -6.6212   -5.9881    0.0826 C.3     1  LIG1       -0.0376
     30 H          -6.9012   -6.6280    0.9253 H       1  LIG1        0.0278
     31 H          -6.9998   -6.4636   -0.8283 H       1  LIG1        0.0278
     32 H          -7.1450   -5.0371    0.1999 H       1  LIG1        0.0278
     33 C          -4.5556   -8.2191   -0.1318 C.ar    1  LIG1        0.1554
     34 C          -5.6978   -8.9615   -0.1863 C.ar    1  LIG1        0.0018
     35 C          -5.3137  -10.3403   -0.2675 C.ar    1  LIG1        0.0725
     36 C          -3.9291  -10.3502   -0.2531 C.ar    1  LIG1        0.1689
     37 O          -3.4888   -9.0748   -0.1707 O.2     1  LIG1       -0.4505
     38 H          -6.7148   -8.6091   -0.1817 H       1  LIG1        0.0668
     39 C          -6.2107  -11.4335   -0.3730 C.1     1  LIG1       -0.0658
     40 C          -7.0098  -12.3325   -0.4695 C.1     1  LIG1       -0.1138
     41 H          -7.7206  -13.1229   -0.5418 H       1  LIG1        0.1232
     42 C          -2.8614  -11.2993   -0.3173 C.ar    1  LIG1        0.1049
     43 C          -2.7488  -12.6881   -0.3560 C.ar    1  LIG1        0.0568
     44 C          -1.3642  -13.0095   -0.4176 C.ar    1  LIG1       -0.0037
     45 C          -0.6648  -11.8113   -0.4013 C.ar    1  LIG1        0.0553
     46 N          -1.5718  -10.7983   -0.3581 N.ar    1  LIG1       -0.3499
     47 H          -1.3573   -9.8256   -0.2085 H       1  LIG1        0.1661
     48 N          -3.7593  -13.6331   -0.2953 N.pl3   1  LIG1       -0.3560
     49 H          -4.6912  -13.3003   -0.5002 H       1  LIG1        0.1424
     50 H          -3.5430  -14.5028   -0.7601 H       1  LIG1        0.1424
     51 C          -0.8302  -14.4003   -0.5359 C.3     1  LIG1       -0.0359
     52 H           0.2463  -14.3984   -0.7000 H       1  LIG1        0.0279
     53 H          -1.2952  -14.9366   -1.3732 H       1  LIG1        0.0279
     54 H          -1.0210  -14.9828    0.3718 H       1  LIG1        0.0279
     55 C           1.7457  -12.0791    0.3168 C.ar    1  LIG1        0.1267
     56 C           3.0431  -11.5973    0.2945 C.ar    1  LIG1       -0.0070
     57 C           0.7588  -11.4563   -0.4602 C.ar    1  LIG1        0.0418
     58 C           3.4223  -10.4890   -0.4783 C.ar    1  LIG1        0.0433
     59 H           3.7898  -12.0599    0.9344 H       1  LIG1        0.0662
     60 C           1.1425  -10.3600   -1.2326 C.ar    1  LIG1       -0.0277
     61 C           2.4403   -9.8499   -1.2642 C.ar    1  LIG1        0.0362
     62 H           0.3879   -9.8744   -1.8446 H       1  LIG1        0.0644
     63 O           1.3818  -13.1301    1.1123 O.3     1  LIG1       -0.5061
     64 H           2.1325  -13.3778    1.6641 H       1  LIG1        0.2922
     65 N           2.6941   -8.7139   -2.0303 N.pl3   1  LIG1       -0.3574
     66 H           3.6643   -8.4884   -2.1821 H       1  LIG1        0.1423
     67 H           2.1246   -8.6308   -2.8587 H       1  LIG1        0.1423
     68 C           4.8135  -10.0622   -0.4306 C.ar    1  LIG1        0.1618
     69 C           5.9722  -10.7036   -0.0907 C.ar    1  LIG1        0.1140
     70 C           7.0181   -9.7323   -0.1795 C.ar    1  LIG1        0.1871
     71 C           6.4572   -8.5524   -0.5882 C.ar    1  LIG1        0.1825
     72 O           5.1137   -8.7558   -0.7337 O.2     1  LIG1       -0.4489
     73 N           6.1849  -12.0215    0.3200 N.pl3   1  LIG1       -0.3522
     74 H           5.6749  -12.6995   -0.2329 H       1  LIG1        0.1425
     75 H           7.1760  -12.2328    0.3182 H       1  LIG1        0.1425
     76 O           8.2982  -10.0749    0.1207 O.3     1  LIG1       -0.4896
     77 C           8.9027   -9.3335    1.1720 C.3     1  LIG1        0.0791
     78 H           9.8584   -9.8164    1.3798 H       1  LIG1        0.0660
     79 H           9.0831   -8.2979    0.8745 H       1  LIG1        0.0660
     80 H           8.2799   -9.3535    2.0727 H       1  LIG1        0.0660
     81 C           8.1699   -6.8833   -1.3630 C.ar    1  LIG1        0.1277
     82 C           8.5307   -5.5630   -1.6182 C.ar    1  LIG1       -0.0183
     83 C           6.8975   -7.1846   -0.8522 C.ar    1  LIG1        0.0635
     84 C           7.6353   -4.5307   -1.3982 C.ar    1  LIG1       -0.0428
     85 H           9.5221   -5.3486   -2.0092 H       1  LIG1        0.0655
     86 C           6.0054   -6.1300   -0.6457 C.ar    1  LIG1       -0.0320
     87 C           6.3523   -4.8044   -0.9126 C.ar    1  LIG1        0.0256
     88 H           5.0146   -6.3551   -0.2704 H       1  LIG1        0.0638
     89 H           7.9227   -3.5062   -1.6043 H       1  LIG1        0.0631
     90 O           9.0176   -7.9169   -1.6032 O.3     1  LIG1       -0.5061
     91 H           9.8336   -7.5799   -1.9916 H       1  LIG1        0.2922
     92 C           5.4161   -3.7445   -0.6852 C.1     1  LIG1       -0.0696
     93 C           4.6347   -2.8471   -0.4976 C.1     1  LIG1       -0.1139
     94 H           3.9426   -2.0534   -0.3161 H       1  LIG1        0.1232
@<TRIPOS>BOND
     1    67    65    1
     2    66    65    1
     3    65    61    1
     4    85    82    1
     5    91    90    1
     6    62    60    1
     7    82    84   ar
     8    82    81   ar
     9    89    84    1
    10    90    81    1
    11    84    87   ar
    12    53    51    1
    13    81    83   ar
    14    61    60   ar
    15    61    58   ar
    16    60    57   ar
    17    87    92    1
    18    87    86   ar
    19    83    86   ar
    20    83    71    1
    21    31    29    1
    22    50    48    1
    23    72    71   ar
    24    72    68   ar
    25    52    51    1
    26    92    93    3
    27    18    13    1
    28    86    88    1
    29    71    70   ar
    30    17    16    1
    31    41    40    1
    32    51    44    1
    33    51    54    1
    34    49    48    1
    35    93    94    1
    36    58    68    1
    37    58    56   ar
    38    40    39    3
    39    57    45    1
    40    57    55   ar
    41    68    69   ar
    42    44    45   ar
    43    44    43   ar
    44    45    46   ar
    45    39    35    1
    46    46    42   ar
    47    46    47    1
    48    43    42   ar
    49    43    48    1
    50    16    12    1
    51    27    26    1
    52    13    12   ar
    53    13    14   ar
    54    42    36    1
    55    28    26    1
    56    35    36   ar
    57    35    34   ar
    58    36    37   ar
    59    74    73    1
    60    34    38    1
    61    34    33   ar
    62    70    69   ar
    63    70    76    1
    64    37    33   ar
    65    12    11   ar
    66    33    23    1
    67    24    23   ar
    68    24    19   ar
    69    69    73    1
    70    23    22   ar
    71    26    19    1
    72    19    20   ar
    73    14    20    1
    74    14    15   ar
    75    20    21   ar
    76    22    21   ar
    77    22    29    1
    78    10     3    1
    79    21    25    1
    80    29    32    1
    81    29    30    1
    82    76    77    1
    83    11    15   ar
    84    11     4    1
    85    56    55   ar
    86    56    59    1
    87    55    63    1
    88    75    73    1
    89     3     4   ar
    90     3     2   ar
    91     4     5   ar
    92     9     8    1
    93    79    77    1
    94     2     8    1
    95     2     1   ar
    96    63    64    1
    97    77    78    1
    98    77    80    1
    99     5     1   ar
   100     5     6    1
   101     1     7    1
