@<TRIPOS>MOLECULE
mol_data/opt/cam/geoms/mol2/13fa13id6fl12dh.out
 47 50 0 0 0
SMALL
GASTEIGER

@<TRIPOS>ATOM
      1 C           1.2959   -0.0196    0.3788 C.ar    1  LIG1        0.0442
      2 C           0.9661    1.0886   -0.3588 C.ar    1  LIG1        0.1347
      3 C          -0.4290    1.0534   -0.6129 C.ar    1  LIG1        0.0066
      4 C          -0.9220   -0.0889   -0.0135 C.ar    1  LIG1        0.0667
      5 N           0.1364   -0.7396    0.5668 N.ar    1  LIG1       -0.3564
      6 H           0.0426   -1.5072    1.2111 H       1  LIG1        0.1655
      7 H           2.2470   -0.3440    0.7670 H       1  LIG1        0.0844
      8 O           1.8684    2.0226   -0.7690 O.3     1  LIG1       -0.5053
      9 H           1.4020    2.7125   -1.2522 H       1  LIG1        0.2922
     10 H          -1.0011    1.7507   -1.2082 H       1  LIG1        0.0676
     11 C          -2.2673   -0.6286    0.0434 C.ar    1  LIG1        0.0676
     12 C          -3.4896   -0.0023    0.1719 C.ar    1  LIG1       -0.0058
     13 C          -4.4675   -1.0388    0.2022 C.ar    1  LIG1        0.0807
     14 C          -3.8184   -2.2722    0.0945 C.ar    1  LIG1        0.0700
     15 N          -2.4893   -1.9843    0.0039 N.ar    1  LIG1       -0.3516
     16 H          -1.7954   -2.6984   -0.1683 H       1  LIG1        0.1660
     17 C          -3.7560    1.4629    0.2858 C.3     1  LIG1       -0.0364
     18 H          -4.5800    1.6587    0.9765 H       1  LIG1        0.0279
     19 H          -4.0343    1.9000   -0.6790 H       1  LIG1        0.0279
     20 H          -2.8693    1.9890    0.6456 H       1  LIG1        0.0279
     21 N          -6.9980   -0.6211    0.4618 N.1     1  LIG1       -0.1908
     22 C          -5.8607   -0.8126    0.3436 C.1     1  LIG1        0.1016
     23 C          -3.5033   -4.7693   -0.0688 C.ar    1  LIG1        0.2226
     24 C          -4.3316   -3.6374    0.0625 C.ar    1  LIG1        0.0644
     25 C          -5.6971   -3.9119    0.1606 C.ar    1  LIG1       -0.0035
     26 C          -6.1686   -5.2178    0.1215 C.ar    1  LIG1        0.1499
     27 C          -5.2473   -6.2630   -0.0370 C.ar    1  LIG1        0.1525
     28 N          -3.9369   -6.0041   -0.1187 N.ar    1  LIG1       -0.2056
     29 H          -6.3986   -3.0992    0.2788 H       1  LIG1        0.0663
     30 O          -2.1506   -4.6108   -0.1615 O.3     1  LIG1       -0.4919
     31 H          -1.7902   -5.5042   -0.2655 H       1  LIG1        0.2937
     32 O          -7.4641   -5.5616    0.2434 O.3     1  LIG1       -0.4928
     33 C          -8.4610   -4.5524    0.2083 C.3     1  LIG1        0.0789
     34 H          -9.4103   -5.0844    0.1779 H       1  LIG1        0.0660
     35 H          -8.4141   -3.9169    1.0985 H       1  LIG1        0.0660
     36 H          -8.3623   -3.9305   -0.6869 H       1  LIG1        0.0660
     37 C          -5.6389   -7.6690   -0.1001 C.ar    1  LIG1        0.1758
     38 C          -6.8028   -8.3605   -0.3715 C.ar    1  LIG1        0.1196
     39 C          -6.4800   -9.7628   -0.3008 C.ar    1  LIG1        0.0811
     40 C          -5.1577   -9.8141    0.0058 C.ar    1  LIG1        0.1145
     41 O          -4.6524   -8.5519    0.1233 O.2     1  LIG1       -0.4580
     42 H          -4.4675  -10.6227    0.1777 H       1  LIG1        0.1049
     43 N          -9.1862   -7.7360   -1.1069 N.1     1  LIG1       -0.1907
     44 C          -8.0992   -7.9287   -0.7553 C.1     1  LIG1        0.1049
     45 N          -7.3948  -10.7885   -0.4622 N.pl3   1  LIG1       -0.3545
     46 H          -8.2325  -10.5213   -0.9609 H       1  LIG1        0.1424
     47 H          -7.0122  -11.6600   -0.7967 H       1  LIG1        0.1424
@<TRIPOS>BOND
     1     9     8    1
     2    10     3    1
     3    43    44    3
     4    46    45    1
     5    47    45    1
     6     8     2    1
     7    44    38    1
     8    36    33    1
     9    19    17    1
    10     3     2   ar
    11     3     4   ar
    12    45    39    1
    13    38    39   ar
    14    38    37   ar
    15     2     1   ar
    16    39    40   ar
    17    31    30    1
    18    16    15    1
    19    30    23    1
    20    28    23   ar
    21    28    27   ar
    22    37    27    1
    23    37    41   ar
    24    23    24   ar
    25    27    26   ar
    26     4    11    1
    27     4     5   ar
    28    15    11   ar
    29    15    14   ar
    30    40    41   ar
    31    40    42    1
    32    11    12   ar
    33    24    14    1
    34    24    25   ar
    35    14    13   ar
    36    26    25   ar
    37    26    32    1
    38    25    29    1
    39    12    13   ar
    40    12    17    1
    41    34    33    1
    42    13    22    1
    43    33    32    1
    44    33    35    1
    45    17    20    1
    46    17    18    1
    47    22    21    3
    48     1     5   ar
    49     1     7    1
    50     5     6    1
