@<TRIPOS>MOLECULE
mol_data/opt/cam/geoms/mol2/13fa13fa-.out
 20 21 0 0 0
SMALL
GASTEIGER

@<TRIPOS>ATOM
      1 C           1.2152   -0.1925    0.0473 C.ar    1  LIG1        0.0442
      2 C           0.7977    1.1147    0.0431 C.ar    1  LIG1        0.1347
      3 C          -0.6199    1.1293    0.0201 C.ar    1  LIG1        0.0067
      4 C          -1.0337   -0.1927    0.0108 C.ar    1  LIG1        0.0700
      5 N           0.0836   -0.9749    0.0276 N.ar    1  LIG1       -0.3564
      6 H           0.0446   -1.9823    0.0244 H       1  LIG1        0.1655
      7 H           2.2081   -0.6099    0.0630 H       1  LIG1        0.0844
      8 O           1.6449    2.1858    0.0595 O.3     1  LIG1       -0.5053
      9 H           1.1175    2.9909    0.0488 H       1  LIG1        0.2922
     10 H          -1.2537    2.0061    0.0116 H       1  LIG1        0.0676
     11 C          -2.3486   -0.7912   -0.0123 C.ar    1  LIG1        0.1050
     12 C          -2.7155   -2.1205   -0.0219 C.ar    1  LIG1        0.1434
     13 C          -4.1281   -2.2058   -0.0456 C.ar    1  LIG1       -0.0021
     14 C          -4.5962   -0.9127   -0.0503 C.ar    1  LIG1        0.0058
     15 N          -3.5233   -0.0711   -0.0299 N.ar    1  LIG1       -0.3566
     16 H          -3.5711    0.9331   -0.0280 H       1  LIG1        0.1655
     17 H          -5.6065   -0.5354   -0.0662 H       1  LIG1        0.0808
     18 O          -1.7932   -3.1368   -0.0078 O.3     1  LIG1       -0.5046
     19 H          -2.2529   -3.9820   -0.0323 H       1  LIG1        0.2922
     20 H          -4.7284   -3.1044   -0.0576 H       1  LIG1        0.0669
@<TRIPOS>BOND
     1    17    14    1
     2    20    13    1
     3    14    13   ar
     4    14    15   ar
     5    13    12   ar
     6    19    18    1
     7    15    16    1
     8    15    11   ar
     9    12    11   ar
    10    12    18    1
    11    11     4    1
    12     4     3   ar
    13     4     5   ar
    14    10     3    1
    15     3     2   ar
    16     6     5    1
    17     5     1   ar
    18     2     1   ar
    19     2     8    1
    20     1     7    1
    21     9     8    1
