@<TRIPOS>MOLECULE
mol_data/opt/cam/geoms/mol2/13fa13fa13fa.out
 29 31 0 0 0
SMALL
GASTEIGER

@<TRIPOS>ATOM
      1 C           1.2348   -0.1787    0.0578 C.ar    1  LIG1        0.0442
      2 C           0.7822    1.0690   -0.2808 C.ar    1  LIG1        0.1347
      3 C          -0.6366    1.0399   -0.3145 C.ar    1  LIG1        0.0067
      4 C          -1.0215   -0.2440    0.0131 C.ar    1  LIG1        0.0701
      5 N           0.1188   -0.9821    0.2109 N.ar    1  LIG1       -0.3564
      6 H           0.1268   -1.8764    0.6713 H       1  LIG1        0.1655
      7 H           2.2374   -0.5533    0.1795 H       1  LIG1        0.0844
      8 O           1.5981    2.1276   -0.5556 O.3     1  LIG1       -0.5053
      9 H           1.0458    2.8985   -0.7219 H       1  LIG1        0.2922
     10 H          -1.3085    1.8476   -0.5656 H       1  LIG1        0.0676
     11 C          -2.3346   -0.8304    0.1366 C.ar    1  LIG1        0.1054
     12 C          -3.5561   -0.2633    0.4119 C.ar    1  LIG1        0.1441
     13 C          -4.5398   -1.2866    0.4409 C.ar    1  LIG1        0.0074
     14 C          -3.8975   -2.4722    0.1687 C.ar    1  LIG1        0.0705
     15 N          -2.5509   -2.2038    0.0214 N.ar    1  LIG1       -0.3488
     16 H          -1.9637   -2.7717   -0.5708 H       1  LIG1        0.1661
     17 O          -3.7315    1.0680    0.6400 O.3     1  LIG1       -0.5046
     18 H          -4.6521    1.2197    0.8784 H       1  LIG1        0.2922
     19 H          -5.5933   -1.1826    0.6559 H       1  LIG1        0.0676
     20 C          -4.4189   -3.8118    0.0430 C.ar    1  LIG1        0.1050
     21 C          -5.6843   -4.2604   -0.2725 C.ar    1  LIG1        0.1434
     22 C          -5.6677   -5.6782   -0.2933 C.ar    1  LIG1       -0.0021
     23 C          -4.3868   -6.0652    0.0174 C.ar    1  LIG1        0.0058
     24 N          -3.6351   -4.9420    0.2043 N.ar    1  LIG1       -0.3566
     25 H          -2.7135   -4.9270    0.6075 H       1  LIG1        0.1655
     26 H          -3.9604   -7.0507    0.1216 H       1  LIG1        0.0808
     27 O          -6.7324   -3.4234   -0.5176 O.3     1  LIG1       -0.5046
     28 H          -7.4745   -3.9438   -0.8428 H       1  LIG1        0.2922
     29 H          -6.4968   -6.3340   -0.5187 H       1  LIG1        0.0669
@<TRIPOS>BOND
     1    28    27    1
     2     9     8    1
     3    16    15    1
     4    10     3    1
     5     8     2    1
     6    29    22    1
     7    27    21    1
     8     3     2   ar
     9     3     4   ar
    10    22    21   ar
    11    22    23   ar
    12     2     1   ar
    13    21    20   ar
    14     4    11    1
    15     4     5   ar
    16    23    26    1
    17    23    24   ar
    18    15    11   ar
    19    15    14   ar
    20    20    14    1
    21    20    24   ar
    22     1     7    1
    23     1     5   ar
    24    11    12   ar
    25    14    13   ar
    26    24    25    1
    27     5     6    1
    28    12    13   ar
    29    12    17    1
    30    13    19    1
    31    17    18    1
