@<TRIPOS>MOLECULE
mol_data/opt/cam/geoms/mol2/13fa13fa13fa13fa-.out
 38 41 0 0 0
SMALL
GASTEIGER

@<TRIPOS>ATOM
      1 C           1.2110   -0.0971    0.0317 C.ar    1  LIG1        0.0442
      2 C           0.7589    1.1589    0.3390 C.ar    1  LIG1        0.1347
      3 C          -0.6604    1.1368    0.3516 C.ar    1  LIG1        0.0067
      4 C          -1.0463   -0.1518    0.0429 C.ar    1  LIG1        0.0701
      5 N           0.0935   -0.8981   -0.1236 N.ar    1  LIG1       -0.3564
      6 H           0.1040   -1.8030   -0.5627 H       1  LIG1        0.1655
      7 H           2.2136   -0.4787   -0.0658 H       1  LIG1        0.0844
      8 O           1.5753    2.2199    0.6055 O.3     1  LIG1       -0.5053
      9 H           1.0227    2.9946    0.7517 H       1  LIG1        0.2922
     10 H          -1.3323    1.9523    0.5757 H       1  LIG1        0.0676
     11 C          -2.3593   -0.7350   -0.0919 C.ar    1  LIG1        0.1054
     12 C          -3.5757   -0.1676   -0.3916 C.ar    1  LIG1        0.1441
     13 C          -4.5602   -1.1881   -0.4315 C.ar    1  LIG1        0.0074
     14 C          -3.9235   -2.3751   -0.1421 C.ar    1  LIG1        0.0705
     15 N          -2.5816   -2.1060    0.0286 N.ar    1  LIG1       -0.3488
     16 H          -1.9945   -2.6831    0.6115 H       1  LIG1        0.1661
     17 O          -3.7447    1.1636   -0.6297 O.3     1  LIG1       -0.5046
     18 H          -4.6579    1.3122   -0.8967 H       1  LIG1        0.2922
     19 H          -5.6099   -1.0838   -0.6638 H       1  LIG1        0.0676
     20 C          -4.4468   -3.7112   -0.0157 C.ar    1  LIG1        0.1055
     21 C          -5.7325   -4.1559    0.2225 C.ar    1  LIG1        0.1441
     22 C          -5.7161   -5.5675    0.3043 C.ar    1  LIG1        0.0074
     23 C          -4.4039   -5.9659    0.1079 C.ar    1  LIG1        0.0705
     24 N          -3.6517   -4.8403   -0.0733 N.ar    1  LIG1       -0.3488
     25 H          -2.6871   -4.8779   -0.3676 H       1  LIG1        0.1661
     26 O          -6.7995   -3.3162    0.3500 O.3     1  LIG1       -0.5046
     27 H          -7.5576   -3.8232    0.6586 H       1  LIG1        0.2922
     28 H          -6.5678   -6.2098    0.4827 H       1  LIG1        0.0676
     29 C          -3.7880   -7.2686    0.0480 C.ar    1  LIG1        0.1050
     30 C          -2.4790   -7.6130   -0.2200 C.ar    1  LIG1        0.1434
     31 C          -2.3585   -9.0222   -0.1800 C.ar    1  LIG1       -0.0021
     32 C          -3.6096   -9.5109    0.1139 C.ar    1  LIG1        0.0058
     33 N          -4.4601   -8.4540    0.2529 N.ar    1  LIG1       -0.3566
     34 H          -5.4378   -8.5205    0.4782 H       1  LIG1        0.1655
     35 H          -3.9511  -10.5265    0.2373 H       1  LIG1        0.0808
     36 O          -1.5044   -6.6748   -0.4585 O.3     1  LIG1       -0.5046
     37 H          -0.7459   -7.1059   -0.8662 H       1  LIG1        0.2922
     38 H          -1.4641   -9.6064   -0.3421 H       1  LIG1        0.0669
@<TRIPOS>BOND
     1    18    17    1
     2    37    36    1
     3    19    13    1
     4    17    12    1
     5     6     5    1
     6    36    30    1
     7    13    12   ar
     8    13    14   ar
     9    12    11   ar
    10    25    24    1
    11    38    31    1
    12    30    31   ar
    13    30    29   ar
    14    31    32   ar
    15    14    20    1
    16    14    15   ar
    17     5     1   ar
    18     5     4   ar
    19    11    15   ar
    20    11     4    1
    21    24    20   ar
    22    24    23   ar
    23     7     1    1
    24    20    21   ar
    25    15    16    1
    26     1     2   ar
    27     4     3   ar
    28    29    23    1
    29    29    33   ar
    30    23    22   ar
    31    32    35    1
    32    32    33   ar
    33    21    22   ar
    34    21    26    1
    35    33    34    1
    36    22    28    1
    37     2     3   ar
    38     2     8    1
    39    26    27    1
    40     3    10    1
    41     8     9    1
