@<TRIPOS>MOLECULE
mol_data/opt/cam/geoms/mol2/13fa6af-13di4ff-.out
 45 48 0 0 0
SMALL
GASTEIGER

@<TRIPOS>ATOM
      1 C           1.2990   -0.5042    0.1047 C.ar    1  LIG1        0.0441
      2 C           1.0125    0.6924   -0.5060 C.ar    1  LIG1        0.1347
      3 C          -0.3915    0.7828   -0.6596 C.ar    1  LIG1        0.0052
      4 C          -0.9360   -0.3756   -0.1357 C.ar    1  LIG1        0.0516
      5 N           0.1028   -1.1492    0.3080 N.ar    1  LIG1       -0.3575
      6 H          -0.0046   -1.9947    0.8422 H       1  LIG1        0.1654
      7 H           2.2437   -0.9300    0.3998 H       1  LIG1        0.0844
      8 O           1.9604    1.5917   -0.8899 O.3     1  LIG1       -0.5053
      9 H           1.5218    2.3628   -1.2642 H       1  LIG1        0.2922
     10 H          -0.9420    1.5801   -1.1392 H       1  LIG1        0.0675
     11 C          -2.6791   -2.1635    0.0043 C.ar    1  LIG1        0.0377
     12 C          -2.3248   -0.8080   -0.0450 C.ar    1  LIG1        0.0200
     13 C          -3.3720    0.1018   -0.0147 C.ar    1  LIG1       -0.0074
     14 C          -4.6972   -0.3207    0.0629 C.ar    1  LIG1        0.1448
     15 C          -4.9493   -1.7056    0.1429 C.ar    1  LIG1        0.1296
     16 N          -3.9264   -2.5790    0.1024 N.ar    1  LIG1       -0.2491
     17 H          -3.1904    1.1700   -0.0410 H       1  LIG1        0.0662
     18 H          -1.9200   -2.9391   -0.0653 H       1  LIG1        0.0836
     19 O          -5.6086    0.6683    0.0189 O.3     1  LIG1       -0.5045
     20 H          -6.4975    0.4214    0.3118 H       1  LIG1        0.2922
     21 C          -6.2593   -2.3745    0.2095 C.ar    1  LIG1        0.0868
     22 C          -7.5900   -2.0210    0.4511 C.ar    1  LIG1        0.0821
     23 C          -8.4022   -3.1940    0.3603 C.ar    1  LIG1       -0.0070
     24 C          -7.5450   -4.2323    0.0700 C.ar    1  LIG1        0.0548
     25 N          -6.2757   -3.7125   -0.0051 N.ar    1  LIG1       -0.3515
     26 H          -5.4169   -4.2058   -0.2071 H       1  LIG1        0.1660
     27 N          -8.4769    0.3073    1.1018 N.1     1  LIG1       -0.1908
     28 C          -8.0852   -0.7454    0.8073 C.1     1  LIG1        0.1016
     29 C          -9.8775   -3.2491    0.5865 C.3     1  LIG1       -0.0365
     30 H         -10.1716   -4.2104    1.0125 H       1  LIG1        0.0279
     31 H         -10.4264   -3.1299   -0.3512 H       1  LIG1        0.0279
     32 H         -10.1957   -2.4589    1.2709 H       1  LIG1        0.0279
     33 C          -8.7771   -6.1823   -0.9119 C.ar    1  LIG1        0.1262
     34 C          -8.9400   -7.5593   -1.0411 C.ar    1  LIG1       -0.0161
     35 C          -7.7663   -5.6754   -0.0870 C.ar    1  LIG1        0.0434
     36 C          -8.1050   -8.4436   -0.3780 C.ar    1  LIG1       -0.0167
     37 H          -9.7276   -7.9451   -1.6835 H       1  LIG1        0.0655
     38 C          -6.9283   -6.5805    0.5747 C.ar    1  LIG1       -0.0076
     39 C          -7.0879   -7.9524    0.4343 C.ar    1  LIG1        0.1177
     40 H          -6.1551   -6.1914    1.2327 H       1  LIG1        0.0662
     41 H          -8.2293   -9.5154   -0.4787 H       1  LIG1        0.0655
     42 O          -9.5632   -5.2950   -1.5877 O.3     1  LIG1       -0.5061
     43 H         -10.1932   -5.7807   -2.1322 H       1  LIG1        0.2922
     44 O          -6.2931   -8.8600    1.0701 O.3     1  LIG1       -0.5067
     45 H          -5.6481   -8.3958    1.6157 H       1  LIG1        0.2921
@<TRIPOS>BOND
     1    43    42    1
     2    37    34    1
     3    42    33    1
     4     9     8    1
     5    10     3    1
     6    34    33   ar
     7    34    36   ar
     8    33    35   ar
     9     8     2    1
    10     3     2   ar
    11     3     4   ar
    12     2     1   ar
    13    41    36    1
    14    36    39   ar
    15    31    29    1
    16    26    25    1
    17     4    12    1
    18     4     5   ar
    19    35    24    1
    20    35    38   ar
    21    18    11    1
    22    12    13   ar
    23    12    11   ar
    24    17    13    1
    25    13    14   ar
    26    25    24   ar
    27    25    21   ar
    28    11    16   ar
    29    19    14    1
    30    19    20    1
    31    14    15   ar
    32    24    23   ar
    33    16    15   ar
    34     1     5   ar
    35     1     7    1
    36    15    21    1
    37    21    22   ar
    38     5     6    1
    39    23    22   ar
    40    23    29    1
    41    39    38   ar
    42    39    44    1
    43    22    28    1
    44    38    40    1
    45    29    30    1
    46    29    32    1
    47    28    27    3
    48    44    45    1
