@<TRIPOS>MOLECULE
mol_data/opt/cam/geoms/mol2/13fa13fa-4fa13fa.out
 40 43 0 0 0
SMALL
GASTEIGER

@<TRIPOS>ATOM
      1 C           1.4219   -0.3702    0.0172 C.ar    1  LIG1        0.0442
      2 C           1.0715    0.9556    0.0714 C.ar    1  LIG1        0.1347
      3 C          -0.3429    1.0437    0.0684 C.ar    1  LIG1        0.0067
      4 C          -0.8248   -0.2539    0.0114 C.ar    1  LIG1        0.0701
      5 N           0.2514   -1.0927   -0.0188 N.ar    1  LIG1       -0.3564
      6 H           0.1610   -2.0958   -0.0617 H       1  LIG1        0.1655
      7 H           2.3922   -0.8377    0.0023 H       1  LIG1        0.0844
      8 O           1.9729    1.9814    0.1189 O.3     1  LIG1       -0.5053
      9 H           1.4853    2.8105    0.1541 H       1  LIG1        0.2922
     10 H          -0.9333    1.9494    0.1036 H       1  LIG1        0.0676
     11 C          -2.1682   -0.7796   -0.0175 C.ar    1  LIG1        0.1054
     12 C          -2.6043   -2.0905   -0.0744 C.ar    1  LIG1        0.1440
     13 C          -4.0104   -2.1011   -0.0821 C.ar    1  LIG1        0.0060
     14 C          -4.4270   -0.7757   -0.0296 C.ar    1  LIG1        0.0540
     15 N          -3.2980   -0.0032    0.0090 N.ar    1  LIG1       -0.3500
     16 H          -3.3289    1.0029    0.0508 H       1  LIG1        0.1661
     17 O          -1.7359   -3.1527   -0.1124 O.3     1  LIG1       -0.5046
     18 H          -2.2403   -3.9707   -0.1661 H       1  LIG1        0.2922
     19 H          -4.6443   -2.9750   -0.1202 H       1  LIG1        0.0675
     20 C          -6.0699    1.1461    0.0484 C.ar    1  LIG1        0.1266
     21 C          -7.3709    1.6224    0.0681 C.ar    1  LIG1       -0.0103
     22 C          -5.7802   -0.2280   -0.0147 C.ar    1  LIG1        0.0399
     23 C          -8.4633    0.7524    0.0149 C.ar    1  LIG1        0.0054
     24 H          -7.5463    2.6919    0.1230 H       1  LIG1        0.0661
     25 C          -6.8882   -1.0826   -0.0713 C.ar    1  LIG1       -0.0485
     26 C          -8.1902   -0.6195   -0.0622 C.ar    1  LIG1       -0.0517
     27 H          -6.7163   -2.1510   -0.1351 H       1  LIG1        0.0625
     28 O          -5.0205    2.0303    0.0996 O.3     1  LIG1       -0.5061
     29 H          -5.3677    2.9292    0.1267 H       1  LIG1        0.2922
     30 H          -8.9972   -1.3401   -0.1456 H       1  LIG1        0.0624
     31 C          -9.8253    1.2659    0.0446 C.ar    1  LIG1        0.0886
     32 C         -10.3321    2.5392   -0.1470 C.ar    1  LIG1        0.1420
     33 C         -11.7421    2.4943   -0.0328 C.ar    1  LIG1       -0.0022
     34 C         -12.0724    1.1871    0.2347 C.ar    1  LIG1        0.0057
     35 N         -10.9259    0.4579    0.2710 N.ar    1  LIG1       -0.3577
     36 H         -10.8687   -0.5107    0.5340 H       1  LIG1        0.1654
     37 H         -13.0352    0.7312    0.4060 H       1  LIG1        0.0808
     38 O          -9.5577    3.6333   -0.4113 O.3     1  LIG1       -0.5046
     39 H         -10.1357    4.3809   -0.5968 H       1  LIG1        0.2922
     40 H         -12.4294    3.3219   -0.1368 H       1  LIG1        0.0669
@<TRIPOS>BOND
     1    39    38    1
     2    38    32    1
     3    18    17    1
     4    32    33   ar
     5    32    31   ar
     6    30    26    1
     7    40    33    1
     8    27    25    1
     9    19    13    1
    10    17    12    1
    11    13    12   ar
    12    13    14   ar
    13    12    11   ar
    14    25    26   ar
    15    25    22   ar
    16    26    23   ar
    17     6     5    1
    18    33    34   ar
    19    14    22    1
    20    14    15   ar
    21     5     4   ar
    22     5     1   ar
    23    11    15   ar
    24    11     4    1
    25    22    20   ar
    26     7     1    1
    27    15    16    1
    28     4     3   ar
    29    23    31    1
    30    23    21   ar
    31     1     2   ar
    32    31    35   ar
    33    20    21   ar
    34    20    28    1
    35    21    24    1
    36     3     2   ar
    37     3    10    1
    38     2     8    1
    39    28    29    1
    40     8     9    1
    41    34    35   ar
    42    34    37    1
    43    35    36    1
