@<TRIPOS>MOLECULE
mol_data/opt/cam/geoms/mol2/13fa13fa13fa13fa.out
 38 41 0 0 0
SMALL
GASTEIGER

@<TRIPOS>ATOM
      1 C           0.9830    0.1929   -1.1582 C.ar    1  LIG1        0.0442
      2 C           0.8138    1.1757   -0.2202 C.ar    1  LIG1        0.1347
      3 C          -0.4494    0.9908    0.4021 C.ar    1  LIG1        0.0067
      4 C          -1.0313   -0.1131   -0.1833 C.ar    1  LIG1        0.0701
      5 N          -0.1438   -0.6097   -1.1086 N.ar    1  LIG1       -0.3564
      6 H          -0.4107   -1.2358   -1.8501 H       1  LIG1        0.1655
      7 H           1.8050   -0.0070   -1.8252 H       1  LIG1        0.0844
      8 O           1.7448    2.1336    0.0585 O.3     1  LIG1       -0.5053
      9 H           1.3674    2.7425    0.7018 H       1  LIG1        0.2922
     10 H          -0.8831    1.5745    1.2010 H       1  LIG1        0.0676
     11 C          -2.3132   -0.7368    0.0548 C.ar    1  LIG1        0.1054
     12 C          -3.5238   -0.2028    0.4429 C.ar    1  LIG1        0.1441
     13 C          -4.4822   -1.2408    0.5032 C.ar    1  LIG1        0.0074
     14 C          -3.8400   -2.4118    0.1487 C.ar    1  LIG1        0.0705
     15 N          -2.5317   -2.0960   -0.1170 N.ar    1  LIG1       -0.3488
     16 H          -1.8239   -2.7448   -0.4158 H       1  LIG1        0.1661
     17 O          -3.7019    1.1201    0.7218 O.3     1  LIG1       -0.5046
     18 H          -4.6448    1.2828    0.8313 H       1  LIG1        0.2922
     19 H          -5.5240   -1.1636    0.7777 H       1  LIG1        0.0676
     20 C          -4.3499   -3.7595    0.0558 C.ar    1  LIG1        0.1055
     21 C          -5.6125   -4.2198   -0.2563 C.ar    1  LIG1        0.1441
     22 C          -5.6003   -5.6335   -0.2429 C.ar    1  LIG1        0.0074
     23 C          -4.3172   -6.0265    0.0833 C.ar    1  LIG1        0.0705
     24 N          -3.5718   -4.8894    0.2627 N.ar    1  LIG1       -0.3488
     25 H          -2.5965   -4.8765    0.5076 H       1  LIG1        0.1661
     26 O          -6.6633   -3.3915   -0.5167 O.3     1  LIG1       -0.5046
     27 H          -7.4035   -3.9251   -0.8251 H       1  LIG1        0.2922
     28 H          -6.4241   -6.3035   -0.4404 H       1  LIG1        0.0676
     29 C          -3.7584   -7.3494    0.2475 C.ar    1  LIG1        0.1050
     30 C          -4.0777   -8.5395   -0.3697 C.ar    1  LIG1        0.1434
     31 C          -3.2125   -9.5501    0.1232 C.ar    1  LIG1       -0.0021
     32 C          -2.3841   -8.9515    1.0399 C.ar    1  LIG1        0.0058
     33 N          -2.7010   -7.6251    1.1010 N.ar    1  LIG1       -0.3566
     34 H          -2.3940   -7.0028    1.8301 H       1  LIG1        0.1655
     35 H          -1.6003   -9.3702    1.6517 H       1  LIG1        0.0808
     36 O          -5.0662   -8.6553   -1.3010 O.3     1  LIG1       -0.5046
     37 H          -5.0379   -9.5428   -1.6735 H       1  LIG1        0.2922
     38 H          -3.1953  -10.5902   -0.1709 H       1  LIG1        0.0669
@<TRIPOS>BOND
     1     6     5    1
     2     7     1    1
     3    37    36    1
     4    36    30    1
     5     1     5   ar
     6     1     2   ar
     7     5     4   ar
     8    27    26    1
     9    26    21    1
    10    28    22    1
    11    16    15    1
    12    30    31   ar
    13    30    29   ar
    14    21    22   ar
    15    21    20   ar
    16    22    23   ar
    17     2     8    1
    18     2     3   ar
    19     4    11    1
    20     4     3   ar
    21    38    31    1
    22    15    11   ar
    23    15    14   ar
    24    11    12   ar
    25    20    14    1
    26    20    24   ar
    27     8     9    1
    28    23    29    1
    29    23    24   ar
    30    31    32   ar
    31    14    13   ar
    32    29    33   ar
    33    24    25    1
    34     3    10    1
    35    12    13   ar
    36    12    17    1
    37    13    19    1
    38    17    18    1
    39    32    33   ar
    40    32    35    1
    41    33    34    1
