@<TRIPOS>MOLECULE
mol_data/opt/cam/geoms/mol2/13fd13hf-6fe-6hd-.out
 47 50 0 0 0
SMALL
GASTEIGER

@<TRIPOS>ATOM
      1 C           1.2919   -0.0701    0.0411 C.ar    1  LIG1        0.0455
      2 C           0.8708    1.1990    0.3156 C.ar    1  LIG1        0.1521
      3 C          -0.5603    1.1965    0.2873 C.ar    1  LIG1        0.1197
      4 C          -0.9731   -0.1011   -0.0239 C.ar    1  LIG1        0.0861
      5 N           0.1589   -0.8423   -0.1514 N.ar    1  LIG1       -0.3554
      6 H           0.1619   -1.7914   -0.4872 H       1  LIG1        0.1655
      7 H           2.2860   -0.4785   -0.0247 H       1  LIG1        0.0845
      8 O           1.6780    2.2493    0.5836 O.3     1  LIG1       -0.5040
      9 H           1.1416    3.0364    0.7408 H       1  LIG1        0.2923
     10 N          -2.0516    3.2247    0.8112 N.1     1  LIG1       -0.1907
     11 C          -1.3828    2.3034    0.5831 C.1     1  LIG1        0.1050
     12 C          -2.2808   -0.6813   -0.1908 C.ar    1  LIG1        0.0893
     13 C          -3.4780   -0.1541   -0.6185 C.ar    1  LIG1        0.0944
     14 C          -4.4192   -1.2400   -0.6255 C.ar    1  LIG1        0.1637
     15 C          -3.8031   -2.3811   -0.2083 C.ar    1  LIG1        0.0960
     16 N          -2.4414   -2.0759    0.0080 N.ar    1  LIG1       -0.3484
     17 H          -2.0583   -2.4327    0.8799 H       1  LIG1        0.1661
     18 N          -3.8016    1.0888   -1.1030 N.pl3   1  LIG1       -0.3534
     19 H          -3.3385    1.8900   -0.6974 H       1  LIG1        0.1425
     20 H          -4.7925    1.2253   -1.2396 H       1  LIG1        0.1425
     21 O          -5.6853   -1.0379   -1.0623 O.3     1  LIG1       -0.5031
     22 H          -6.1168   -1.8857   -1.2287 H       1  LIG1        0.2923
     23 C          -3.5571   -4.8610   -0.4866 C.ar    1  LIG1        0.2224
     24 C          -4.3205   -3.7387   -0.0907 C.ar    1  LIG1        0.0645
     25 C          -5.5895   -4.0148    0.3941 C.ar    1  LIG1       -0.0299
     26 C          -6.0909   -5.3211    0.4522 C.ar    1  LIG1        0.0516
     27 C          -5.2599   -6.3630   -0.0140 C.ar    1  LIG1        0.0935
     28 N          -4.0173   -6.0930   -0.4435 N.ar    1  LIG1       -0.2111
     29 H          -6.2047   -3.2063    0.7761 H       1  LIG1        0.0639
     30 O          -2.2972   -4.7351   -0.9320 O.3     1  LIG1       -0.4919
     31 H          -2.0712   -3.7874   -0.9607 H       1  LIG1        0.2937
     32 C          -7.3799   -5.5071    1.0438 C.1     1  LIG1       -0.0675
     33 C          -8.4636   -5.5881    1.5624 C.1     1  LIG1       -0.1138
     34 H          -9.4214   -5.6878    2.0203 H       1  LIG1        0.1232
     35 C          -4.7403   -8.8602    0.0924 C.ar    1  LIG1        0.1255
     36 C          -5.6730   -7.7844   -0.0581 C.ar    1  LIG1        0.0424
     37 C          -6.9948   -8.1371   -0.2765 C.ar    1  LIG1       -0.0304
     38 C          -7.3899   -9.4762   -0.2816 C.ar    1  LIG1        0.0706
     39 C          -6.4055  -10.4396   -0.0524 C.ar    1  LIG1        0.0471
     40 N          -5.1312  -10.1476    0.1198 N.ar    1  LIG1       -0.2388
     41 H          -7.7385   -7.3715   -0.4488 H       1  LIG1        0.0638
     42 H          -6.6722  -11.4934   -0.0219 H       1  LIG1        0.0843
     43 N          -3.4154   -8.6594    0.2474 N.pl3   1  LIG1       -0.3426
     44 H          -2.8487   -9.4925    0.2469 H       1  LIG1        0.1437
     45 H          -3.0367   -7.7715   -0.0551 H       1  LIG1        0.1437
     46 N          -9.8532  -10.1536   -0.6836 N.1     1  LIG1       -0.1908
     47 C          -8.7504   -9.8500   -0.5049 C.1     1  LIG1        0.1007
@<TRIPOS>BOND
     1    20    18    1
     2    22    21    1
     3    18    19    1
     4    18    13    1
     5    21    14    1
     6    31    30    1
     7    30    23    1
     8    46    47    3
     9    14    13   ar
    10    14    15   ar
    11    13    12   ar
    12    47    38    1
    13     6     5    1
    14    23    28   ar
    15    23    24   ar
    16    41    37    1
    17    28    27   ar
    18    38    37   ar
    19    38    39   ar
    20    37    36   ar
    21    15    24    1
    22    15    16   ar
    23    12     4    1
    24    12    16   ar
    25     5     4   ar
    26     5     1   ar
    27    24    25   ar
    28    36    27    1
    29    36    35   ar
    30    45    43    1
    31    39    42    1
    32    39    40   ar
    33     7     1    1
    34     4     3   ar
    35    27    26   ar
    36    16    17    1
    37     1     2   ar
    38    35    40   ar
    39    35    43    1
    40    44    43    1
    41     3     2   ar
    42     3    11    1
    43     2     8    1
    44    25    26   ar
    45    25    29    1
    46    26    32    1
    47    11    10    3
    48     8     9    1
    49    32    33    3
    50    33    34    1
