@<TRIPOS>MOLECULE
mol_data/opt/cam/geoms/mol2/13fd13fd13fd-13fd-.out
 42 45 0 0 0
SMALL
GASTEIGER

@<TRIPOS>ATOM
      1 C           1.2369    0.0869    0.5353 C.ar    1  LIG1        0.0455
      2 C           0.8638    1.1725   -0.2072 C.ar    1  LIG1        0.1521
      3 C          -0.5384    1.0650   -0.4618 C.ar    1  LIG1        0.1198
      4 C          -0.9836   -0.1010    0.1516 C.ar    1  LIG1        0.0878
      5 N           0.1029   -0.6793    0.7335 N.ar    1  LIG1       -0.3553
      6 H           0.0508   -1.4588    1.3688 H       1  LIG1        0.1655
      7 H           2.2002   -0.1981    0.9232 H       1  LIG1        0.0845
      8 O           1.6913    2.1516   -0.6322 O.3     1  LIG1       -0.5040
      9 H           1.1846    2.7966   -1.1428 H       1  LIG1        0.2923
     10 N          -1.7930    2.7596   -1.9361 N.1     1  LIG1       -0.1907
     11 C          -1.2718    1.9750   -1.2610 C.1     1  LIG1        0.1050
     12 C          -2.3032   -0.6857    0.2062 C.ar    1  LIG1        0.1080
     13 C          -3.5360   -0.0925    0.3492 C.ar    1  LIG1        0.1616
     14 C          -4.5179   -1.1273    0.3544 C.ar    1  LIG1        0.1205
     15 C          -3.8412   -2.3421    0.2143 C.ar    1  LIG1        0.0883
     16 N          -2.5196   -2.0584    0.1435 N.ar    1  LIG1       -0.3478
     17 H          -1.8208   -2.7572   -0.0658 H       1  LIG1        0.1661
     18 O          -3.7199    1.2307    0.5222 O.3     1  LIG1       -0.5034
     19 H          -4.6226    1.4820    0.2918 H       1  LIG1        0.2923
     20 N          -7.0722   -1.0106    0.6216 N.1     1  LIG1       -0.1907
     21 C          -5.9169   -1.0115    0.5063 C.1     1  LIG1        0.1050
     22 C          -4.3454   -3.6830    0.1353 C.ar    1  LIG1        0.1081
     23 C          -3.6633   -4.8715    0.0419 C.ar    1  LIG1        0.1616
     24 C          -4.6164   -5.9272    0.0175 C.ar    1  LIG1        0.1205
     25 C          -5.8864   -5.3424    0.0788 C.ar    1  LIG1        0.0882
     26 N          -5.6975   -4.0019    0.1569 N.ar    1  LIG1       -0.3478
     27 H          -6.4324   -3.3114    0.0877 H       1  LIG1        0.1661
     28 O          -2.3107   -4.9535    0.0095 O.3     1  LIG1       -0.5034
     29 H          -2.0319   -5.8716   -0.1013 H       1  LIG1        0.2923
     30 N          -4.1051   -8.4457   -0.0489 N.1     1  LIG1       -0.1907
     31 C          -4.3294   -7.3073   -0.0105 C.1     1  LIG1        0.1050
     32 C          -7.2013   -5.9279    0.0782 C.ar    1  LIG1        0.1076
     33 C          -7.7030   -7.0990   -0.4730 C.ar    1  LIG1        0.1609
     34 C          -9.1139   -7.0934   -0.2725 C.ar    1  LIG1        0.1110
     35 C          -9.4307   -5.9289    0.3969 C.ar    1  LIG1        0.0233
     36 N          -8.2908   -5.2334    0.5965 N.ar    1  LIG1       -0.3554
     37 H          -8.2244   -4.4117    1.1768 H       1  LIG1        0.1655
     38 H         -10.3868   -5.5762    0.7505 H       1  LIG1        0.0821
     39 O          -7.0944   -8.0736   -1.1668 O.3     1  LIG1       -0.5034
     40 H          -6.1864   -8.2333   -0.8715 H       1  LIG1        0.2923
     41 N         -10.7773   -8.9167   -1.0142 N.1     1  LIG1       -0.1907
     42 C         -10.0255   -8.1011   -0.6860 C.1     1  LIG1        0.1043
@<TRIPOS>BOND
     1    10    11    3
     2    11     3    1
     3    39    40    1
     4    39    33    1
     5     9     8    1
     6    41    42    3
     7    42    34    1
     8     8     2    1
     9    33    34   ar
    10    33    32   ar
    11     3     2   ar
    12     3     4   ar
    13    34    35   ar
    14     2     1   ar
    15    29    28    1
    16    17    16    1
    17    30    31    3
    18    31    24    1
    19    28    23    1
    20    24    23   ar
    21    24    25   ar
    22    23    22   ar
    23    32    25    1
    24    32    36   ar
    25    25    26   ar
    26    27    26    1
    27    22    26   ar
    28    22    15    1
    29    16    12   ar
    30    16    15   ar
    31     4    12    1
    32     4     5   ar
    33    12    13   ar
    34    15    14   ar
    35    19    18    1
    36    13    14   ar
    37    13    18    1
    38    14    21    1
    39    35    36   ar
    40    35    38    1
    41    21    20    3
    42     1     5   ar
    43     1     7    1
    44    36    37    1
    45     5     6    1
