@<TRIPOS>MOLECULE
mol_data/opt/cam/geoms/mol2/13fd13fd13fd13fd.out
 42 45 0 0 0
SMALL
GASTEIGER

@<TRIPOS>ATOM
      1 C           0.8187    0.5377   -1.3782 C.ar    1  LIG1        0.0455
      2 C           0.7664    1.2362   -0.2041 C.ar    1  LIG1        0.1521
      3 C          -0.4552    0.8911    0.4529 C.ar    1  LIG1        0.1198
      4 C          -1.1241   -0.0157   -0.3598 C.ar    1  LIG1        0.0878
      5 N          -0.3317   -0.2268   -1.4485 N.ar    1  LIG1       -0.3553
      6 H          -0.6448   -0.7001   -2.2805 H       1  LIG1        0.1655
      7 H           1.5709    0.5204   -2.1487 H       1  LIG1        0.0845
      8 O           1.7202    2.0784    0.2490 O.3     1  LIG1       -0.5040
      9 H           1.4374    2.4537    1.0932 H       1  LIG1        0.2923
     10 N          -1.0510    1.7974    2.7860 N.1     1  LIG1       -0.1907
     11 C          -0.8309    1.3682    1.7325 C.1     1  LIG1        0.1050
     12 C          -2.3973   -0.6778   -0.1795 C.ar    1  LIG1        0.1080
     13 C          -3.6201   -0.1838    0.2115 C.ar    1  LIG1        0.1616
     14 C          -4.5521   -1.2622    0.2126 C.ar    1  LIG1        0.1205
     15 C          -3.8690   -2.4067   -0.1896 C.ar    1  LIG1        0.0883
     16 N          -2.5813   -2.0356   -0.4214 N.ar    1  LIG1       -0.3478
     17 H          -1.8567   -2.6597   -0.7362 H       1  LIG1        0.1661
     18 O          -3.8578    1.1041    0.5160 O.3     1  LIG1       -0.5034
     19 H          -4.7590    1.2004    0.8518 H       1  LIG1        0.2923
     20 N          -6.9924   -0.9439    0.9623 N.1     1  LIG1       -0.1907
     21 C          -5.9057   -1.1362    0.6103 C.1     1  LIG1        0.1050
     22 C          -4.3247   -3.7683   -0.3350 C.ar    1  LIG1        0.1081
     23 C          -5.4885   -4.2710   -0.8611 C.ar    1  LIG1        0.1616
     24 C          -5.4256   -5.6970   -0.7915 C.ar    1  LIG1        0.1205
     25 C          -4.2133   -6.0322   -0.2058 C.ar    1  LIG1        0.0882
     26 N          -3.5386   -4.8660    0.0301 N.ar    1  LIG1       -0.3478
     27 H          -2.8312   -4.7992    0.7472 H       1  LIG1        0.1661
     28 O          -6.4643   -3.5259   -1.4043 O.3     1  LIG1       -0.5034
     29 H          -7.2206   -4.0838   -1.6309 H       1  LIG1        0.2923
     30 N          -7.2726   -7.1648   -1.8177 N.1     1  LIG1       -0.1907
     31 C          -6.4185   -6.5503   -1.3337 C.1     1  LIG1        0.1050
     32 C          -3.6618   -7.3189    0.1399 C.ar    1  LIG1        0.1076
     33 C          -4.2721   -8.4583    0.6176 C.ar    1  LIG1        0.1609
     34 C          -3.2560   -9.4363    0.8348 C.ar    1  LIG1        0.1110
     35 C          -2.0507   -8.8590    0.4813 C.ar    1  LIG1        0.0233
     36 N          -2.2988   -7.5918    0.0849 N.ar    1  LIG1       -0.3554
     37 H          -1.6226   -6.9890   -0.3551 H       1  LIG1        0.1655
     38 H          -1.0577   -9.2798    0.4833 H       1  LIG1        0.0821
     39 O          -5.5876   -8.5663    0.8637 O.3     1  LIG1       -0.5034
     40 H          -5.8066   -9.4709    1.1235 H       1  LIG1        0.2923
     41 N          -3.7452  -11.7919    1.7524 N.1     1  LIG1       -0.1907
     42 C          -3.4878  -10.7414    1.3386 C.1     1  LIG1        0.1043
@<TRIPOS>BOND
     1     6     5    1
     2     7     1    1
     3    30    31    3
     4    29    28    1
     5     5     1   ar
     6     5     4   ar
     7    28    23    1
     8     1     2   ar
     9    31    24    1
    10    23    24   ar
    11    23    22   ar
    12    24    25   ar
    13    17    16    1
    14    16    15   ar
    15    16    12   ar
    16     4    12    1
    17     4     3   ar
    18    37    36    1
    19    22    15    1
    20    22    26   ar
    21    25    26   ar
    22    25    32    1
    23     2     8    1
    24     2     3   ar
    25    15    14   ar
    26    12    13   ar
    27    26    27    1
    28    36    32   ar
    29    36    35   ar
    30    32    33   ar
    31    13    14   ar
    32    13    18    1
    33    14    21    1
    34     8     9    1
    35     3    11    1
    36    35    38    1
    37    35    34   ar
    38    18    19    1
    39    21    20    3
    40    33    34   ar
    41    33    39    1
    42    34    42    1
    43    39    40    1
    44    42    41    3
    45    11    10    3
