@<TRIPOS>MOLECULE
mol_data/opt/cam/geoms/mol2/13fd13fd-4fd13fd.out
 44 47 0 0 0
SMALL
GASTEIGER

@<TRIPOS>ATOM
      1 C           1.3996   -0.2257   -0.0018 C.ar    1  LIG1        0.0455
      2 C           0.9912    1.0791   -0.0003 C.ar    1  LIG1        0.1521
      3 C          -0.4386    1.0842    0.0009 C.ar    1  LIG1        0.1198
      4 C          -0.8541   -0.2502    0.0001 C.ar    1  LIG1        0.0878
      5 N           0.2638   -1.0125   -0.0015 N.ar    1  LIG1       -0.3553
      6 H           0.2363   -2.0217   -0.0022 H       1  LIG1        0.1655
      7 H           2.3911   -0.6456   -0.0030 H       1  LIG1        0.0845
      8 O           1.8135    2.1531   -0.0001 O.3     1  LIG1       -0.5040
      9 H           1.2871    2.9618    0.0013 H       1  LIG1        0.2923
     10 N          -1.9926    3.1350    0.0038 N.1     1  LIG1       -0.1907
     11 C          -1.2809    2.2174    0.0025 C.1     1  LIG1        0.1050
     12 C          -2.1710   -0.8272    0.0007 C.ar    1  LIG1        0.1080
     13 C          -2.5475   -2.1514   -0.0001 C.ar    1  LIG1        0.1615
     14 C          -3.9641   -2.2080    0.0009 C.ar    1  LIG1        0.1190
     15 C          -4.4332   -0.8833    0.0022 C.ar    1  LIG1        0.0717
     16 N          -3.3332   -0.0905    0.0021 N.ar    1  LIG1       -0.3489
     17 H          -3.3937    0.9205    0.0028 H       1  LIG1        0.1661
     18 O          -1.6684   -3.1838   -0.0016 O.3     1  LIG1       -0.5034
     19 H          -2.1464   -4.0241   -0.0020 H       1  LIG1        0.2923
     20 N          -5.1626   -4.4834    0.0000 N.1     1  LIG1       -0.1907
     21 C          -4.6681   -3.4343    0.0004 C.1     1  LIG1        0.1050
     22 C          -6.0778    1.0316    0.0051 C.ar    1  LIG1        0.1267
     23 C          -7.3745    1.5150    0.0064 C.ar    1  LIG1       -0.0091
     24 C          -5.7953   -0.3517    0.0037 C.ar    1  LIG1        0.0423
     25 C          -8.4870    0.6674    0.0065 C.ar    1  LIG1        0.0227
     26 H          -7.5282    2.5866    0.0075 H       1  LIG1        0.0661
     27 C          -6.9000   -1.1974    0.0037 C.ar    1  LIG1       -0.0310
     28 C          -8.2111   -0.7213    0.0051 C.ar    1  LIG1        0.0618
     29 H          -6.7571   -2.2705    0.0027 H       1  LIG1        0.0638
     30 O          -5.0258    1.8875    0.0051 O.3     1  LIG1       -0.5061
     31 H          -5.3091    2.8098    0.0058 H       1  LIG1        0.2922
     32 N         -10.1268   -2.4623    0.0050 N.1     1  LIG1       -0.1908
     33 C          -9.2540   -1.7001    0.0050 C.1     1  LIG1        0.0998
     34 C          -9.8206    1.2540    0.0079 C.ar    1  LIG1        0.0912
     35 C         -10.1983    2.5895    0.0084 C.ar    1  LIG1        0.1594
     36 C         -11.6168    2.6565    0.0099 C.ar    1  LIG1        0.1109
     37 C         -12.0779    1.3512    0.0102 C.ar    1  LIG1        0.0233
     38 N         -11.0129    0.5347    0.0090 N.ar    1  LIG1       -0.3565
     39 H         -11.0723   -0.4744    0.0087 H       1  LIG1        0.1655
     40 H         -13.0886    0.9748    0.0111 H       1  LIG1        0.0821
     41 O          -9.3615    3.6510    0.0078 O.3     1  LIG1       -0.5034
     42 H          -9.8816    4.4667    0.0081 H       1  LIG1        0.2923
     43 N         -12.8680    4.9047    0.0114 N.1     1  LIG1       -0.1907
     44 C         -12.3508    3.8679    0.0108 C.1     1  LIG1        0.1043
@<TRIPOS>BOND
     1     7     1    1
     2     6     5    1
     3    19    18    1
     4     1     5   ar
     5     1     2   ar
     6    18    13    1
     7     5     4   ar
     8     2     8    1
     9     2     3   ar
    10     8     9    1
    11    13    12   ar
    12    13    14   ar
    13    20    21    3
    14     4    12    1
    15     4     3   ar
    16    21    14    1
    17    12    16   ar
    18    14    15   ar
    19     3    11    1
    20    16    15   ar
    21    16    17    1
    22    15    24    1
    23    11    10    3
    24    29    27    1
    25    24    27   ar
    26    24    22   ar
    27    27    28   ar
    28    33    32    3
    29    33    28    1
    30    22    30    1
    31    22    23   ar
    32    28    25   ar
    33    30    31    1
    34    23    25   ar
    35    23    26    1
    36    25    34    1
    37    41    42    1
    38    41    35    1
    39    34    35   ar
    40    34    38   ar
    41    35    36   ar
    42    39    38    1
    43    38    37   ar
    44    36    37   ar
    45    36    44    1
    46    37    40    1
    47    44    43    3
