@<TRIPOS>MOLECULE
mol_data/opt/cam/geoms/mol2/13fd13fd13fd13fd-.out
 42 45 0 0 0
SMALL
GASTEIGER

@<TRIPOS>ATOM
      1 C           1.2161   -0.0024    0.0054 C.ar    1  LIG1        0.0455
      2 C           0.7451    1.2020    0.4470 C.ar    1  LIG1        0.1521
      3 C          -0.6834    1.1366    0.4549 C.ar    1  LIG1        0.1198
      4 C          -1.0437   -0.1275    0.0009 C.ar    1  LIG1        0.0878
      5 N           0.1143   -0.8006   -0.2477 N.ar    1  LIG1       -0.3553
      6 H           0.1520   -1.6799   -0.7362 H       1  LIG1        0.1655
      7 H           2.2252   -0.3502   -0.1368 H       1  LIG1        0.0845
      8 O           1.5069    2.2506    0.8267 O.3     1  LIG1       -0.5040
      9 H           0.9315    2.9771    1.1006 H       1  LIG1        0.2923
     10 N          -2.1049    3.0897    1.3383 N.1     1  LIG1       -0.1907
     11 C          -1.5136    2.1833    0.9238 C.1     1  LIG1        0.1050
     12 C          -2.3424   -0.7277   -0.1898 C.ar    1  LIG1        0.1080
     13 C          -3.5185   -0.2001   -0.6632 C.ar    1  LIG1        0.1616
     14 C          -4.4975   -1.2405   -0.6750 C.ar    1  LIG1        0.1205
     15 C          -3.8874   -2.3919   -0.1935 C.ar    1  LIG1        0.0883
     16 N          -2.5823   -2.0797    0.0626 N.ar    1  LIG1       -0.3478
     17 H          -2.0134   -2.6170    0.6995 H       1  LIG1        0.1661
     18 O          -3.6694    1.0632   -1.0955 O.3     1  LIG1       -0.5034
     19 H          -4.5968    1.2304   -1.3097 H       1  LIG1        0.2923
     20 N          -6.8463   -0.8554   -1.6512 N.1     1  LIG1       -0.1907
     21 C          -5.8052   -1.0779   -1.1947 C.1     1  LIG1        0.1050
     22 C          -4.4147   -3.7135    0.0316 C.ar    1  LIG1        0.1081
     23 C          -5.6610   -4.1234    0.4513 C.ar    1  LIG1        0.1616
     24 C          -5.6392   -5.5449    0.5523 C.ar    1  LIG1        0.1205
     25 C          -4.3588   -5.9678    0.1891 C.ar    1  LIG1        0.0882
     26 N          -3.6379   -4.8600   -0.1021 N.ar    1  LIG1       -0.3478
     27 H          -2.7136   -4.9053   -0.5077 H       1  LIG1        0.1661
     28 O          -6.6668   -3.2848    0.7535 O.3     1  LIG1       -0.5034
     29 H          -7.4902   -3.7716    0.8829 H       1  LIG1        0.2923
     30 N          -7.5252   -7.1357    1.2796 N.1     1  LIG1       -0.1907
     31 C          -6.6928   -6.3945    0.9566 C.1     1  LIG1        0.1050
     32 C          -3.7961   -7.2854    0.0797 C.ar    1  LIG1        0.1076
     33 C          -2.5293   -7.6528   -0.3163 C.ar    1  LIG1        0.1609
     34 C          -2.4457   -9.0703   -0.2721 C.ar    1  LIG1        0.1110
     35 C          -3.6822   -9.5278    0.1555 C.ar    1  LIG1        0.0233
     36 N          -4.4762   -8.4581    0.3620 N.ar    1  LIG1       -0.3554
     37 H          -5.4360   -8.4972    0.6773 H       1  LIG1        0.1655
     38 H          -4.0246  -10.5373    0.3184 H       1  LIG1        0.0821
     39 O          -1.5668   -6.7661   -0.6761 O.3     1  LIG1       -0.5034
     40 H          -0.7745   -7.2421   -0.9597 H       1  LIG1        0.2923
     41 N          -0.3003  -10.3387   -0.9138 N.1     1  LIG1       -0.1907
     42 C          -1.2879   -9.8123   -0.6151 C.1     1  LIG1        0.1043
@<TRIPOS>BOND
     1    20    21    3
     2    19    18    1
     3    21    14    1
     4    18    13    1
     5    40    39    1
     6    41    42    3
     7     6     5    1
     8    39    33    1
     9    14    13   ar
    10    14    15   ar
    11    13    12   ar
    12    42    34    1
    13    27    26    1
    14    33    34   ar
    15    33    32   ar
    16    34    35   ar
    17     5     4   ar
    18     5     1   ar
    19    15    22    1
    20    15    16   ar
    21    12     4    1
    22    12    16   ar
    23     7     1    1
    24    26    22   ar
    25    26    25   ar
    26     4     3   ar
    27     1     2   ar
    28    22    23   ar
    29    16    17    1
    30    32    25    1
    31    32    36   ar
    32    35    38    1
    33    35    36   ar
    34    25    24   ar
    35    36    37    1
    36     2     3   ar
    37     2     8    1
    38    23    24   ar
    39    23    28    1
    40     3    11    1
    41    24    31    1
    42    28    29    1
    43     8     9    1
    44    11    10    3
    45    31    30    3
