@<TRIPOS>MOLECULE
mol_data/opt/cam/geoms/mol2/13fd13fd-.out
 22 23 0 0 0
SMALL
GASTEIGER

@<TRIPOS>ATOM
      1 C           1.2385   -0.2288   -0.0071 C.ar    1  LIG1        0.0455
      2 C           0.8497    1.0820   -0.0138 C.ar    1  LIG1        0.1521
      3 C          -0.5798    1.1065   -0.0112 C.ar    1  LIG1        0.1198
      4 C          -1.0148   -0.2206   -0.0028 C.ar    1  LIG1        0.0878
      5 N           0.0911   -0.9992   -0.0005 N.ar    1  LIG1       -0.3553
      6 H           0.0486   -2.0080    0.0057 H       1  LIG1        0.1655
      7 H           2.2236   -0.6634   -0.0065 H       1  LIG1        0.0845
      8 O           1.6881    2.1434   -0.0212 O.3     1  LIG1       -0.5040
      9 H           1.1747    2.9603   -0.0270 H       1  LIG1        0.2923
     10 N          -2.1436    3.1487   -0.0202 N.1     1  LIG1       -0.1907
     11 C          -1.4175    2.2424   -0.0163 C.1     1  LIG1        0.1050
     12 C          -2.3418   -0.7792    0.0029 C.ar    1  LIG1        0.1076
     13 C          -2.7273   -2.1002    0.0115 C.ar    1  LIG1        0.1609
     14 C          -4.1488   -2.1463    0.0145 C.ar    1  LIG1        0.1110
     15 C          -4.5894   -0.8324    0.0076 C.ar    1  LIG1        0.0233
     16 N          -3.5056   -0.0295    0.0008 N.ar    1  LIG1       -0.3554
     17 H          -3.5287    0.9810   -0.0052 H       1  LIG1        0.1655
     18 H          -5.5945   -0.4421    0.0072 H       1  LIG1        0.0821
     19 O          -1.8526   -3.1380    0.0159 O.3     1  LIG1       -0.5034
     20 H          -2.3358   -3.9747    0.0221 H       1  LIG1        0.2923
     21 N          -5.4629   -4.3594    0.0302 N.1     1  LIG1       -0.1907
     22 C          -4.9123   -3.3402    0.0231 C.1     1  LIG1        0.1043
@<TRIPOS>BOND
     1     9     8    1
     2     8     2    1
     3    10    11    3
     4    11     3    1
     5     2     3   ar
     6     2     1   ar
     7     3     4   ar
     8     1     7    1
     9     1     5   ar
    10    17    16    1
    11     4     5   ar
    12     4    12    1
    13     5     6    1
    14    16    12   ar
    15    16    15   ar
    16    12    13   ar
    17    18    15    1
    18    15    14   ar
    19    13    14   ar
    20    13    19    1
    21    14    22    1
    22    19    20    1
    23    22    21    3
