@<TRIPOS>MOLECULE
mol_data/opt/cam/geoms/mol2/13fd13fd-13fd13fd-.out
 42 45 0 0 0
SMALL
GASTEIGER

@<TRIPOS>ATOM
      1 C           1.3795   -0.2162   -0.0071 C.ar    1  LIG1        0.0455
      2 C           0.9885    1.0936   -0.0096 C.ar    1  LIG1        0.1521
      3 C          -0.4413    1.1181   -0.0078 C.ar    1  LIG1        0.1198
      4 C          -0.8755   -0.2098   -0.0042 C.ar    1  LIG1        0.0878
      5 N           0.2326   -0.9875   -0.0038 N.ar    1  LIG1       -0.3553
      6 H           0.1917   -1.9960   -0.0014 H       1  LIG1        0.1655
      7 H           2.3650   -0.6499   -0.0074 H       1  LIG1        0.0845
      8 O           1.8234    2.1580   -0.0131 O.3     1  LIG1       -0.5040
      9 H           1.3051    2.9720   -0.0140 H       1  LIG1        0.2923
     10 N          -1.9438    3.2068   -0.0104 N.1     1  LIG1       -0.1907
     11 C          -1.2610    2.2676   -0.0092 C.1     1  LIG1        0.1050
     12 C          -2.1994   -0.7703   -0.0011 C.ar    1  LIG1        0.1080
     13 C          -2.5843   -2.0908    0.0028 C.ar    1  LIG1        0.1616
     14 C          -4.0049   -2.1403    0.0047 C.ar    1  LIG1        0.1205
     15 C          -4.4556   -0.8145    0.0018 C.ar    1  LIG1        0.0883
     16 N          -3.3617   -0.0168   -0.0017 N.ar    1  LIG1       -0.3478
     17 H          -3.4126    0.9956   -0.0043 H       1  LIG1        0.1661
     18 O          -1.7070   -3.1269    0.0043 O.3     1  LIG1       -0.5034
     19 H          -2.1843   -3.9661    0.0082 H       1  LIG1        0.2923
     20 N          -5.4584   -4.2629    0.0122 N.1     1  LIG1       -0.1907
     21 C          -4.8018   -3.3058    0.0088 C.1     1  LIG1        0.1050
     22 C          -5.7837   -0.2728    0.0021 C.ar    1  LIG1        0.1081
     23 C          -6.1683    1.0502   -0.0011 C.ar    1  LIG1        0.1616
     24 C          -7.5879    1.0958    0.0008 C.ar    1  LIG1        0.1205
     25 C          -8.0359   -0.2316    0.0052 C.ar    1  LIG1        0.0882
     26 N          -6.9448   -1.0300    0.0059 N.ar    1  LIG1       -0.3478
     27 H          -6.9995   -2.0423    0.0089 H       1  LIG1        0.1661
     28 O          -5.2780    2.0662   -0.0055 O.3     1  LIG1       -0.5034
     29 H          -5.7152    2.9264   -0.0054 H       1  LIG1        0.2923
     30 N          -9.1330    3.1519   -0.0027 N.1     1  LIG1       -0.1907
     31 C          -8.4145    2.2404   -0.0012 C.1     1  LIG1        0.1050
     32 C          -9.3662   -0.7718    0.0087 C.ar    1  LIG1        0.1076
     33 C          -9.7529   -2.0947    0.0130 C.ar    1  LIG1        0.1609
     34 C         -11.1734   -2.1377    0.0151 C.ar    1  LIG1        0.1110
     35 C         -11.6104   -0.8216    0.0119 C.ar    1  LIG1        0.0233
     36 N         -10.5283   -0.0181    0.0081 N.ar    1  LIG1       -0.3554
     37 H         -10.5532    0.9922    0.0052 H       1  LIG1        0.1655
     38 H         -12.6156   -0.4312    0.0121 H       1  LIG1        0.0821
     39 O          -8.8689   -3.1163    0.0149 O.3     1  LIG1       -0.5034
     40 H          -9.3212   -3.9699    0.0172 H       1  LIG1        0.2923
     41 N         -12.5195   -4.3322    0.0232 N.1     1  LIG1       -0.1907
     42 C         -11.9485   -3.3246    0.0196 C.1     1  LIG1        0.1043
@<TRIPOS>BOND
     1     9     8    1
     2     8     2    1
     3    10    11    3
     4     2     3   ar
     5     2     1   ar
     6    11     3    1
     7     3     4   ar
     8     7     1    1
     9     1     5   ar
    10    28    29    1
    11    28    23    1
    12    17    16    1
    13     4     5   ar
    14     4    12    1
    15     5     6    1
    16    30    31    3
    17    16    12   ar
    18    16    15   ar
    19    31    24    1
    20    12    13   ar
    21    23    24   ar
    22    23    22   ar
    23    24    25   ar
    24    15    22    1
    25    15    14   ar
    26    22    26   ar
    27    13    18    1
    28    13    14   ar
    29    18    19    1
    30    14    21    1
    31    37    36    1
    32    25    26   ar
    33    25    32    1
    34    26    27    1
    35    36    32   ar
    36    36    35   ar
    37    32    33   ar
    38    21    20    3
    39    35    38    1
    40    35    34   ar
    41    33    39    1
    42    33    34   ar
    43    39    40    1
    44    34    42    1
    45    42    41    3
