@<TRIPOS>MOLECULE
mol_data/opt/cam/geoms/mol2/13fd13fd-13fd-13fd.out
 42 45 0 0 0
SMALL
GASTEIGER

@<TRIPOS>ATOM
      1 C           1.2560   -0.0048   -0.1792 C.ar    1  LIG1        0.0455
      2 C           0.7557    1.2640   -0.2719 C.ar    1  LIG1        0.1521
      3 C          -0.6707    1.1691   -0.2207 C.ar    1  LIG1        0.1198
      4 C          -0.9882   -0.1878   -0.0973 C.ar    1  LIG1        0.0878
      5 N           0.1801   -0.8675   -0.0758 N.ar    1  LIG1       -0.3553
      6 H           0.2284   -1.8709    0.0222 H       1  LIG1        0.1655
      7 H           2.2748   -0.3529   -0.1798 H       1  LIG1        0.0845
      8 O           1.5016    2.3857   -0.3880 O.3     1  LIG1       -0.5040
      9 H           0.9246    3.1569   -0.4405 H       1  LIG1        0.2923
     10 N          -2.4299    3.0452   -0.2846 N.1     1  LIG1       -0.1907
     11 C          -1.6104    2.2217   -0.2585 C.1     1  LIG1        0.1050
     12 C          -2.2660   -0.8358    0.0048 C.ar    1  LIG1        0.1080
     13 C          -2.5799   -2.1534    0.2273 C.ar    1  LIG1        0.1616
     14 C          -3.9993   -2.2663    0.2875 C.ar    1  LIG1        0.1205
     15 C          -4.5273   -0.9858    0.0796 C.ar    1  LIG1        0.0883
     16 N          -3.4701   -0.1518   -0.0829 N.ar    1  LIG1       -0.3478
     17 H          -3.5380    0.8151   -0.3672 H       1  LIG1        0.1661
     18 O          -1.6481   -3.1268    0.3753 O.3     1  LIG1       -0.5034
     19 H          -2.0724   -3.9750    0.5557 H       1  LIG1        0.2923
     20 N          -5.3540   -4.3991    0.7596 N.1     1  LIG1       -0.1907
     21 C          -4.7334   -3.4392    0.5535 C.1     1  LIG1        0.1050
     22 C          -5.8731   -0.4840    0.0383 C.ar    1  LIG1        0.1081
     23 C          -7.1072   -1.0598   -0.2345 C.ar    1  LIG1        0.1616
     24 C          -8.0664   -0.0090   -0.2762 C.ar    1  LIG1        0.1205
     25 C          -7.3940    1.1870   -0.0263 C.ar    1  LIG1        0.0882
     26 N          -6.0904    0.8862    0.1588 N.ar    1  LIG1       -0.3478
     27 H          -5.4233    1.5820    0.4665 H       1  LIG1        0.1661
     28 O          -7.4546   -2.3265   -0.5016 O.3     1  LIG1       -0.5034
     29 H          -6.8186   -2.9721   -0.1602 H       1  LIG1        0.2923
     30 N         -10.5996   -0.0363   -0.7101 N.1     1  LIG1       -0.1907
     31 C          -9.4562   -0.0927   -0.5242 C.1     1  LIG1        0.1050
     32 C          -7.8502    2.5459    0.0530 C.ar    1  LIG1        0.1076
     33 C          -7.0939    3.6790    0.2647 C.ar    1  LIG1        0.1609
     34 C          -7.9642    4.8010    0.2249 C.ar    1  LIG1        0.1110
     35 C          -9.2381    4.3045   -0.0137 C.ar    1  LIG1        0.0233
     36 N          -9.1590    2.9627   -0.1100 N.ar    1  LIG1       -0.3554
     37 H          -9.9344    2.3380   -0.2890 H       1  LIG1        0.1655
     38 H         -10.1726    4.8330   -0.1147 H       1  LIG1        0.0821
     39 O          -5.7590    3.6333    0.4878 O.3     1  LIG1       -0.5034
     40 H          -5.3511    4.5065    0.4208 H       1  LIG1        0.2923
     41 N          -7.1743    7.2313    0.5392 N.1     1  LIG1       -0.1907
     42 C          -7.5644    6.1504    0.3955 C.1     1  LIG1        0.1043
@<TRIPOS>BOND
     1    30    31    3
     2    31    24    1
     3    28    23    1
     4    28    29    1
     5     9     8    1
     6     8     2    1
     7    17    16    1
     8    37    36    1
     9    10    11    3
    10    24    23   ar
    11    24    25   ar
    12     2     3   ar
    13     2     1   ar
    14    11     3    1
    15    23    22   ar
    16     3     4   ar
    17     7     1    1
    18     1     5   ar
    19    38    35    1
    20    36    35   ar
    21    36    32   ar
    22     4     5   ar
    23     4    12    1
    24    16    12   ar
    25    16    15   ar
    26     5     6    1
    27    25    32    1
    28    25    26   ar
    29    35    34   ar
    30    12    13   ar
    31    22    15    1
    32    22    26   ar
    33    32    33   ar
    34    15    14   ar
    35    26    27    1
    36    34    33   ar
    37    34    42    1
    38    13    14   ar
    39    13    18    1
    40    33    39    1
    41    14    21    1
    42    18    19    1
    43    42    41    3
    44    40    39    1
    45    21    20    3
