@<TRIPOS>MOLECULE
mol_data/opt/cam/geoms/mol2/13fd13fd13fd.out
 32 34 0 0 0
SMALL
GASTEIGER

@<TRIPOS>ATOM
      1 C           1.0684   -0.0178   -1.0756 C.ar    1  LIG1        0.0455
      2 C           0.8458    1.0224   -0.2167 C.ar    1  LIG1        0.1521
      3 C          -0.4917    0.9034    0.2725 C.ar    1  LIG1        0.1198
      4 C          -1.0540   -0.2205   -0.3203 C.ar    1  LIG1        0.0878
      5 N          -0.0926   -0.7680   -1.1157 N.ar    1  LIG1       -0.3553
      6 H          -0.2742   -1.4910   -1.7928 H       1  LIG1        0.1655
      7 H           1.9449   -0.2808   -1.6433 H       1  LIG1        0.0845
      8 O           1.7488    1.9702    0.1159 O.3     1  LIG1       -0.5040
      9 H           1.3422    2.5934    0.7323 H       1  LIG1        0.2923
     10 N          -1.4433    2.5136    2.0392 N.1     1  LIG1       -0.1907
     11 C          -1.0631    1.7672    1.2386 C.1     1  LIG1        0.1050
     12 C          -2.3750   -0.7930   -0.1814 C.ar    1  LIG1        0.1080
     13 C          -3.6160   -0.1989   -0.1895 C.ar    1  LIG1        0.1616
     14 C          -4.5946   -1.2216   -0.0256 C.ar    1  LIG1        0.1205
     15 C          -3.9207   -2.4346    0.0741 C.ar    1  LIG1        0.0882
     16 N          -2.5930   -2.1573   -0.0243 N.ar    1  LIG1       -0.3478
     17 H          -1.8617   -2.8494    0.0014 H       1  LIG1        0.1661
     18 O          -3.8259    1.1204   -0.3450 O.3     1  LIG1       -0.5034
     19 H          -4.7632    1.3202   -0.2213 H       1  LIG1        0.2923
     20 N          -7.1097   -0.6995    0.1247 N.1     1  LIG1       -0.1907
     21 C          -5.9886   -0.9828    0.0566 C.1     1  LIG1        0.1050
     22 C          -4.4302   -3.7740    0.2680 C.ar    1  LIG1        0.1076
     23 C          -5.4813   -4.4247   -0.3359 C.ar    1  LIG1        0.1609
     24 C          -5.5470   -5.7429    0.2079 C.ar    1  LIG1        0.1110
     25 C          -4.5271   -5.8534    1.1347 C.ar    1  LIG1        0.0233
     26 N          -3.8552   -4.6817    1.1523 N.ar    1  LIG1       -0.3554
     27 H          -3.1611   -4.4340    1.8392 H       1  LIG1        0.1655
     28 H          -4.2601   -6.6819    1.7713 H       1  LIG1        0.0821
     29 O          -6.2535   -3.8892   -1.2981 O.3     1  LIG1       -0.5034
     30 H          -6.9985   -4.4741   -1.4887 H       1  LIG1        0.2923
     31 N          -7.2872   -7.4878   -0.5384 N.1     1  LIG1       -0.1907
     32 C          -6.4901   -6.7288   -0.1781 C.1     1  LIG1        0.1043
@<TRIPOS>BOND
     1     6     5    1
     2     7     1    1
     3    30    29    1
     4    29    23    1
     5     5     1   ar
     6     5     4   ar
     7     1     2   ar
     8    31    32    3
     9    18    19    1
    10    18    13    1
    11    23    24   ar
    12    23    22   ar
    13     4    12    1
    14     4     3   ar
    15     2     8    1
    16     2     3   ar
    17    13    12   ar
    18    13    14   ar
    19    12    16   ar
    20    32    24    1
    21    14    21    1
    22    14    15   ar
    23    16    17    1
    24    16    15   ar
    25    21    20    3
    26    15    22    1
    27     8     9    1
    28    24    25   ar
    29    22    26   ar
    30     3    11    1
    31    25    26   ar
    32    25    28    1
    33    26    27    1
    34    11    10    3
