@<TRIPOS>MOLECULE
mol_data/opt/cam/geoms/mol2/13fd13fd13fd-13fd.out
 42 45 0 0 0
SMALL
GASTEIGER

@<TRIPOS>ATOM
      1 C           1.2110   -0.0138    0.6423 C.ar    1  LIG1        0.0455
      2 C           0.8735    1.1132   -0.0531 C.ar    1  LIG1        0.1521
      3 C          -0.5257    1.0472   -0.3394 C.ar    1  LIG1        0.1198
      4 C          -1.0062   -0.1376    0.2082 C.ar    1  LIG1        0.0878
      5 N           0.0577   -0.7652    0.7813 N.ar    1  LIG1       -0.3553
      6 H          -0.0245   -1.5718    1.3784 H       1  LIG1        0.1655
      7 H           2.1605   -0.3373    1.0340 H       1  LIG1        0.0845
      8 O           1.7266    2.0959   -0.4162 O.3     1  LIG1       -0.5040
      9 H           1.2395    2.7725   -0.9045 H       1  LIG1        0.2923
     10 N          -1.6905    2.8469   -1.7610 N.1     1  LIG1       -0.1907
     11 C          -1.2163    2.0128   -1.1108 C.1     1  LIG1        0.1050
     12 C          -2.3347   -0.7030    0.2150 C.ar    1  LIG1        0.1080
     13 C          -3.5642   -0.1041    0.3639 C.ar    1  LIG1        0.1616
     14 C          -4.5565   -1.1278    0.3269 C.ar    1  LIG1        0.1205
     15 C          -3.8912   -2.3441    0.1562 C.ar    1  LIG1        0.0883
     16 N          -2.5650   -2.0705    0.1076 N.ar    1  LIG1       -0.3478
     17 H          -1.8749   -2.7676   -0.1339 H       1  LIG1        0.1661
     18 O          -3.7448    1.2149    0.5621 O.3     1  LIG1       -0.5034
     19 H          -4.6779    1.4437    0.4694 H       1  LIG1        0.2923
     20 N          -7.1016   -0.8264    0.5577 N.1     1  LIG1       -0.1907
     21 C          -5.9525   -0.9516    0.4557 C.1     1  LIG1        0.1050
     22 C          -4.3917   -3.6827    0.0196 C.ar    1  LIG1        0.1081
     23 C          -3.6925   -4.8509   -0.1825 C.ar    1  LIG1        0.1616
     24 C          -4.6264   -5.9180   -0.2632 C.ar    1  LIG1        0.1205
     25 C          -5.8988   -5.3551   -0.1047 C.ar    1  LIG1        0.0882
     26 N          -5.7345   -4.0235    0.0636 N.ar    1  LIG1       -0.3478
     27 H          -6.5084   -3.3818    0.1982 H       1  LIG1        0.1661
     28 O          -2.3391   -4.9053   -0.2757 O.3     1  LIG1       -0.5034
     29 H          -2.0548   -5.8028   -0.4900 H       1  LIG1        0.2923
     30 N          -4.1450   -8.4178   -0.6288 N.1     1  LIG1       -0.1907
     31 C          -4.3443   -7.2863   -0.4641 C.1     1  LIG1        0.1050
     32 C          -7.1997   -5.9620   -0.1003 C.ar    1  LIG1        0.1076
     33 C          -8.4260   -5.3538    0.0629 C.ar    1  LIG1        0.1609
     34 C          -9.4279   -6.3592   -0.0065 C.ar    1  LIG1        0.1110
     35 C          -8.7696   -7.5621   -0.2126 C.ar    1  LIG1        0.0233
     36 N          -7.4455   -7.3150   -0.2666 N.ar    1  LIG1       -0.3554
     37 H          -6.7293   -8.0132   -0.4082 H       1  LIG1        0.1655
     38 H          -9.1731   -8.5563   -0.3204 H       1  LIG1        0.0821
     39 O          -8.5617   -4.0240    0.2522 O.3     1  LIG1       -0.5034
     40 H          -9.4904   -3.7728    0.3401 H       1  LIG1        0.2923
     41 N         -11.9447   -5.8699    0.2274 N.1     1  LIG1       -0.1907
     42 C         -10.8210   -6.1276    0.1175 C.1     1  LIG1        0.1043
@<TRIPOS>BOND
     1    10    11    3
     2    11     3    1
     3     9     8    1
     4    30    31    3
     5    29    28    1
     6    31    24    1
     7     8     2    1
     8    37    36    1
     9     3     2   ar
    10     3     4   ar
    11    38    35    1
    12    28    23    1
    13    36    35   ar
    14    36    32   ar
    15    24    23   ar
    16    24    25   ar
    17    35    34   ar
    18    23    22   ar
    19    17    16    1
    20    25    32    1
    21    25    26   ar
    22    32    33   ar
    23     2     1   ar
    24    34    33   ar
    25    34    42    1
    26    22    26   ar
    27    22    15    1
    28    33    39    1
    29    26    27    1
    30    16    15   ar
    31    16    12   ar
    32    42    41    3
    33    15    14   ar
    34     4    12    1
    35     4     5   ar
    36    12    13   ar
    37    39    40    1
    38    14    13   ar
    39    14    21    1
    40    13    18    1
    41    21    20    3
    42    19    18    1
    43     1     5   ar
    44     1     7    1
    45     5     6    1
