@<TRIPOS>MOLECULE
mol_data/opt/cam/geoms/mol2/13fd13fd-13fd-13fd-.out
 42 45 0 0 0
SMALL
GASTEIGER

@<TRIPOS>ATOM
      1 C           1.3290   -0.0883   -0.3452 C.ar    1  LIG1        0.0455
      2 C           0.8444    1.1899   -0.3791 C.ar    1  LIG1        0.1521
      3 C          -0.5799    1.1105   -0.2779 C.ar    1  LIG1        0.1198
      4 C          -0.9118   -0.2458   -0.1870 C.ar    1  LIG1        0.0878
      5 N           0.2460   -0.9407   -0.2294 N.ar    1  LIG1       -0.3553
      6 H           0.2852   -1.9472   -0.1643 H       1  LIG1        0.1655
      7 H           2.3423   -0.4488   -0.3947 H       1  LIG1        0.0845
      8 O           1.6045    2.3027   -0.4836 O.3     1  LIG1       -0.5040
      9 H           1.0401    3.0839   -0.5200 H       1  LIG1        0.2923
     10 N          -2.3876    2.9349   -0.1862 N.1     1  LIG1       -0.1907
     11 C          -1.5281    2.1541   -0.2334 C.1     1  LIG1        0.1050
     12 C          -2.1983   -0.8714   -0.0575 C.ar    1  LIG1        0.1080
     13 C          -2.5328   -2.1829    0.1690 C.ar    1  LIG1        0.1616
     14 C          -3.9514   -2.2647    0.2740 C.ar    1  LIG1        0.1205
     15 C          -4.4597   -0.9728    0.0856 C.ar    1  LIG1        0.0883
     16 N          -3.3902   -0.1618   -0.1070 N.ar    1  LIG1       -0.3478
     17 H          -3.4377    0.8048   -0.3947 H       1  LIG1        0.1661
     18 O          -1.6178   -3.1748    0.2857 O.3     1  LIG1       -0.5034
     19 H          -2.0528   -4.0168    0.4712 H       1  LIG1        0.2923
     20 N          -5.3156   -4.3782    0.8025 N.1     1  LIG1       -0.1907
     21 C          -4.6933   -3.4255    0.5708 C.1     1  LIG1        0.1050
     22 C          -5.8026   -0.4575    0.0866 C.ar    1  LIG1        0.1081
     23 C          -7.0373   -1.0373   -0.1589 C.ar    1  LIG1        0.1616
     24 C          -8.0113   -0.0008   -0.1180 C.ar    1  LIG1        0.1205
     25 C          -7.3572    1.2016    0.1404 C.ar    1  LIG1        0.0882
     26 N          -6.0383    0.9091    0.2713 N.ar    1  LIG1       -0.3478
     27 H          -5.3213    1.6062    0.4007 H       1  LIG1        0.1661
     28 O          -7.3879   -2.2982   -0.4428 O.3     1  LIG1       -0.5034
     29 H          -6.7486   -2.9532   -0.1267 H       1  LIG1        0.2923
     30 N         -10.5609   -0.1461   -0.4054 N.1     1  LIG1       -0.1907
     31 C          -9.4088   -0.1354   -0.2723 C.1     1  LIG1        0.1050
     32 C          -7.8696    2.5407    0.2820 C.ar    1  LIG1        0.1076
     33 C          -8.9332    3.1948   -0.3239 C.ar    1  LIG1        0.1609
     34 C          -8.8802    4.5605    0.0867 C.ar    1  LIG1        0.1110
     35 C          -7.8007    4.6966    0.9334 C.ar    1  LIG1        0.0233
     36 N          -7.1909    3.4944    1.0367 N.ar    1  LIG1       -0.3554
     37 H          -6.4951    3.2781    1.7324 H       1  LIG1        0.1655
     38 H          -7.4529    5.5639    1.4722 H       1  LIG1        0.0821
     39 O          -9.8339    2.7596   -1.2156 O.3     1  LIG1       -0.5034
     40 H         -10.1104    1.8441   -1.0484 H       1  LIG1        0.2923
     41 N         -10.4941    6.4433   -0.6152 N.1     1  LIG1       -0.1907
     42 C          -9.7735    5.5926   -0.3067 C.1     1  LIG1        0.1043
@<TRIPOS>BOND
     1    39    40    1
     2    39    33    1
     3    41    42    3
     4     9     8    1
     5     8     2    1
     6    28    23    1
     7    28    29    1
     8    30    31    3
     9     7     1    1
    10    17    16    1
    11     2     1   ar
    12     2     3   ar
    13     1     5   ar
    14    33    34   ar
    15    33    32   ar
    16    42    34    1
    17     3    11    1
    18     3     4   ar
    19    31    24    1
    20    11    10    3
    21     5     4   ar
    22     5     6    1
    23     4    12    1
    24    23    24   ar
    25    23    22   ar
    26    24    25   ar
    27    16    12   ar
    28    16    15   ar
    29    12    13   ar
    30    15    22    1
    31    15    14   ar
    32    22    26   ar
    33    34    35   ar
    34    25    26   ar
    35    25    32    1
    36    13    14   ar
    37    13    18    1
    38    26    27    1
    39    14    21    1
    40    32    36   ar
    41    18    19    1
    42    21    20    3
    43    35    36   ar
    44    35    38    1
    45    36    37    1
