@<TRIPOS>MOLECULE
mol_data/opt/cam/geoms/mol2/13fd13fd-13fd.out
 32 34 0 0 0
SMALL
GASTEIGER

@<TRIPOS>ATOM
      1 C           1.2897   -0.2047    0.0016 C.ar    1  LIG1        0.0455
      2 C           0.8795    1.0994    0.0014 C.ar    1  LIG1        0.1521
      3 C          -0.5502    1.1028    0.0013 C.ar    1  LIG1        0.1198
      4 C          -0.9649   -0.2311    0.0015 C.ar    1  LIG1        0.0878
      5 N           0.1546   -0.9926    0.0016 N.ar    1  LIG1       -0.3553
      6 H           0.1291   -2.0015    0.0017 H       1  LIG1        0.1655
      7 H           2.2815   -0.6238    0.0017 H       1  LIG1        0.0845
      8 O           1.6990    2.1755    0.0014 O.3     1  LIG1       -0.5040
      9 H           1.1696    2.9824    0.0012 H       1  LIG1        0.2923
     10 N          -2.0812    3.1707    0.0009 N.1     1  LIG1       -0.1907
     11 C          -1.3861    2.2408    0.0010 C.1     1  LIG1        0.1050
     12 C          -2.2807   -0.8115    0.0015 C.ar    1  LIG1        0.1080
     13 C          -2.6444   -2.1380    0.0017 C.ar    1  LIG1        0.1616
     14 C          -4.0642   -2.2083    0.0016 C.ar    1  LIG1        0.1205
     15 C          -4.5348   -0.8902    0.0014 C.ar    1  LIG1        0.0882
     16 N          -3.4548   -0.0757    0.0013 N.ar    1  LIG1       -0.3478
     17 H          -3.5221    0.9362    0.0012 H       1  LIG1        0.1661
     18 O          -1.7494   -3.1591    0.0020 O.3     1  LIG1       -0.5034
     19 H          -2.2102   -4.0072    0.0013 H       1  LIG1        0.2923
     20 N          -5.5474   -4.3094    0.0017 N.1     1  LIG1       -0.1907
     21 C          -4.8623   -3.3722    0.0017 C.1     1  LIG1        0.1050
     22 C          -5.8741   -0.3716    0.0012 C.ar    1  LIG1        0.1076
     23 C          -6.2830    0.9444    0.0009 C.ar    1  LIG1        0.1609
     24 C          -7.7044    0.9632    0.0009 C.ar    1  LIG1        0.1110
     25 C          -8.1192   -0.3599    0.0012 C.ar    1  LIG1        0.0233
     26 N          -7.0231   -1.1450    0.0014 N.ar    1  LIG1       -0.3554
     27 H          -7.0312   -2.1553    0.0013 H       1  LIG1        0.1655
     28 H          -9.1176   -0.7673    0.0013 H       1  LIG1        0.0821
     29 O          -5.4150    1.9791    0.0007 O.3     1  LIG1       -0.5034
     30 H          -5.8779    2.8269    0.0006 H       1  LIG1        0.2923
     31 N          -9.0936    3.1308    0.0005 N.1     1  LIG1       -0.1907
     32 C          -8.5015    2.1354    0.0007 C.1     1  LIG1        0.1043
@<TRIPOS>BOND
     1    31    32    3
     2    30    29    1
     3    29    23    1
     4    32    24    1
     5    23    24   ar
     6    23    22   ar
     7    24    25   ar
     8    10    11    3
     9    11     3    1
    10    17    16    1
    11     9     8    1
    12    22    15    1
    13    22    26   ar
    14    25    28    1
    15    25    26   ar
    16     3     2   ar
    17     3     4   ar
    18    16    15   ar
    19    16    12   ar
    20    19    18    1
    21    27    26    1
    22     8     2    1
    23    15    14   ar
    24     2     1   ar
    25     4    12    1
    26     4     5   ar
    27    12    13   ar
    28     5     1   ar
    29     5     6    1
    30     1     7    1
    31    14    13   ar
    32    14    21    1
    33    13    18    1
    34    21    20    3
