@<TRIPOS>MOLECULE
mol_data/opt/cam/geoms/mol2/13fd13fd.out
 22 23 0 0 0
SMALL
GASTEIGER

@<TRIPOS>ATOM
      1 C           1.1593   -0.2623   -0.4887 C.ar    1  LIG1        0.0455
      2 C           0.7973    0.9864   -0.0664 C.ar    1  LIG1        0.1521
      3 C          -0.6042    0.9619    0.2140 C.ar    1  LIG1        0.1198
      4 C          -1.0607   -0.3219   -0.0590 C.ar    1  LIG1        0.0878
      5 N           0.0191   -1.0448   -0.4666 N.ar    1  LIG1       -0.3553
      6 H          -0.0464   -1.9615   -0.8781 H       1  LIG1        0.1655
      7 H           2.1185   -0.6490   -0.7889 H       1  LIG1        0.0845
      8 O           1.6324    2.0386    0.0754 O.3     1  LIG1       -0.5040
      9 H           1.1299    2.8016    0.3899 H       1  LIG1        0.2923
     10 N          -1.8282    3.0124    1.1708 N.1     1  LIG1       -0.1907
     11 C          -1.3253    2.0636    0.7355 C.1     1  LIG1        0.1050
     12 C          -2.3860   -0.8916    0.0468 C.ar    1  LIG1        0.1076
     13 C          -3.6127   -0.3850   -0.3151 C.ar    1  LIG1        0.1609
     14 C          -4.5988   -1.3703   -0.0063 C.ar    1  LIG1        0.1110
     15 C          -3.9365   -2.4548    0.5386 C.ar    1  LIG1        0.0233
     16 N          -2.6169   -2.1663    0.5529 N.ar    1  LIG1       -0.3554
     17 H          -1.9146   -2.7201    1.0163 H       1  LIG1        0.1655
     18 H          -4.3290   -3.3866    0.9134 H       1  LIG1        0.0821
     19 O          -3.7992    0.8153   -0.8945 O.3     1  LIG1       -0.5034
     20 H          -4.7437    1.0080   -0.9575 H       1  LIG1        0.2923
     21 N          -7.1101   -1.0456   -0.4732 N.1     1  LIG1       -0.1907
     22 C          -5.9881   -1.2261   -0.2494 C.1     1  LIG1        0.1043
@<TRIPOS>BOND
     1    20    19    1
     2    19    13    1
     3     6     5    1
     4     7     1    1
     5     1     5   ar
     6     1     2   ar
     7    21    22    3
     8     5     4   ar
     9    13    14   ar
    10    13    12   ar
    11    22    14    1
    12     2     8    1
    13     2     3   ar
    14     4    12    1
    15     4     3   ar
    16    14    15   ar
    17    12    16   ar
    18     8     9    1
    19     3    11    1
    20    15    16   ar
    21    15    18    1
    22    16    17    1
    23    11    10    3
