@<TRIPOS>MOLECULE
mol_data/opt/cam/geoms/mol2/13fe13fe-13fe-13fe-.out
 46 49 0 0 0
SMALL
GASTEIGER

@<TRIPOS>ATOM
      1 C           1.3481   -0.1811   -0.3040 C.ar    1  LIG1        0.0454
      2 C           0.8990    1.0884   -0.5420 C.ar    1  LIG1        0.1501
      3 C          -0.5290    1.0749   -0.4733 C.ar    1  LIG1        0.0928
      4 C          -0.9016   -0.2393   -0.1886 C.ar    1  LIG1        0.0857
      5 N           0.2357   -0.9728   -0.0908 N.ar    1  LIG1       -0.3554
      6 H           0.2334   -1.9618    0.1072 H       1  LIG1        0.1655
      7 H           2.3500   -0.5744   -0.2707 H       1  LIG1        0.0845
      8 O           1.6788    2.1674   -0.7972 O.3     1  LIG1       -0.5040
      9 H           1.1017    2.9275   -0.9446 H       1  LIG1        0.2923
     10 C          -1.3725    2.1933   -0.6776 C.1     1  LIG1       -0.0638
     11 C          -2.0659    3.1668   -0.8606 C.1     1  LIG1       -0.1137
     12 H          -2.6642    4.0303   -1.0417 H       1  LIG1        0.1232
     13 C          -2.2015   -0.8263   -0.0140 C.ar    1  LIG1        0.1079
     14 C          -2.5614   -2.1262    0.2410 C.ar    1  LIG1        0.1596
     15 C          -3.9802   -2.1957    0.3318 C.ar    1  LIG1        0.0935
     16 C          -4.4623   -0.9032    0.1101 C.ar    1  LIG1        0.0862
     17 N          -3.3793   -0.0991   -0.0833 N.ar    1  LIG1       -0.3478
     18 H          -3.4058    0.8531   -0.4194 H       1  LIG1        0.1661
     19 O          -1.6719   -3.1426    0.3990 O.3     1  LIG1       -0.5034
     20 H          -2.1581   -3.9603    0.5669 H       1  LIG1        0.2923
     21 C          -4.7204   -3.3618    0.6371 C.1     1  LIG1       -0.0638
     22 C          -5.3282   -4.3778    0.8800 C.1     1  LIG1       -0.1137
     23 H          -5.8711   -5.2607    1.1302 H       1  LIG1        0.1232
     24 C          -5.8092   -0.3950    0.0792 C.ar    1  LIG1        0.1079
     25 C          -7.0037   -0.9699   -0.3137 C.ar    1  LIG1        0.1596
     26 C          -8.0220    0.0236   -0.2301 C.ar    1  LIG1        0.0935
     27 C          -7.4195    1.1993    0.2123 C.ar    1  LIG1        0.0862
     28 N          -6.0970    0.9309    0.3960 N.ar    1  LIG1       -0.3478
     29 H          -5.4162    1.6100    0.6931 H       1  LIG1        0.1661
     30 O          -7.2553   -2.2182   -0.7486 O.3     1  LIG1       -0.5034
     31 H          -6.5554   -2.8258   -0.4642 H       1  LIG1        0.2923
     32 C          -9.3990   -0.1511   -0.5120 C.1     1  LIG1       -0.0638
     33 C         -10.5750   -0.2620   -0.7605 C.1     1  LIG1       -0.1137
     34 H         -11.6161   -0.3908   -0.9488 H       1  LIG1        0.1232
     35 C          -7.9783    2.5017    0.4800 C.ar    1  LIG1        0.1074
     36 C          -8.9937    3.2068   -0.1395 C.ar    1  LIG1        0.1589
     37 C          -9.0538    4.5065    0.4548 C.ar    1  LIG1        0.0840
     38 C          -8.0758    4.5442    1.4251 C.ar    1  LIG1        0.0213
     39 N          -7.4128    3.3566    1.4235 N.ar    1  LIG1       -0.3554
     40 H          -6.8486    3.0352    2.1937 H       1  LIG1        0.1655
     41 H          -7.8269    5.3339    2.1165 H       1  LIG1        0.0820
     42 O          -9.7790    2.8460   -1.1694 O.3     1  LIG1       -0.5035
     43 H          -9.8631    1.8784   -1.2049 H       1  LIG1        0.2923
     44 C          -9.9438    5.5560    0.1031 C.1     1  LIG1       -0.0645
     45 C         -10.6963    6.4487   -0.1898 C.1     1  LIG1       -0.1137
     46 H         -11.3672    7.2323   -0.4553 H       1  LIG1        0.1232
@<TRIPOS>BOND
     1    43    42    1
     2    42    36    1
     3    12    11    1
     4    34    33    1
     5     9     8    1
     6    11    10    3
     7     8     2    1
     8    33    32    3
     9    30    31    1
    10    30    25    1
    11    10     3    1
    12     2     3   ar
    13     2     1   ar
    14    32    26    1
    15     3     4   ar
    16    46    45    1
    17    18    17    1
    18    25    26   ar
    19    25    24   ar
    20     1     7    1
    21     1     5   ar
    22    26    27   ar
    23    45    44    3
    24     4     5   ar
    25     4    13    1
    26    36    37   ar
    27    36    35   ar
    28     5     6    1
    29    17    13   ar
    30    17    16   ar
    31    13    14   ar
    32    24    16    1
    33    24    28   ar
    34    44    37    1
    35    16    15   ar
    36    27    28   ar
    37    27    35    1
    38    14    15   ar
    39    14    19    1
    40    15    21    1
    41    28    29    1
    42    19    20    1
    43    37    38   ar
    44    35    39   ar
    45    21    22    3
    46    22    23    1
    47    39    38   ar
    48    39    40    1
    49    38    41    1
