@<TRIPOS>MOLECULE
mol_data/opt/cam/geoms/mol2/13fe13fe.out
 24 25 0 0 0
SMALL
GASTEIGER

@<TRIPOS>ATOM
      1 C           1.1299   -0.2928    0.5554 C.ar    1  LIG1        0.0454
      2 C           0.7802    0.9836    0.2167 C.ar    1  LIG1        0.1501
      3 C          -0.6179    1.0016   -0.0846 C.ar    1  LIG1        0.0928
      4 C          -1.0864   -0.2927    0.0940 C.ar    1  LIG1        0.0857
      5 N          -0.0162   -1.0623    0.4583 N.ar    1  LIG1       -0.3554
      6 H          -0.1072   -1.9936    0.8288 H       1  LIG1        0.1655
      7 H           2.0819   -0.7100    0.8380 H       1  LIG1        0.0845
      8 O           1.6143    2.0484    0.1498 O.3     1  LIG1       -0.5040
      9 H           1.0884    2.8120   -0.1258 H       1  LIG1        0.2923
     10 C          -1.3042    2.1572   -0.5335 C.1     1  LIG1       -0.0638
     11 C          -1.7986    3.1886   -0.9161 C.1     1  LIG1       -0.1137
     12 H          -2.2710    4.0829   -1.2503 H       1  LIG1        0.1232
     13 C          -2.4076   -0.8605   -0.0719 C.ar    1  LIG1        0.1074
     14 C          -3.6512   -0.4224    0.3181 C.ar    1  LIG1        0.1589
     15 C          -4.6163   -1.3981   -0.0803 C.ar    1  LIG1        0.0840
     16 C          -3.9207   -2.4138   -0.7070 C.ar    1  LIG1        0.0213
     17 N          -2.6032   -2.0949   -0.6836 N.ar    1  LIG1       -0.3554
     18 H          -1.8853   -2.5760   -1.1999 H       1  LIG1        0.1655
     19 H          -4.2841   -3.3216   -1.1619 H       1  LIG1        0.0820
     20 O          -3.9037    0.7178    0.9956 O.3     1  LIG1       -0.5035
     21 H          -4.8586    0.7750    1.1365 H       1  LIG1        0.2923
     22 C          -6.0074   -1.2879    0.1754 C.1     1  LIG1       -0.0645
     23 C          -7.1749   -1.1235    0.4277 C.1     1  LIG1       -0.1137
     24 H          -8.2125   -1.0022    0.6378 H       1  LIG1        0.1232
@<TRIPOS>BOND
     1    12    11    1
     2    18    17    1
     3    19    16    1
     4    11    10    3
     5    16    17   ar
     6    16    15   ar
     7    17    13   ar
     8    10     3    1
     9     9     8    1
    10     3     4   ar
    11     3     2   ar
    12    15    22    1
    13    15    14   ar
    14    13     4    1
    15    13    14   ar
    16     4     5   ar
    17     8     2    1
    18    22    23    3
    19     2     1   ar
    20    14    20    1
    21    23    24    1
    22     5     1   ar
    23     5     6    1
    24     1     7    1
    25    20    21    1
