@<TRIPOS>MOLECULE
mol_data/opt/cam/geoms/mol2/13fe13fd4eh-13il.out
 52 55 0 0 0
SMALL
GASTEIGER

@<TRIPOS>ATOM
      1 C           0.8043    0.1263    1.8208 C.ar    1  LIG1        0.0454
      2 C           0.8785    1.0175    0.7874 C.ar    1  LIG1        0.1501
      3 C          -0.3303    0.9268    0.0292 C.ar    1  LIG1        0.0928
      4 C          -1.1222   -0.0318    0.6456 C.ar    1  LIG1        0.0857
      5 N          -0.4141   -0.5188    1.7097 N.ar    1  LIG1       -0.3554
      6 H          -0.8234   -1.0816    2.4371 H       1  LIG1        0.1655
      7 H           1.5090   -0.1043    2.6020 H       1  LIG1        0.0845
      8 O           1.9255    1.8297    0.5099 O.3     1  LIG1       -0.5040
      9 H           1.6961    2.3432   -0.2769 H       1  LIG1        0.2923
     10 C          -0.5712    1.6702   -1.1531 C.1     1  LIG1       -0.0638
     11 C          -0.6857    2.3371   -2.1512 C.1     1  LIG1       -0.1137
     12 H          -0.8245    2.9181   -3.0334 H       1  LIG1        0.1232
     13 C          -2.4369   -0.5359    0.3087 C.ar    1  LIG1        0.1079
     14 C          -3.6037    0.1067   -0.0348 C.ar    1  LIG1        0.1615
     15 C          -4.6153   -0.8823   -0.2163 C.ar    1  LIG1        0.1190
     16 C          -4.0374   -2.1261    0.0230 C.ar    1  LIG1        0.0694
     17 N          -2.7367   -1.8912    0.3316 N.ar    1  LIG1       -0.3490
     18 H          -2.0654   -2.6185    0.5201 H       1  LIG1        0.1661
     19 O          -3.7469    1.4416   -0.1519 O.3     1  LIG1       -0.5034
     20 H          -4.6546    1.6409   -0.4176 H       1  LIG1        0.2923
     21 N          -6.9641   -0.1834   -0.9961 N.1     1  LIG1       -0.1907
     22 C          -5.9289   -0.5615   -0.6377 C.1     1  LIG1        0.1050
     23 C          -5.7477   -3.9072    0.5343 C.ar    1  LIG1        0.0345
     24 C          -6.1422   -5.2414    0.3998 C.ar    1  LIG1       -0.0348
     25 C          -4.5520   -3.4965   -0.0818 C.ar    1  LIG1        0.0168
     26 C          -5.4093   -6.1813   -0.3178 C.ar    1  LIG1        0.0205
     27 H          -7.0445   -5.5608    0.9065 H       1  LIG1        0.0637
     28 C          -3.8094   -4.4316   -0.8027 C.ar    1  LIG1       -0.0301
     29 C          -4.2145   -5.7566   -0.9414 C.ar    1  LIG1        0.0345
     30 H          -2.9113   -4.1040   -1.3192 H       1  LIG1        0.0643
     31 C          -6.5380   -3.0289    1.3402 C.1     1  LIG1       -0.0690
     32 C          -7.2234   -2.3231    2.0337 C.1     1  LIG1       -0.1139
     33 H          -7.8321   -1.6768    2.6229 H       1  LIG1        0.1232
     34 N          -3.4291   -6.6567   -1.6657 N.pl3   1  LIG1       -0.3574
     35 H          -3.9634   -7.3588   -2.1623 H       1  LIG1        0.1423
     36 H          -2.7526   -6.2124   -2.2712 H       1  LIG1        0.1423
     37 C          -5.8832   -7.5672   -0.4082 C.ar    1  LIG1        0.0548
     38 C          -7.1655   -8.0745   -0.5334 C.ar    1  LIG1        0.0165
     39 C          -7.0352   -9.4914   -0.5292 C.ar    1  LIG1        0.1408
     40 C          -5.7075   -9.8145   -0.4013 C.ar    1  LIG1        0.0446
     41 N          -5.0143   -8.6378   -0.3442 N.ar    1  LIG1       -0.3573
     42 H          -4.0205   -8.5437   -0.2094 H       1  LIG1        0.1655
     43 H          -5.2193  -10.7757   -0.3763 H       1  LIG1        0.0844
     44 C          -8.4524   -7.3337   -0.7162 C.3     1  LIG1       -0.0342
     45 H          -8.9599   -7.1313    0.2341 H       1  LIG1        0.0279
     46 H          -9.1363   -7.9288   -1.3269 H       1  LIG1        0.0279
     47 H          -8.2976   -6.3729   -1.2125 H       1  LIG1        0.0279
     48 O          -8.0567  -10.3855   -0.7000 O.3     1  LIG1       -0.4933
     49 C          -8.8209  -10.6205    0.4707 C.3     1  LIG1        0.0789
     50 H          -9.5933  -11.3440    0.2050 H       1  LIG1        0.0660
     51 H          -8.1983  -11.0322    1.2740 H       1  LIG1        0.0660
     52 H          -9.2995   -9.7033    0.8336 H       1  LIG1        0.0660
@<TRIPOS>BOND
     1    12    11    1
     2    36    34    1
     3    35    34    1
     4    11    10    3
     5    34    29    1
     6    46    44    1
     7    30    28    1
     8    47    44    1
     9    10     3    1
    10    21    22    3
    11    29    28   ar
    12    29    26   ar
    13    28    25   ar
    14    44    38    1
    15    44    45    1
    16    48    39    1
    17    48    49    1
    18    22    15    1
    19    38    39   ar
    20    38    37   ar
    21    39    40   ar
    22    20    19    1
    23    37    41   ar
    24    37    26    1
    25    40    43    1
    26    40    41   ar
    27    41    42    1
    28    26    24   ar
    29     9     8    1
    30    15    14   ar
    31    15    16   ar
    32    19    14    1
    33    25    16    1
    34    25    23   ar
    35    14    13   ar
    36    16    17   ar
    37     3     4   ar
    38     3     2   ar
    39    50    49    1
    40    13    17   ar
    41    13     4    1
    42    17    18    1
    43    24    23   ar
    44    24    27    1
    45    49    52    1
    46    49    51    1
    47     8     2    1
    48    23    31    1
    49     4     5   ar
    50     2     1   ar
    51    31    32    3
    52     5     1   ar
    53     5     6    1
    54     1     7    1
    55    32    33    1
