@<TRIPOS>MOLECULE
mol_data/opt/cam/geoms/mol2/13fe13fe-4fe13fe.out
 48 51 0 0 0
SMALL
GASTEIGER

@<TRIPOS>ATOM
      1 C           1.3724   -0.3157    0.0129 C.ar    1  LIG1        0.0454
      2 C           1.0027    0.9971    0.1073 C.ar    1  LIG1        0.1501
      3 C          -0.4254    1.0594    0.1113 C.ar    1  LIG1        0.0928
      4 C          -0.8824   -0.2552    0.0162 C.ar    1  LIG1        0.0857
      5 N           0.2102   -1.0602   -0.0415 N.ar    1  LIG1       -0.3554
      6 H           0.1431   -2.0644   -0.1114 H       1  LIG1        0.1655
      7 H           2.3488   -0.7687   -0.0187 H       1  LIG1        0.0845
      8 O           1.8458    2.0568    0.1845 O.3     1  LIG1       -0.5040
      9 H           1.3083    2.8573    0.2450 H       1  LIG1        0.2923
     10 C          -1.1792    2.2529    0.2070 C.1     1  LIG1       -0.0638
     11 C          -1.7724    3.3022    0.2919 C.1     1  LIG1       -0.1137
     12 H          -2.2938    4.2268    0.3782 H       1  LIG1        0.1232
     13 C          -2.2118   -0.8027   -0.0234 C.ar    1  LIG1        0.1079
     14 C          -2.6092   -2.1184   -0.0974 C.ar    1  LIG1        0.1595
     15 C          -4.0247   -2.1673   -0.1147 C.ar    1  LIG1        0.0920
     16 C          -4.4754   -0.8389   -0.0492 C.ar    1  LIG1        0.0697
     17 N          -3.3646   -0.0525    0.0039 N.ar    1  LIG1       -0.3490
     18 H          -3.3986    0.9575    0.0347 H       1  LIG1        0.1661
     19 O          -1.7557   -3.1767   -0.1496 O.3     1  LIG1       -0.5034
     20 H          -2.2832   -3.9863   -0.2000 H       1  LIG1        0.2923
     21 C          -4.7190   -3.3993   -0.2028 C.1     1  LIG1       -0.0638
     22 C          -5.1985   -4.5048   -0.2796 C.1     1  LIG1       -0.1137
     23 H          -5.6565   -5.4641   -0.3524 H       1  LIG1        0.1232
     24 C          -6.1281    1.0714   -0.1155 C.ar    1  LIG1        0.1267
     25 C          -7.4286    1.5404   -0.0974 C.ar    1  LIG1       -0.0091
     26 C          -5.8343   -0.3027   -0.0263 C.ar    1  LIG1        0.0422
     27 C          -8.5322    0.6873    0.0122 C.ar    1  LIG1        0.0208
     28 H          -7.5989    2.6081   -0.1711 H       1  LIG1        0.0661
     29 C          -6.9345   -1.1494    0.0894 C.ar    1  LIG1       -0.0330
     30 C          -8.2563   -0.6981    0.1085 C.ar    1  LIG1        0.0347
     31 H          -6.7686   -2.2152    0.1698 H       1  LIG1        0.0638
     32 O          -5.0881    1.9490   -0.2236 O.3     1  LIG1       -0.5061
     33 H          -5.4289    2.8485   -0.2898 H       1  LIG1        0.2922
     34 C          -9.2637   -1.7105    0.2340 C.1     1  LIG1       -0.0690
     35 C         -10.0680   -2.6036    0.3410 C.1     1  LIG1       -0.1139
     36 H         -10.7633   -3.4058    0.4372 H       1  LIG1        0.1232
     37 C          -9.8653    1.2743    0.0214 C.ar    1  LIG1        0.0910
     38 C         -10.2646    2.5993   -0.0616 C.ar    1  LIG1        0.1574
     39 C         -11.6836    2.6569   -0.0104 C.ar    1  LIG1        0.0839
     40 C         -12.1215    1.3488    0.1040 C.ar    1  LIG1        0.0213
     41 N         -11.0412    0.5440    0.1216 N.ar    1  LIG1       -0.3566
     42 H         -11.0549   -0.4629    0.1981 H       1  LIG1        0.1655
     43 H         -13.1255    0.9608    0.1723 H       1  LIG1        0.0820
     44 O          -9.4530    3.6809   -0.1739 O.3     1  LIG1       -0.5035
     45 H         -10.0180    4.4661   -0.2100 H       1  LIG1        0.2923
     46 C         -12.4250    3.8639   -0.0713 C.1     1  LIG1       -0.0645
     47 C         -12.9776    4.9345   -0.1294 C.1     1  LIG1       -0.1137
     48 H         -13.4952    5.8646   -0.1785 H       1  LIG1        0.1232
@<TRIPOS>BOND
     1    23    22    1
     2    33    32    1
     3    22    21    3
     4    32    24    1
     5    45    44    1
     6    21    15    1
     7    20    19    1
     8    48    47    1
     9    44    38    1
    10    28    25    1
    11    19    14    1
    12    47    46    3
    13    24    25   ar
    14    24    26   ar
    15    15    14   ar
    16    15    16   ar
    17     6     5    1
    18    14    13   ar
    19    25    27   ar
    20    46    39    1
    21    38    39   ar
    22    38    37   ar
    23    16    26    1
    24    16    17   ar
    25     5     1   ar
    26     5     4   ar
    27    26    29   ar
    28    13    17   ar
    29    13     4    1
    30     7     1    1
    31    39    40   ar
    32    17    18    1
    33    27    37    1
    34    27    30   ar
    35     1     2   ar
    36     4     3   ar
    37    37    41   ar
    38    29    30   ar
    39    29    31    1
    40    40    41   ar
    41    40    43    1
    42     2     3   ar
    43     2     8    1
    44    30    34    1
    45     3    10    1
    46    41    42    1
    47     8     9    1
    48    10    11    3
    49    34    35    3
    50    11    12    1
    51    35    36    1
