@<TRIPOS>MOLECULE
mol_data/opt/cam/geoms/mol2/13fe13fe13fe13fe-.out
 46 49 0 0 0
SMALL
GASTEIGER

@<TRIPOS>ATOM
      1 C           1.1683   -0.1535    0.0072 C.ar    1  LIG1        0.0454
      2 C           0.7446    1.0747    0.4279 C.ar    1  LIG1        0.1501
      3 C          -0.6862    1.0837    0.4269 C.ar    1  LIG1        0.0928
      4 C          -1.0970   -0.1678   -0.0151 C.ar    1  LIG1        0.0857
      5 N           0.0321   -0.9055   -0.2405 N.ar    1  LIG1       -0.3554
      6 H           0.0259   -1.7809   -0.7367 H       1  LIG1        0.1655
      7 H           2.1613   -0.5510   -0.1181 H       1  LIG1        0.0845
      8 O           1.5359    2.1059    0.8092 O.3     1  LIG1       -0.5040
      9 H           0.9547    2.8342    1.0694 H       1  LIG1        0.2923
     10 C          -1.4532    2.1867    0.8758 C.1     1  LIG1       -0.0638
     11 C          -2.0137    3.1730    1.2857 C.1     1  LIG1       -0.1137
     12 H          -2.5460    4.0274    1.6338 H       1  LIG1        0.1232
     13 C          -2.4118   -0.7321   -0.2103 C.ar    1  LIG1        0.1079
     14 C          -3.5793   -0.2045   -0.7010 C.ar    1  LIG1        0.1596
     15 C          -4.5734   -1.2336   -0.7201 C.ar    1  LIG1        0.0935
     16 C          -3.9776   -2.3834   -0.2233 C.ar    1  LIG1        0.0862
     17 N          -2.6655   -2.0831    0.0436 N.ar    1  LIG1       -0.3478
     18 H          -2.1285   -2.6040    0.7206 H       1  LIG1        0.1661
     19 O          -3.7488    1.0536   -1.1548 O.3     1  LIG1       -0.5034
     20 H          -4.6611    1.1328   -1.4679 H       1  LIG1        0.2923
     21 C          -5.8675   -1.0353   -1.2613 C.1     1  LIG1       -0.0638
     22 C          -6.9345   -0.7626   -1.7529 C.1     1  LIG1       -0.1137
     23 H          -7.8913   -0.5590   -2.1745 H       1  LIG1        0.1232
     24 C          -4.4936   -3.7099    0.0041 C.ar    1  LIG1        0.1079
     25 C          -5.7258   -4.1628    0.4208 C.ar    1  LIG1        0.1596
     26 C          -5.6651   -5.5826    0.5433 C.ar    1  LIG1        0.0935
     27 C          -4.3691   -5.9625    0.1959 C.ar    1  LIG1        0.0862
     28 N          -3.6806   -4.8337   -0.1082 N.ar    1  LIG1       -0.3478
     29 H          -2.7558   -4.8514   -0.5132 H       1  LIG1        0.1661
     30 O          -6.7888   -3.3815    0.7038 O.3     1  LIG1       -0.5034
     31 H          -7.5171   -3.9494    0.9877 H       1  LIG1        0.2923
     32 C          -6.7338   -6.4117    0.9619 C.1     1  LIG1       -0.0638
     33 C          -7.6668   -7.0896    1.3224 C.1     1  LIG1       -0.1137
     34 H          -8.4945   -7.6800    1.6422 H       1  LIG1        0.1232
     35 C          -3.7559   -7.2586    0.1090 C.ar    1  LIG1        0.1074
     36 C          -2.4767   -7.6004   -0.2672 C.ar    1  LIG1        0.1589
     37 C          -2.3469   -9.0147   -0.2020 C.ar    1  LIG1        0.0840
     38 C          -3.5753   -9.4964    0.2207 C.ar    1  LIG1        0.0213
     39 N          -4.4053   -8.4426    0.4027 N.ar    1  LIG1       -0.3554
     40 H          -5.3667   -8.4847    0.7073 H       1  LIG1        0.1655
     41 H          -3.8922  -10.5118    0.3969 H       1  LIG1        0.0820
     42 O          -1.5231   -6.7024   -0.6367 O.3     1  LIG1       -0.5035
     43 H          -0.7270   -7.1926   -0.8846 H       1  LIG1        0.2923
     44 C          -1.1595   -9.7203   -0.5248 C.1     1  LIG1       -0.0645
     45 C          -0.1154  -10.2476   -0.8170 C.1     1  LIG1       -0.1137
     46 H           0.7951  -10.7411   -1.0685 H       1  LIG1        0.1232
@<TRIPOS>BOND
     1    23    22    1
     2    22    21    3
     3    20    19    1
     4    21    15    1
     5    19    14    1
     6    46    45    1
     7    43    42    1
     8    45    44    3
     9     6     5    1
    10    15    14   ar
    11    15    16   ar
    12    14    13   ar
    13    42    36    1
    14    44    37    1
    15    29    28    1
    16    36    37   ar
    17    36    35   ar
    18     5     4   ar
    19     5     1   ar
    20    16    24    1
    21    16    17   ar
    22    13     4    1
    23    13    17   ar
    24    37    38   ar
    25     7     1    1
    26    28    24   ar
    27    28    27   ar
    28     4     3   ar
    29    24    25   ar
    30     1     2   ar
    31    17    18    1
    32    35    27    1
    33    35    39   ar
    34    27    26   ar
    35    38    41    1
    36    38    39   ar
    37    39    40    1
    38    25    26   ar
    39    25    30    1
    40     3     2   ar
    41     3    10    1
    42     2     8    1
    43    26    32    1
    44    30    31    1
    45     8     9    1
    46    10    11    3
    47    32    33    3
    48    11    12    1
    49    33    34    1
