@<TRIPOS>MOLECULE
mol_data/opt/cam/geoms/mol2/13fe13fe-.out
 24 25 0 0 0
SMALL
GASTEIGER

@<TRIPOS>ATOM
      1 C           1.2151   -0.2479   -0.0373 C.ar    1  LIG1        0.0454
      2 C           0.8239    1.0621   -0.0355 C.ar    1  LIG1        0.1501
      3 C          -0.6054    1.0996   -0.0189 C.ar    1  LIG1        0.0928
      4 C          -1.0386   -0.2260   -0.0111 C.ar    1  LIG1        0.0857
      5 N           0.0653   -1.0146   -0.0223 N.ar    1  LIG1       -0.3554
      6 H           0.0153   -2.0223   -0.0197 H       1  LIG1        0.1655
      7 H           2.1990   -0.6853   -0.0478 H       1  LIG1        0.0845
      8 O           1.6517    2.1362   -0.0474 O.3     1  LIG1       -0.5040
      9 H           1.1063    2.9332   -0.0431 H       1  LIG1        0.2923
     10 C          -1.3943    2.2748   -0.0123 C.1     1  LIG1       -0.0638
     11 C          -2.0374    3.2983   -0.0070 C.1     1  LIG1       -0.1137
     12 H          -2.5973    4.2049   -0.0024 H       1  LIG1        0.1232
     13 C          -2.3640   -0.7866    0.0055 C.ar    1  LIG1        0.1074
     14 C          -2.7627   -2.1030    0.0128 C.ar    1  LIG1        0.1589
     15 C          -4.1846   -2.1468    0.0295 C.ar    1  LIG1        0.0840
     16 C          -4.6122   -0.8291    0.0318 C.ar    1  LIG1        0.0213
     17 N          -3.5195   -0.0294    0.0175 N.ar    1  LIG1       -0.3554
     18 H          -3.5169    0.9800    0.0152 H       1  LIG1        0.1655
     19 H          -5.6139   -0.4303    0.0427 H       1  LIG1        0.0820
     20 O          -1.9057   -3.1607    0.0050 O.3     1  LIG1       -0.5035
     21 H          -2.4280   -3.9743    0.0129 H       1  LIG1        0.2923
     22 C          -4.9446   -3.3444    0.0408 C.1     1  LIG1       -0.0645
     23 C          -5.5204   -4.4039    0.0497 C.1     1  LIG1       -0.1137
     24 H          -6.0553   -5.3253    0.0578 H       1  LIG1        0.1232
@<TRIPOS>BOND
     1     7     1    1
     2     8     9    1
     3     8     2    1
     4     1     2   ar
     5     1     5   ar
     6     2     3   ar
     7     5     6    1
     8     5     4   ar
     9     3    10    1
    10     3     4   ar
    11    10    11    3
    12     4    13    1
    13    11    12    1
    14    20    14    1
    15    20    21    1
    16    13    14   ar
    17    13    17   ar
    18    14    15   ar
    19    18    17    1
    20    17    16   ar
    21    15    16   ar
    22    15    22    1
    23    16    19    1
    24    22    23    3
    25    23    24    1
