@<TRIPOS>MOLECULE
mol_data/opt/cam/geoms/mol2/13fe13fe-13fe.out
 35 37 0 0 0
SMALL
GASTEIGER

@<TRIPOS>ATOM
      1 C           1.2774   -0.2445    0.0007 C.ar    1  LIG1        0.0454
      2 C           0.8767    1.0626    0.0036 C.ar    1  LIG1        0.1501
      3 C          -0.5523    1.0912    0.0038 C.ar    1  LIG1        0.0928
      4 C          -0.9780   -0.2369    0.0009 C.ar    1  LIG1        0.0857
      5 N           0.1328   -1.0188   -0.0009 N.ar    1  LIG1       -0.3554
      6 H           0.0907   -2.0265   -0.0031 H       1  LIG1        0.1655
      7 H           2.2642   -0.6754   -0.0003 H       1  LIG1        0.0845
      8 O           1.6950    2.1445    0.0060 O.3     1  LIG1       -0.5040
      9 H           1.1393    2.9348    0.0076 H       1  LIG1        0.2923
     10 C          -1.3430    2.2648    0.0064 C.1     1  LIG1       -0.0638
     11 C          -1.9824    3.2899    0.0087 C.1     1  LIG1       -0.1137
     12 H          -2.5530    4.1893    0.0109 H       1  LIG1        0.1232
     13 C          -2.2977   -0.8081   -0.0002 C.ar    1  LIG1        0.1079
     14 C          -2.6774   -2.1298   -0.0031 C.ar    1  LIG1        0.1596
     15 C          -4.0969   -2.1975   -0.0031 C.ar    1  LIG1        0.0935
     16 C          -4.5528   -0.8756   -0.0002 C.ar    1  LIG1        0.0862
     17 N          -3.4649   -0.0647    0.0015 N.ar    1  LIG1       -0.3478
     18 H          -3.5083    0.9468    0.0038 H       1  LIG1        0.1661
     19 O          -1.8028   -3.1737   -0.0055 O.3     1  LIG1       -0.5034
     20 H          -2.3059   -3.9983   -0.0072 H       1  LIG1        0.2923
     21 C          -4.8574   -3.3912   -0.0057 C.1     1  LIG1       -0.0638
     22 C          -5.4722   -4.4317   -0.0079 C.1     1  LIG1       -0.1137
     23 H          -6.0096   -5.3521   -0.0100 H       1  LIG1        0.1232
     24 C          -5.8907   -0.3513    0.0011 C.ar    1  LIG1        0.1074
     25 C          -6.3286    0.9539    0.0041 C.ar    1  LIG1        0.1589
     26 C          -7.7511    0.9548    0.0042 C.ar    1  LIG1        0.0840
     27 C          -8.1395   -0.3750    0.0013 C.ar    1  LIG1        0.0213
     28 N          -7.0250   -1.1427   -0.0006 N.ar    1  LIG1       -0.3554
     29 H          -6.9958   -2.1513   -0.0028 H       1  LIG1        0.1655
     30 H          -9.1294   -0.8026    0.0004 H       1  LIG1        0.0820
     31 O          -5.5062    2.0345    0.0064 O.3     1  LIG1       -0.5035
     32 H          -6.0523    2.8323    0.0085 H       1  LIG1        0.2923
     33 C          -8.5469    2.1289    0.0070 C.1     1  LIG1       -0.0645
     34 C          -9.1555    3.1698    0.0094 C.1     1  LIG1       -0.1137
     35 H          -9.7187    4.0743    0.0116 H       1  LIG1        0.1232
@<TRIPOS>BOND
     1    23    22    1
     2    22    21    3
     3    20    19    1
     4    21    15    1
     5    19    14    1
     6    15    14   ar
     7    15    16   ar
     8    14    13   ar
     9     6     5    1
    10    29    28    1
    11     5     1   ar
    12     5     4   ar
    13    28    24   ar
    14    28    27   ar
    15     7     1    1
    16    13     4    1
    17    13    17   ar
    18    16    24    1
    19    16    17   ar
    20    30    27    1
    21     1     2   ar
    22     4     3   ar
    23    24    25   ar
    24    27    26   ar
    25    17    18    1
    26     2     3   ar
    27     2     8    1
    28     3    10    1
    29    25    26   ar
    30    25    31    1
    31    26    33    1
    32     8     9    1
    33    31    32    1
    34    10    11    3
    35    33    34    3
    36    11    12    1
    37    34    35    1
