@<TRIPOS>MOLECULE
mol_data/opt/cam/geoms/mol2/13fe4ai4fl12ah6ha13ih-13df-4fl-.out
 99 106 0 0 0
SMALL
GASTEIGER

@<TRIPOS>ATOM
      1 C           1.2883    0.8647    0.3654 C.ar    1  LIG1        0.0454
      2 C           0.8639    1.9125   -0.4035 C.ar    1  LIG1        0.1500
      3 C          -0.5183    1.7128   -0.7040 C.ar    1  LIG1        0.0912
      4 C          -0.9034    0.5227   -0.0897 C.ar    1  LIG1        0.0657
      5 N           0.1972    0.0410    0.5530 N.ar    1  LIG1       -0.3566
      6 H           0.2340   -0.8635    0.9918 H       1  LIG1        0.1655
      7 H           2.2563    0.6453    0.7835 H       1  LIG1        0.0845
      8 O           1.6183    2.9638   -0.8028 O.3     1  LIG1       -0.5040
      9 H           1.0524    3.5473   -1.3269 H       1  LIG1        0.2923
     10 C          -1.2808    2.6420   -1.4551 C.1     1  LIG1       -0.0639
     11 C          -1.8426    3.4870   -2.1087 C.1     1  LIG1       -0.1137
     12 H          -2.3682    4.2217   -2.6735 H       1  LIG1        0.1232
     13 C          -3.1204   -0.0299   -1.0809 C.ar    1  LIG1       -0.0520
     14 C          -4.3244   -0.7081   -1.0241 C.ar    1  LIG1       -0.0530
     15 C          -2.1894   -0.1727   -0.0488 C.ar    1  LIG1       -0.0001
     16 C          -4.6409   -1.5594    0.0379 C.ar    1  LIG1       -0.0113
     17 H          -5.0427   -0.5868   -1.8273 H       1  LIG1        0.0624
     18 C          -2.5199   -1.0000    1.0273 C.ar    1  LIG1       -0.0491
     19 C          -3.7216   -1.7011    1.0907 C.ar    1  LIG1       -0.0420
     20 H          -1.8390   -1.0739    1.8712 H       1  LIG1        0.0627
     21 H          -2.8947    0.6082   -1.9266 H       1  LIG1        0.0624
     22 C          -4.0063   -2.5542    2.3018 C.3     1  LIG1       -0.0391
     23 H          -3.3965   -2.2320    3.1489 H       1  LIG1        0.0278
     24 H          -3.7789   -3.6098    2.1208 H       1  LIG1        0.0278
     25 H          -5.0561   -2.4984    2.5963 H       1  LIG1        0.0278
     26 C          -7.1621   -1.6208   -0.0730 C.ar    1  LIG1        0.1254
     27 C          -8.3535   -2.3273   -0.1172 C.ar    1  LIG1       -0.0054
     28 C          -5.9335   -2.2955    0.0158 C.ar    1  LIG1        0.0273
     29 C          -8.3905   -3.7270   -0.0796 C.ar    1  LIG1        0.0624
     30 H          -9.2888   -1.7768   -0.1670 H       1  LIG1        0.0662
     31 C          -5.9767   -3.6851    0.0551 C.ar    1  LIG1       -0.0080
     32 C          -7.1654   -4.4032    0.0140 C.ar    1  LIG1        0.1315
     33 H          -5.0510   -4.2491    0.0911 H       1  LIG1        0.0661
     34 O          -7.1373   -0.2598   -0.1037 O.3     1  LIG1       -0.5061
     35 H          -8.0403    0.0755   -0.1448 H       1  LIG1        0.2922
     36 O          -7.0917   -5.7806    0.0271 O.3     1  LIG1       -0.4944
     37 C          -7.0209   -6.3365    1.3347 C.3     1  LIG1        0.0788
     38 H          -6.9493   -7.4180    1.2134 H       1  LIG1        0.0660
     39 H          -6.1375   -5.9698    1.8697 H       1  LIG1        0.0660
     40 H          -7.9210   -6.1006    1.9108 H       1  LIG1        0.0660
     41 C          -9.6793   -4.3995   -0.1836 C.ar    1  LIG1        0.1411
     42 C         -10.9218   -3.9596   -0.5422 C.ar    1  LIG1        0.0057
     43 C         -11.7918   -5.0886   -0.5032 C.ar    1  LIG1        0.0717
     44 C         -11.0246   -6.1558   -0.1123 C.ar    1  LIG1        0.1595
     45 O          -9.7388   -5.7238    0.0900 O.2     1  LIG1       -0.4527
     46 H         -11.1931   -2.9564   -0.8363 H       1  LIG1        0.0674
     47 N         -13.1582   -5.0843   -0.7885 N.pl3   1  LIG1       -0.3550
     48 H         -13.4225   -4.3573   -1.4396 H       1  LIG1        0.1424
     49 H         -13.4967   -5.9820   -1.1120 H       1  LIG1        0.1424
     50 C         -10.3551   -8.5848   -0.2436 C.ar    1  LIG1        0.1277
     51 C         -11.3042   -7.5681    0.0739 C.ar    1  LIG1        0.0586
     52 C         -12.5468   -7.9967    0.5257 C.ar    1  LIG1       -0.0456
     53 C         -12.8455   -9.3472    0.6453 C.ar    1  LIG1       -0.0334
     54 C         -11.8514  -10.2671    0.3220 C.ar    1  LIG1        0.0896
     55 N         -10.6375   -9.8790   -0.1094 N.ar    1  LIG1       -0.2302
     56 H         -13.2897   -7.2534    0.7993 H       1  LIG1        0.0626
     57 N          -9.1191   -8.2902   -0.7364 N.pl3   1  LIG1       -0.3426
     58 H          -8.5008   -9.0732   -0.8661 H       1  LIG1        0.1437
     59 H          -8.7264   -7.3631   -0.6704 H       1  LIG1        0.1437
     60 H         -13.8226   -9.6674    0.9752 H       1  LIG1        0.0640
     61 C         -12.0356  -11.7146    0.3981 C.ar    1  LIG1        0.0702
     62 C         -13.0717  -12.5350    0.8295 C.ar    1  LIG1       -0.0024
     63 C         -12.6822  -13.8754    0.5543 C.ar    1  LIG1        0.0553
     64 C         -11.4127  -13.8372   -0.0211 C.ar    1  LIG1        0.0859
     65 N         -11.0383  -12.5097   -0.0756 N.ar    1  LIG1       -0.3501
     66 H         -10.2634  -12.1111   -0.5836 H       1  LIG1        0.1661
     67 C         -14.3443  -12.1514    1.5200 C.3     1  LIG1       -0.0359
     68 H         -14.7583  -13.0049    2.0633 H       1  LIG1        0.0279
     69 H         -15.1160  -11.7975    0.8262 H       1  LIG1        0.0279
     70 H         -14.1798  -11.3648    2.2604 H       1  LIG1        0.0279
     71 N         -13.4156  -14.9970    0.9285 N.pl3   1  LIG1       -0.3561
     72 H         -14.4096  -14.8209    0.9646 H       1  LIG1        0.1424
     73 H         -13.2406  -15.8281    0.3790 H       1  LIG1        0.1424
     74 C         -10.4747  -14.8618   -0.4002 C.ar    1  LIG1        0.0864
     75 C         -10.6327  -16.1536   -0.9003 C.ar    1  LIG1        0.1204
     76 C          -9.3326  -16.7215   -1.0600 C.ar    1  LIG1        0.1602
     77 C          -8.4021  -15.7747   -0.6775 C.ar    1  LIG1        0.0939
     78 N          -9.1337  -14.6444   -0.3025 N.ar    1  LIG1       -0.3489
     79 H          -8.7517  -13.9129    0.2764 H       1  LIG1        0.1661
     80 N         -12.8816  -17.2506   -1.4966 N.1     1  LIG1       -0.1907
     81 C         -11.8543  -16.7729   -1.2476 C.1     1  LIG1        0.1050
     82 O          -9.1532  -17.9461   -1.5775 O.3     1  LIG1       -0.5034
     83 H          -8.2661  -18.2509   -1.3150 H       1  LIG1        0.2923
     84 C          -6.1395  -16.8741   -0.5611 C.ar    1  LIG1        0.1263
     85 C          -4.7615  -16.7809   -0.5802 C.ar    1  LIG1       -0.0161
     86 C          -6.9448  -15.7294   -0.7055 C.ar    1  LIG1        0.0468
     87 C          -4.1214  -15.5515   -0.7224 C.ar    1  LIG1       -0.0165
     88 H          -4.1643  -17.6824   -0.4676 H       1  LIG1        0.0655
     89 C          -6.2868  -14.5080   -0.8572 C.ar    1  LIG1       -0.0072
     90 C          -4.8972  -14.4064   -0.8587 C.ar    1  LIG1        0.1209
     91 H          -6.8548  -13.5983   -1.0132 H       1  LIG1        0.0662
     92 H          -3.0406  -15.5111   -0.7274 H       1  LIG1        0.0655
     93 O          -6.7711  -18.0879   -0.3813 O.3     1  LIG1       -0.5061
     94 H          -6.1153  -18.7839   -0.2596 H       1  LIG1        0.2922
     95 O          -4.4009  -13.1477   -1.0126 O.3     1  LIG1       -0.4951
     96 C          -2.9998  -12.9931   -1.0605 C.3     1  LIG1        0.0788
     97 H          -2.8146  -11.9282   -1.1996 H       1  LIG1        0.0660
     98 H          -2.5242  -13.3212   -0.1285 H       1  LIG1        0.0660
     99 H          -2.5607  -13.5461   -1.8993 H       1  LIG1        0.0660
@<TRIPOS>BOND
     1    12    11    1
     2    11    10    3
     3    21    13    1
     4    99    96    1
     5    17    14    1
     6    82    83    1
     7    82    76    1
     8    80    81    3
     9    10     3    1
    10    48    47    1
    11     9     8    1
    12    81    75    1
    13    97    96    1
    14    49    47    1
    15    13    14   ar
    16    13    15   ar
    17    96    95    1
    18    96    98    1
    19    76    75   ar
    20    76    77   ar
    21    14    16   ar
    22    91    89    1
    23    95    90    1
    24    75    74   ar
    25    58    57    1
    26    90    89   ar
    27    90    87   ar
    28    89    86   ar
    29    46    42    1
    30     8     2    1
    31    47    43    1
    32    57    59    1
    33    57    50    1
    34    92    87    1
    35    87    85   ar
    36    86    77    1
    37    86    84   ar
    38     3     2   ar
    39     3     4   ar
    40    77    78   ar
    41    66    65    1
    42    85    84   ar
    43    85    88    1
    44    84    93    1
    45    42    43   ar
    46    42    41   ar
    47    43    44   ar
    48     2     1   ar
    49    74    78   ar
    50    74    64    1
    51    93    94    1
    52    78    79    1
    53    50    55   ar
    54    50    51   ar
    55    41    29    1
    56    41    45   ar
    57    30    27    1
    58    35    34    1
    59    27    29   ar
    60    27    26   ar
    61    44    51    1
    62    44    45   ar
    63    55    54   ar
    64    34    26    1
    65     4    15    1
    66     4     5   ar
    67    29    32   ar
    68    65    64   ar
    69    65    61   ar
    70    26    28   ar
    71    15    18   ar
    72    64    63   ar
    73    32    36    1
    74    32    31   ar
    75    28    16    1
    76    28    31   ar
    77    36    37    1
    78    16    19   ar
    79    31    33    1
    80    51    52   ar
    81    54    61    1
    82    54    53   ar
    83     1     5   ar
    84     1     7    1
    85    73    71    1
    86    61    62   ar
    87    52    53   ar
    88    52    56    1
    89     5     6    1
    90    63    62   ar
    91    63    71    1
    92    53    60    1
    93    69    67    1
    94    62    67    1
    95    71    72    1
    96    18    19   ar
    97    18    20    1
    98    19    22    1
    99    38    37    1
   100    37    39    1
   101    37    40    1
   102    67    68    1
   103    67    70    1
   104    24    22    1
   105    22    25    1
   106    22    23    1
