@<TRIPOS>MOLECULE
mol_data/opt/cam/geoms/mol2/13fe13fe13fe.out
 35 37 0 0 0
SMALL
GASTEIGER

@<TRIPOS>ATOM
      1 C           1.0140   -0.1218   -1.1983 C.ar    1  LIG1        0.0454
      2 C           0.8051    0.9879   -0.4295 C.ar    1  LIG1        0.1501
      3 C          -0.5398    0.9514    0.0560 C.ar    1  LIG1        0.0928
      4 C          -1.1226   -0.2010   -0.4528 C.ar    1  LIG1        0.0857
      5 N          -0.1652   -0.8466   -1.1869 N.ar    1  LIG1       -0.3554
      6 H          -0.3737   -1.5947   -1.8273 H       1  LIG1        0.1655
      7 H           1.8898   -0.4546   -1.7297 H       1  LIG1        0.0845
      8 O           1.7187    1.9473   -0.1481 O.3     1  LIG1       -0.5040
      9 H           1.2878    2.6001    0.4209 H       1  LIG1        0.2923
     10 C          -1.0773    1.9211    0.9385 C.1     1  LIG1       -0.0638
     11 C          -1.4423    2.7887    1.6926 C.1     1  LIG1       -0.1137
     12 H          -1.8033    3.5428    2.3526 H       1  LIG1        0.1232
     13 C          -2.4520   -0.7485   -0.2882 C.ar    1  LIG1        0.1079
     14 C          -3.6986   -0.1721   -0.3616 C.ar    1  LIG1        0.1596
     15 C          -4.6803   -1.1839   -0.1469 C.ar    1  LIG1        0.0935
     16 C          -3.9991   -2.3803    0.0457 C.ar    1  LIG1        0.0862
     17 N          -2.6667   -2.1003   -0.0422 N.ar    1  LIG1       -0.3478
     18 H          -1.9320   -2.7825    0.0473 H       1  LIG1        0.1661
     19 O          -3.9458    1.1315   -0.6084 O.3     1  LIG1       -0.5034
     20 H          -4.9049    1.2568   -0.5939 H       1  LIG1        0.2923
     21 C          -6.0735   -0.9259   -0.1180 C.1     1  LIG1       -0.0638
     22 C          -7.2372   -0.6107   -0.1022 C.1     1  LIG1       -0.1137
     23 H          -8.2745   -0.3684   -0.0881 H       1  LIG1        0.1232
     24 C          -4.4838   -3.7133    0.3334 C.ar    1  LIG1        0.1074
     25 C          -5.4898   -4.4616   -0.2312 C.ar    1  LIG1        0.1589
     26 C          -5.5210   -5.7344    0.4174 C.ar    1  LIG1        0.0840
     27 C          -4.5195   -5.7210    1.3685 C.ar    1  LIG1        0.0213
     28 N          -3.8922   -4.5208    1.3010 N.ar    1  LIG1       -0.3554
     29 H          -3.2389   -4.1781    1.9862 H       1  LIG1        0.1655
     30 H          -4.2299   -6.4807    2.0770 H       1  LIG1        0.0820
     31 O          -6.2802   -4.0674   -1.2517 O.3     1  LIG1       -0.5035
     32 H          -6.8994   -4.7849   -1.4434 H       1  LIG1        0.2923
     33 C          -6.4237   -6.7749    0.0783 C.1     1  LIG1       -0.0645
     34 C          -7.2226   -7.6101   -0.2653 C.1     1  LIG1       -0.1137
     35 H          -7.9188   -8.3653   -0.5489 H       1  LIG1        0.1232
@<TRIPOS>BOND
     1     6     5    1
     2     7     1    1
     3    32    31    1
     4    31    25    1
     5     1     5   ar
     6     1     2   ar
     7     5     4   ar
     8    19    20    1
     9    19    14    1
    10    35    34    1
    11     4    13    1
    12     4     3   ar
    13     2     8    1
    14     2     3   ar
    15    14    13   ar
    16    14    15   ar
    17    13    17   ar
    18    34    33    3
    19    25    24   ar
    20    25    26   ar
    21     8     9    1
    22    15    21    1
    23    15    16   ar
    24    21    22    3
    25    22    23    1
    26    17    16   ar
    27    17    18    1
    28    16    24    1
    29     3    10    1
    30    33    26    1
    31    24    28   ar
    32    26    27   ar
    33    10    11    3
    34    28    27   ar
    35    28    29    1
    36    27    30    1
    37    11    12    1
