@<TRIPOS>MOLECULE
mol_data/opt/cam/geoms/mol2/13fe13fe13fe-13fe.out
 46 49 0 0 0
SMALL
GASTEIGER

@<TRIPOS>ATOM
      1 C           1.1603   -0.0731    0.8022 C.ar    1  LIG1        0.0454
      2 C           0.8681    1.0703    0.1148 C.ar    1  LIG1        0.1501
      3 C          -0.5250    1.0575   -0.2103 C.ar    1  LIG1        0.0928
      4 C          -1.0504   -0.1185    0.3110 C.ar    1  LIG1        0.0857
      5 N          -0.0174   -0.7942    0.8985 N.ar    1  LIG1       -0.3554
      6 H          -0.1492   -1.5899    1.5006 H       1  LIG1        0.1655
      7 H           2.0907   -0.4319    1.2091 H       1  LIG1        0.0845
      8 O           1.7459    2.0436   -0.2282 O.3     1  LIG1       -0.5040
      9 H           1.2539    2.7137   -0.7230 H       1  LIG1        0.2923
     10 C          -1.1473    2.0675   -0.9846 C.1     1  LIG1       -0.0638
     11 C          -1.5777    2.9720   -1.6568 C.1     1  LIG1       -0.1137
     12 H          -1.9969    3.7556   -2.2439 H       1  LIG1        0.1232
     13 C          -2.3873   -0.6654    0.2856 C.ar    1  LIG1        0.1079
     14 C          -3.6237   -0.0810    0.4355 C.ar    1  LIG1        0.1596
     15 C          -4.6160   -1.1047    0.3840 C.ar    1  LIG1        0.0935
     16 C          -3.9417   -2.3120    0.2049 C.ar    1  LIG1        0.0862
     17 N          -2.6124   -2.0332    0.1636 N.ar    1  LIG1       -0.3478
     18 H          -1.9195   -2.7203   -0.0955 H       1  LIG1        0.1661
     19 O          -3.8479    1.2351    0.6395 O.3     1  LIG1       -0.5034
     20 H          -4.8020    1.3694    0.7120 H       1  LIG1        0.2923
     21 C          -6.0090   -0.8917    0.5166 C.1     1  LIG1       -0.0638
     22 C          -7.1905   -0.6699    0.6337 C.1     1  LIG1       -0.1137
     23 H          -8.2338   -0.4810    0.7368 H       1  LIG1        0.1232
     24 C          -4.4285   -3.6540    0.0522 C.ar    1  LIG1        0.1079
     25 C          -3.7242   -4.8180   -0.1540 C.ar    1  LIG1        0.1596
     26 C          -4.6432   -5.8961   -0.2548 C.ar    1  LIG1        0.0935
     27 C          -5.9179   -5.3408   -0.1019 C.ar    1  LIG1        0.0862
     28 N          -5.7671   -4.0051    0.0805 N.ar    1  LIG1       -0.3478
     29 H          -6.5348   -3.3589    0.2150 H       1  LIG1        0.1661
     30 O          -2.3670   -4.8806   -0.2419 O.3     1  LIG1       -0.5034
     31 H          -2.1117   -5.7910   -0.4401 H       1  LIG1        0.2923
     32 C          -4.2924   -7.2505   -0.4703 C.1     1  LIG1       -0.0638
     33 C          -3.9535   -8.3953   -0.6566 C.1     1  LIG1       -0.1137
     34 H          -3.6495   -9.4037   -0.8201 H       1  LIG1        0.1232
     35 C          -7.2129   -5.9625   -0.1155 C.ar    1  LIG1        0.1074
     36 C          -8.4621   -5.4039    0.0374 C.ar    1  LIG1        0.1589
     37 C          -9.4349   -6.4373   -0.0541 C.ar    1  LIG1        0.0840
     38 C          -8.7327   -7.6130   -0.2637 C.ar    1  LIG1        0.0213
     39 N          -7.4123   -7.3189   -0.2983 N.ar    1  LIG1       -0.3554
     40 H          -6.6589   -7.9759   -0.4367 H       1  LIG1        0.1655
     41 H          -9.0984   -8.6199   -0.3870 H       1  LIG1        0.0820
     42 O          -8.6861   -4.0803    0.2407 O.3     1  LIG1       -0.5035
     43 H          -9.6401   -3.9412    0.3145 H       1  LIG1        0.2923
     44 C         -10.8331   -6.2265    0.0578 C.1     1  LIG1       -0.0645
     45 C         -12.0062   -5.9689    0.1633 C.1     1  LIG1       -0.1137
     46 H         -13.0493   -5.7701    0.2526 H       1  LIG1        0.1232
@<TRIPOS>BOND
     1    12    11    1
     2    11    10    3
     3    10     3    1
     4    34    33    1
     5     9     8    1
     6    33    32    3
     7    32    26    1
     8    31    30    1
     9    40    39    1
    10    41    38    1
    11    39    38   ar
    12    39    35   ar
    13    38    37   ar
    14    26    25   ar
    15    26    27   ar
    16    30    25    1
    17     8     2    1
    18     3     2   ar
    19     3     4   ar
    20    25    24   ar
    21    35    27    1
    22    35    36   ar
    23    27    28   ar
    24    18    17    1
    25    37    36   ar
    26    37    44    1
    27    36    42    1
    28    24    28   ar
    29    24    16    1
    30    44    45    3
    31    28    29    1
    32     2     1   ar
    33    45    46    1
    34    17    16   ar
    35    17    13   ar
    36    16    15   ar
    37    42    43    1
    38    13     4    1
    39    13    14   ar
    40     4     5   ar
    41    15    14   ar
    42    15    21    1
    43    14    19    1
    44    21    22    3
    45    22    23    1
    46    19    20    1
    47     1     5   ar
    48     1     7    1
    49     5     6    1
