@<TRIPOS>MOLECULE
mol_data/opt/cam/geoms/mol2/13fe13fe13fe13fe.out
 46 49 0 0 0
SMALL
GASTEIGER

@<TRIPOS>ATOM
      1 C           0.5780    0.2700   -2.0942 C.ar    1  LIG1        0.0454
      2 C           0.6784    1.0821   -1.0003 C.ar    1  LIG1        0.1501
      3 C          -0.4736    0.8735   -0.1787 C.ar    1  LIG1        0.0928
      4 C          -1.2612   -0.0735   -0.8187 C.ar    1  LIG1        0.0857
      5 N          -0.6012   -0.4421   -1.9592 N.ar    1  LIG1       -0.3554
      6 H          -1.0363   -0.9593   -2.7052 H       1  LIG1        0.1655
      7 H           1.2404    0.1341   -2.9325 H       1  LIG1        0.0845
      8 O           1.7037    1.9221   -0.7218 O.3     1  LIG1       -0.5040
      9 H           1.5007    2.3598    0.1165 H       1  LIG1        0.2923
     10 C          -0.6662    1.5119    1.0717 C.1     1  LIG1       -0.0638
     11 C          -0.7379    2.0960    2.1245 C.1     1  LIG1       -0.1137
     12 H          -0.8409    2.6026    3.0558 H       1  LIG1        0.1232
     13 C          -2.5271   -0.6684   -0.4472 C.ar    1  LIG1        0.1079
     14 C          -3.6985   -0.1193    0.0196 C.ar    1  LIG1        0.1596
     15 C          -4.6523   -1.1648    0.1940 C.ar    1  LIG1        0.0935
     16 C          -4.0350   -2.3505   -0.1879 C.ar    1  LIG1        0.0862
     17 N          -2.7625   -2.0338   -0.5666 N.ar    1  LIG1       -0.3478
     18 H          -2.0892   -2.6940   -0.9188 H       1  LIG1        0.1661
     19 O          -3.9078    1.1921    0.2606 O.3     1  LIG1       -0.5034
     20 H          -4.8145    1.2904    0.5831 H       1  LIG1        0.2923
     21 C          -5.9584   -0.9532    0.7016 C.1     1  LIG1       -0.0638
     22 C          -7.0444   -0.6791    1.1481 C.1     1  LIG1       -0.1137
     23 H          -8.0162   -0.4714    1.5320 H       1  LIG1        0.1232
     24 C          -4.5180   -3.7145   -0.1885 C.ar    1  LIG1        0.1079
     25 C          -5.6846   -4.2712   -0.6582 C.ar    1  LIG1        0.1596
     26 C          -5.6386   -5.6788   -0.4351 C.ar    1  LIG1        0.0935
     27 C          -4.4176   -5.9572    0.1685 C.ar    1  LIG1        0.0862
     28 N          -3.7589   -4.7704    0.3062 N.ar    1  LIG1       -0.3478
     29 H          -2.8462   -4.6705    0.7190 H       1  LIG1        0.1661
     30 O          -6.6938   -3.5949   -1.2449 O.3     1  LIG1       -0.5034
     31 H          -7.3883   -4.2325   -1.4620 H       1  LIG1        0.2923
     32 C          -6.7008   -6.5558   -0.7677 C.1     1  LIG1       -0.0638
     33 C          -7.6571   -7.2219   -1.0769 C.1     1  LIG1       -0.1137
     34 H          -8.4822   -7.8410   -1.3431 H       1  LIG1        0.1232
     35 C          -3.8556   -7.2040    0.6417 C.ar    1  LIG1        0.1074
     36 C          -3.7735   -8.4469    0.0594 C.ar    1  LIG1        0.1589
     37 C          -3.0818   -9.3181    0.9560 C.ar    1  LIG1        0.0840
     38 C          -2.7600   -8.5682    2.0703 C.ar    1  LIG1        0.0213
     39 N          -3.2066   -7.3037    1.8695 N.ar    1  LIG1       -0.3554
     40 H          -3.2570   -6.5962    2.5842 H       1  LIG1        0.1655
     41 H          -2.2543   -8.8605    2.9769 H       1  LIG1        0.0820
     42 O          -4.2332   -8.7680   -1.1679 O.3     1  LIG1       -0.5035
     43 H          -4.0471   -9.7047   -1.3204 H       1  LIG1        0.2923
     44 C          -2.7957  -10.6789    0.6751 C.1     1  LIG1       -0.0645
     45 C          -2.5904  -11.8259    0.3653 C.1     1  LIG1       -0.1137
     46 H          -2.3969  -12.8439    0.1169 H       1  LIG1        0.1232
@<TRIPOS>BOND
     1     7     1    1
     2     6     5    1
     3     1     5   ar
     4     1     2   ar
     5     5     4   ar
     6    31    30    1
     7    34    33    1
     8    43    42    1
     9    30    25    1
    10    42    36    1
    11    33    32    3
    12     2     8    1
    13     2     3   ar
    14    18    17    1
    15     4    13    1
    16     4     3   ar
    17    32    26    1
    18     8     9    1
    19    25    26   ar
    20    25    24   ar
    21    17    13   ar
    22    17    16   ar
    23    13    14   ar
    24    26    27   ar
    25    24    16    1
    26    24    28   ar
    27    16    15   ar
    28     3    10    1
    29    14    15   ar
    30    14    19    1
    31    36    35   ar
    32    36    37   ar
    33    46    45    1
    34    27    28   ar
    35    27    35    1
    36    15    21    1
    37    19    20    1
    38    28    29    1
    39    45    44    3
    40    35    39   ar
    41    44    37    1
    42    21    22    3
    43    37    38   ar
    44    10    11    3
    45    22    23    1
    46    39    38   ar
    47    39    40    1
    48    38    41    1
    49    11    12    1
