@<TRIPOS>MOLECULE
mol_data/opt/cam/geoms/mol2/13fe13fe-13fe13fe-.out
 46 49 0 0 0
SMALL
GASTEIGER

@<TRIPOS>ATOM
      1 C           1.3639   -0.2542   -0.0086 C.ar    1  LIG1        0.0454
      2 C           0.9844    1.0590   -0.0138 C.ar    1  LIG1        0.1501
      3 C          -0.4441    1.1109   -0.0119 C.ar    1  LIG1        0.0928
      4 C          -0.8916   -0.2102   -0.0054 C.ar    1  LIG1        0.0857
      5 N           0.2065   -1.0098   -0.0036 N.ar    1  LIG1       -0.3554
      6 H           0.1472   -2.0166    0.0010 H       1  LIG1        0.1655
      7 H           2.3436   -0.7013   -0.0082 H       1  LIG1        0.0845
      8 O           1.8194    2.1283   -0.0198 O.3     1  LIG1       -0.5040
      9 H           1.2750    2.9264   -0.0224 H       1  LIG1        0.2923
     10 C          -1.2135    2.2983   -0.0160 C.1     1  LIG1       -0.0638
     11 C          -1.8321    3.3362   -0.0195 C.1     1  LIG1       -0.1137
     12 H          -2.3844    4.2469   -0.0222 H       1  LIG1        0.1232
     13 C          -2.2192   -0.7618   -0.0010 C.ar    1  LIG1        0.1079
     14 C          -2.6168   -2.0784    0.0055 C.ar    1  LIG1        0.1596
     15 C          -4.0360   -2.1284    0.0078 C.ar    1  LIG1        0.0935
     16 C          -4.4761   -0.8010    0.0026 C.ar    1  LIG1        0.0862
     17 N          -3.3764   -0.0033   -0.0026 N.ar    1  LIG1       -0.3478
     18 H          -3.4068    1.0083   -0.0071 H       1  LIG1        0.1661
     19 O          -1.7578   -3.1354    0.0089 O.3     1  LIG1       -0.5034
     20 H          -2.2763   -3.9507    0.0133 H       1  LIG1        0.2923
     21 C          -4.8067   -3.3153    0.0143 C.1     1  LIG1       -0.0638
     22 C          -5.4265   -4.3519    0.0198 C.1     1  LIG1       -0.1137
     23 H          -5.9821   -5.2608    0.0243 H       1  LIG1        0.1232
     24 C          -5.8052   -0.2585    0.0022 C.ar    1  LIG1        0.1079
     25 C          -6.2161    1.0553   -0.0031 C.ar    1  LIG1        0.1596
     26 C          -7.6362    1.0887   -0.0011 C.ar    1  LIG1        0.0935
     27 C          -8.0612   -0.2438    0.0055 C.ar    1  LIG1        0.0862
     28 N          -6.9559   -1.0294    0.0074 N.ar    1  LIG1       -0.3478
     29 H          -6.9785   -2.0414    0.0120 H       1  LIG1        0.1661
     30 O          -5.3683    2.1166   -0.0092 O.3     1  LIG1       -0.5034
     31 H          -5.8894    2.9298   -0.0123 H       1  LIG1        0.2923
     32 C          -8.4251    2.2639   -0.0053 C.1     1  LIG1       -0.0638
     33 C          -9.0650    3.2891   -0.0090 C.1     1  LIG1       -0.1137
     34 H          -9.6242    4.1964   -0.0126 H       1  LIG1        0.1232
     35 C          -9.3864   -0.7988    0.0100 C.ar    1  LIG1        0.1074
     36 C          -9.7939   -2.1140    0.0166 C.ar    1  LIG1        0.1589
     37 C         -11.2157   -2.1479    0.0189 C.ar    1  LIG1        0.0840
     38 C         -11.6349   -0.8274    0.0135 C.ar    1  LIG1        0.0213
     39 N         -10.5387   -0.0340    0.0083 N.ar    1  LIG1       -0.3554
     40 H         -10.5331    0.9751    0.0037 H       1  LIG1        0.1655
     41 H         -12.6344   -0.4229    0.0132 H       1  LIG1        0.0820
     42 O          -8.9474   -3.1759    0.0201 O.3     1  LIG1       -0.5035
     43 H          -9.4764   -3.9852    0.0246 H       1  LIG1        0.2923
     44 C         -11.9834   -3.3405    0.0254 C.1     1  LIG1       -0.0645
     45 C         -12.5669   -4.3957    0.0311 C.1     1  LIG1       -0.1137
     46 H         -13.1089   -5.3131    0.0363 H       1  LIG1        0.1232
@<TRIPOS>BOND
     1     9     8    1
     2    12    11    1
     3     8     2    1
     4    11    10    3
     5    10     3    1
     6     2     3   ar
     7     2     1   ar
     8    34    33    1
     9    31    30    1
    10     3     4   ar
    11    30    25    1
    12    33    32    3
    13     1     7    1
    14     1     5   ar
    15    18    17    1
    16     4     5   ar
    17     4    13    1
    18    32    26    1
    19     5     6    1
    20    25    26   ar
    21    25    24   ar
    22    17    13   ar
    23    17    16   ar
    24    26    27   ar
    25    13    14   ar
    26    24    16    1
    27    24    28   ar
    28    16    15   ar
    29    40    39    1
    30    14    15   ar
    31    14    19    1
    32    27    28   ar
    33    27    35    1
    34    28    29    1
    35    15    21    1
    36    39    35   ar
    37    39    38   ar
    38    19    20    1
    39    35    36   ar
    40    41    38    1
    41    38    37   ar
    42    21    22    3
    43    36    37   ar
    44    36    42    1
    45    37    44    1
    46    22    23    1
    47    42    43    1
    48    44    45    3
    49    45    46    1
