@<TRIPOS>MOLECULE
mol_data/opt/cam/geoms/mol2/13fe13fe13fe-13fe-.out
 46 49 0 0 0
SMALL
GASTEIGER

@<TRIPOS>ATOM
      1 C           1.1758    0.0264    0.6897 C.ar    1  LIG1        0.0454
      2 C           0.8520    1.1281   -0.0503 C.ar    1  LIG1        0.1501
      3 C          -0.5463    1.0762   -0.3472 C.ar    1  LIG1        0.0928
      4 C          -1.0417   -0.0791    0.2445 C.ar    1  LIG1        0.0857
      5 N           0.0129   -0.7072    0.8464 N.ar    1  LIG1       -0.3554
      6 H          -0.0927   -1.4734    1.4903 H       1  LIG1        0.1655
      7 H           2.1195   -0.2956    1.0969 H       1  LIG1        0.0845
      8 O           1.7076    2.0953   -0.4588 O.3     1  LIG1       -0.5040
      9 H           1.1975    2.7321   -0.9784 H       1  LIG1        0.2923
     10 C          -1.2016    2.0336   -1.1601 C.1     1  LIG1       -0.0638
     11 C          -1.6626    2.8938   -1.8691 C.1     1  LIG1       -0.1137
     12 H          -2.1062    3.6381   -2.4886 H       1  LIG1        0.1232
     13 C          -2.3709   -0.6457    0.2712 C.ar    1  LIG1        0.1079
     14 C          -3.6112   -0.0704    0.4230 C.ar    1  LIG1        0.1596
     15 C          -4.5912   -1.1079    0.4286 C.ar    1  LIG1        0.0935
     16 C          -3.9035   -2.3129    0.2820 C.ar    1  LIG1        0.0862
     17 N          -2.5803   -2.0198    0.2041 N.ar    1  LIG1       -0.3478
     18 H          -1.8816   -2.7074   -0.0380 H       1  LIG1        0.1661
     19 O          -3.8433    1.2504    0.5806 O.3     1  LIG1       -0.5034
     20 H          -4.7972    1.3864    0.6478 H       1  LIG1        0.2923
     21 C          -5.9866   -0.9128    0.5664 C.1     1  LIG1       -0.0638
     22 C          -7.1724   -0.7092    0.6824 C.1     1  LIG1       -0.1137
     23 H          -8.2160   -0.5142    0.7762 H       1  LIG1        0.1232
     24 C          -4.3838   -3.6616    0.1874 C.ar    1  LIG1        0.1079
     25 C          -3.6924   -4.8322   -0.0083 C.ar    1  LIG1        0.1596
     26 C          -4.6205   -5.9099   -0.0364 C.ar    1  LIG1        0.0935
     27 C          -5.8901   -5.3520    0.1347 C.ar    1  LIG1        0.0862
     28 N          -5.7233   -4.0083    0.2782 N.ar    1  LIG1       -0.3478
     29 H          -6.4661   -3.3240    0.2738 H       1  LIG1        0.1661
     30 O          -2.3398   -4.9034   -0.1267 O.3     1  LIG1       -0.5034
     31 H          -2.0898   -5.8200   -0.3026 H       1  LIG1        0.2923
     32 C          -4.2763   -7.2755   -0.1702 C.1     1  LIG1       -0.0638
     33 C          -3.9537   -8.4321   -0.3065 C.1     1  LIG1       -0.1137
     34 H          -3.6776   -9.4586   -0.3894 H       1  LIG1        0.1232
     35 C          -7.1906   -5.9701    0.1818 C.ar    1  LIG1        0.1074
     36 C          -7.7013   -7.0939   -0.4439 C.ar    1  LIG1        0.1589
     37 C          -9.0886   -7.1887   -0.1174 C.ar    1  LIG1        0.0840
     38 C          -9.3754   -6.1185    0.7047 C.ar    1  LIG1        0.0213
     39 N          -8.2480   -5.3799    0.8665 N.ar    1  LIG1       -0.3554
     40 H          -8.1302   -4.6725    1.5734 H       1  LIG1        0.1655
     41 H         -10.3039   -5.8549    1.1863 H       1  LIG1        0.0820
     42 O          -7.0981   -7.9588   -1.2811 O.3     1  LIG1       -0.5035
     43 H          -6.1374   -7.9405   -1.1547 H       1  LIG1        0.2923
     44 C          -9.9956   -8.1869   -0.5620 C.1     1  LIG1       -0.0645
     45 C         -10.7687   -9.0312   -0.9343 C.1     1  LIG1       -0.1137
     46 H         -11.4463   -9.7819   -1.2688 H       1  LIG1        0.1232
@<TRIPOS>BOND
     1    12    11    1
     2    11    10    3
     3    42    43    1
     4    42    36    1
     5    46    45    1
     6    10     3    1
     7     9     8    1
     8    45    44    3
     9    44    37    1
    10     8     2    1
    11    36    37   ar
    12    36    35   ar
    13    34    33    1
    14     3     2   ar
    15     3     4   ar
    16    33    32    3
    17    31    30    1
    18    32    26    1
    19    30    25    1
    20    37    38   ar
    21     2     1   ar
    22    18    17    1
    23    26    25   ar
    24    26    27   ar
    25    25    24   ar
    26    27    35    1
    27    27    28   ar
    28    35    39   ar
    29    24    28   ar
    30    24    16    1
    31    17    13   ar
    32    17    16   ar
    33     4    13    1
    34     4     5   ar
    35    13    14   ar
    36    29    28    1
    37    16    15   ar
    38    14    15   ar
    39    14    19    1
    40    15    21    1
    41    21    22    3
    42    19    20    1
    43    22    23    1
    44     1     5   ar
    45     1     7    1
    46    38    39   ar
    47    38    41    1
    48     5     6    1
    49    39    40    1
