@<TRIPOS>MOLECULE
mol_data/opt/cam/geoms/mol2/13fe13fe-13fe-13fe.out
 46 49 0 0 0
SMALL
GASTEIGER

@<TRIPOS>ATOM
      1 C           1.2869   -0.1343   -0.2100 C.ar    1  LIG1        0.0454
      2 C           0.8149    1.1246   -0.4591 C.ar    1  LIG1        0.1501
      3 C          -0.6131    1.0823   -0.4095 C.ar    1  LIG1        0.0928
      4 C          -0.9625   -0.2386   -0.1242 C.ar    1  LIG1        0.0857
      5 N           0.1875   -0.9489   -0.0092 N.ar    1  LIG1       -0.3554
      6 H           0.2029   -1.9352    0.2005 H       1  LIG1        0.1655
      7 H           2.2960   -0.5066   -0.1611 H       1  LIG1        0.0845
      8 O           1.5761    2.2192   -0.7084 O.3     1  LIG1       -0.5040
      9 H           0.9844    2.9672   -0.8590 H       1  LIG1        0.2923
     10 C          -1.4897    2.1764   -0.6087 C.1     1  LIG1       -0.0638
     11 C          -2.2367    3.1113   -0.7821 C.1     1  LIG1       -0.1137
     12 H          -2.9109    3.9242   -0.9259 H       1  LIG1        0.1232
     13 C          -2.2564   -0.8411    0.0362 C.ar    1  LIG1        0.1079
     14 C          -2.6154   -2.1323    0.3333 C.ar    1  LIG1        0.1596
     15 C          -4.0368   -2.2082    0.3904 C.ar    1  LIG1        0.0935
     16 C          -4.5189   -0.9264    0.1043 C.ar    1  LIG1        0.0862
     17 N          -3.4364   -0.1281   -0.0950 N.ar    1  LIG1       -0.3478
     18 H          -3.4631    0.8208   -0.4402 H       1  LIG1        0.1661
     19 O          -1.7243   -3.1368    0.5509 O.3     1  LIG1       -0.5034
     20 H          -2.2114   -3.9468    0.7506 H       1  LIG1        0.2923
     21 C          -4.7735   -3.3672    0.7272 C.1     1  LIG1       -0.0638
     22 C          -5.3724   -4.3799    1.0057 C.1     1  LIG1       -0.1137
     23 H          -5.9079   -5.2583    1.2850 H       1  LIG1        0.1232
     24 C          -5.8545   -0.3997    0.0153 C.ar    1  LIG1        0.1079
     25 C          -7.0689   -0.9784   -0.3124 C.ar    1  LIG1        0.1596
     26 C          -8.0479    0.0553   -0.3793 C.ar    1  LIG1        0.0935
     27 C          -7.3933    1.2503   -0.0856 C.ar    1  LIG1        0.0862
     28 N          -6.0847    0.9666    0.1359 N.ar    1  LIG1       -0.3478
     29 H          -5.4431    1.6462    0.5195 H       1  LIG1        0.1661
     30 O          -7.3622   -2.2603   -0.5988 O.3     1  LIG1       -0.5034
     31 H          -6.6616   -2.8500   -0.2799 H       1  LIG1        0.2923
     32 C          -9.4228   -0.0920   -0.6915 C.1     1  LIG1       -0.0638
     33 C         -10.5975   -0.1861   -0.9522 C.1     1  LIG1       -0.1137
     34 H         -11.6276   -0.3161   -1.1914 H       1  LIG1        0.1232
     35 C          -7.8819    2.5966    0.0297 C.ar    1  LIG1        0.1074
     36 C          -7.2022    3.7510    0.3484 C.ar    1  LIG1        0.1589
     37 C          -8.1242    4.8327    0.3544 C.ar    1  LIG1        0.0840
     38 C          -9.3577    4.2903    0.0289 C.ar    1  LIG1        0.0213
     39 N          -9.2002    2.9605   -0.1628 N.ar    1  LIG1       -0.3554
     40 H          -9.9198    2.2959   -0.4112 H       1  LIG1        0.1655
     41 H         -10.3160    4.7740   -0.0732 H       1  LIG1        0.0820
     42 O          -5.8659    3.8076    0.6105 O.3     1  LIG1       -0.5035
     43 H          -5.6575    4.7001    0.9195 H       1  LIG1        0.2923
     44 C          -7.7748    6.1749    0.6519 C.1     1  LIG1       -0.0645
     45 C          -7.4012    7.2897    0.9195 C.1     1  LIG1       -0.1137
     46 H          -7.0996    8.2855    1.1497 H       1  LIG1        0.1232
@<TRIPOS>BOND
     1    34    33    1
     2    33    32    3
     3    12    11    1
     4     9     8    1
     5    11    10    3
     6     8     2    1
     7    32    26    1
     8    10     3    1
     9    30    25    1
    10    30    31    1
    11     2     3   ar
    12     2     1   ar
    13    18    17    1
    14    40    39    1
    15     3     4   ar
    16    26    25   ar
    17    26    27   ar
    18    25    24   ar
    19     1     7    1
    20     1     5   ar
    21    39    38   ar
    22    39    35   ar
    23     4     5   ar
    24     4    13    1
    25    17    13   ar
    26    17    16   ar
    27    27    35    1
    28    27    28   ar
    29    41    38    1
    30     5     6    1
    31    24    16    1
    32    24    28   ar
    33    38    37   ar
    34    35    36   ar
    35    13    14   ar
    36    16    15   ar
    37    28    29    1
    38    14    15   ar
    39    14    19    1
    40    36    37   ar
    41    36    42    1
    42    37    44    1
    43    15    21    1
    44    19    20    1
    45    42    43    1
    46    44    45    3
    47    21    22    3
    48    45    46    1
    49    22    23    1
