@<TRIPOS>MOLECULE
mol_data/opt/cam/geoms/mol2/13ff13ff.out
 22 23 0 0 0
SMALL
GASTEIGER

@<TRIPOS>ATOM
      1 C           1.2290   -0.2801   -0.2176 C.ar    1  LIG1        0.0480
      2 C           0.7706    0.9768    0.0598 C.ar    1  LIG1        0.1767
      3 C          -0.6444    0.9091    0.1748 C.ar    1  LIG1        0.1857
      4 C          -1.0230   -0.3961   -0.0355 C.ar    1  LIG1        0.1124
      5 N           0.1351   -1.1330   -0.2349 N.ar    1  LIG1       -0.3534
      6 H           0.1311   -1.9735   -0.7911 H       1  LIG1        0.1656
      7 H           2.2328   -0.6371   -0.3791 H       1  LIG1        0.0845
      8 O           1.5050    2.1055    0.2402 O.3     1  LIG1       -0.5023
      9 H           0.8743    2.8201    0.4029 H       1  LIG1        0.2923
     10 O          -1.3835    2.0012    0.5056 O.3     1  LIG1       -0.5019
     11 H          -2.2921    1.8783    0.1761 H       1  LIG1        0.2924
     12 C          -2.3431   -0.9757   -0.0186 C.ar    1  LIG1        0.1124
     13 C          -3.5624   -0.3743   -0.2125 C.ar    1  LIG1        0.1857
     14 C          -4.5730   -1.3499   -0.0452 C.ar    1  LIG1        0.1767
     15 C          -3.9598   -2.5405    0.2455 C.ar    1  LIG1        0.0480
     16 N          -2.5966   -2.3087    0.2297 N.ar    1  LIG1       -0.3534
     17 H          -1.9232   -2.9085    0.6768 H       1  LIG1        0.1656
     18 H          -4.3691   -3.5204    0.4330 H       1  LIG1        0.0845
     19 O          -3.7526    0.9447   -0.5494 O.3     1  LIG1       -0.5019
     20 H          -4.6999    1.1289   -0.5060 H       1  LIG1        0.2924
     21 O          -5.8885   -1.0205   -0.2148 O.3     1  LIG1       -0.5023
     22 H          -6.4480   -1.7511    0.0692 H       1  LIG1        0.2923
@<TRIPOS>BOND
     1     6     5    1
     2    19    20    1
     3    19    13    1
     4     7     1    1
     5     5     1   ar
     6     5     4   ar
     7     1     2   ar
     8    21    14    1
     9    21    22    1
    10    13    14   ar
    11    13    12   ar
    12    14    15   ar
    13     4    12    1
    14     4     3   ar
    15    12    16   ar
    16     2     3   ar
    17     2     8    1
    18     3    10    1
    19    11    10    1
    20    16    15   ar
    21    16    17    1
    22     8     9    1
    23    15    18    1
