@<TRIPOS>MOLECULE
mol_data/opt/cam/geoms/mol2/13ff4fd-12fi13de-.out
 46 49 0 0 0
SMALL
GASTEIGER

@<TRIPOS>ATOM
      1 C           1.3002   -0.1268    0.4631 C.ar    1  LIG1        0.0479
      2 C           0.9861    1.0020   -0.2432 C.ar    1  LIG1        0.1766
      3 C          -0.4065    0.9750   -0.5037 C.ar    1  LIG1        0.1842
      4 C          -0.9280   -0.1811    0.0496 C.ar    1  LIG1        0.0958
      5 N           0.1451   -0.8621    0.6064 N.ar    1  LIG1       -0.3546
      6 H           0.0291   -1.5571    1.3256 H       1  LIG1        0.1656
      7 H           2.2435   -0.4583    0.8655 H       1  LIG1        0.0845
      8 O           1.8323    1.9771   -0.6628 O.3     1  LIG1       -0.5023
      9 H           1.2922    2.6317   -1.1261 H       1  LIG1        0.2923
     10 O          -0.9823    1.9454   -1.2589 O.3     1  LIG1       -0.5019
     11 H          -1.9160    2.0055   -0.9993 H       1  LIG1        0.2924
     12 C          -3.4419    0.0005    0.0156 C.ar    1  LIG1        0.1268
     13 C          -4.6964   -0.5801    0.0213 C.ar    1  LIG1       -0.0075
     14 C          -2.2608   -0.7659    0.0415 C.ar    1  LIG1        0.0446
     15 C          -4.8597   -1.9675    0.0801 C.ar    1  LIG1        0.0418
     16 H          -5.5806    0.0486   -0.0040 H       1  LIG1        0.0662
     17 C          -2.4319   -2.1482    0.0908 C.ar    1  LIG1       -0.0309
     18 C          -3.6886   -2.7557    0.1249 C.ar    1  LIG1        0.0634
     19 H          -1.5532   -2.7828    0.0853 H       1  LIG1        0.0638
     20 O          -3.3135    1.3633   -0.0066 O.3     1  LIG1       -0.5061
     21 H          -4.1859    1.7748    0.0280 H       1  LIG1        0.2922
     22 N          -3.7509   -5.3383    0.3351 N.1     1  LIG1       -0.1908
     23 C          -3.7295   -4.1854    0.2297 C.1     1  LIG1        0.0999
     24 C          -6.1891   -2.5329    0.0968 C.ar    1  LIG1        0.1785
     25 C          -7.4499   -2.0281    0.2797 C.ar    1  LIG1        0.1663
     26 C          -8.3791   -3.1142    0.2717 C.ar    1  LIG1        0.0389
     27 C          -7.6106   -4.2274    0.0481 C.ar    1  LIG1        0.1596
     28 O          -6.3059   -3.8805   -0.0586 O.2     1  LIG1       -0.4492
     29 O          -7.7331   -0.7175    0.4743 O.3     1  LIG1       -0.5030
     30 H          -8.6900   -0.6018    0.5169 H       1  LIG1        0.2923
     31 C          -9.8474   -2.9906    0.5270 C.3     1  LIG1       -0.0325
     32 H         -10.2285   -3.8471    1.0829 H       1  LIG1        0.0280
     33 H         -10.4313   -2.9250   -0.3944 H       1  LIG1        0.0280
     34 H         -10.0595   -2.1009    1.1305 H       1  LIG1        0.0280
     35 C          -7.8138   -5.6543   -0.0551 C.ar    1  LIG1        0.1013
     36 C          -8.9219   -6.4537   -0.3086 C.ar    1  LIG1        0.0953
     37 C          -8.4802   -7.8181   -0.2960 C.ar    1  LIG1        0.0600
     38 C          -7.1259   -7.7864   -0.0494 C.ar    1  LIG1        0.0190
     39 N          -6.7413   -6.4910    0.0932 N.ar    1  LIG1       -0.3561
     40 H          -5.7862   -6.1756    0.2484 H       1  LIG1        0.1655
     41 H          -6.4209   -8.5983    0.0305 H       1  LIG1        0.0820
     42 N         -11.3110   -5.6628   -0.8604 N.1     1  LIG1       -0.1908
     43 C         -10.2390   -6.0192   -0.6052 C.1     1  LIG1        0.1026
     44 C          -9.2821   -8.9700   -0.5107 C.1     1  LIG1       -0.0669
     45 C          -9.9681   -9.9416   -0.6929 C.1     1  LIG1       -0.1138
     46 H         -10.5806  -10.7980   -0.8567 H       1  LIG1        0.1232
@<TRIPOS>BOND
     1    10    11    1
     2    10     3    1
     3     9     8    1
     4    42    43    3
     5    46    45    1
     6    45    44    3
     7     8     2    1
     8    43    36    1
     9    44    37    1
    10     3     2   ar
    11     3     4   ar
    12    33    31    1
    13    36    37   ar
    14    36    35   ar
    15    37    38   ar
    16     2     1   ar
    17    28    27   ar
    18    28    24   ar
    19    35    27    1
    20    35    39   ar
    21    38    41    1
    22    38    39   ar
    23    20    12    1
    24    20    21    1
    25    16    13    1
    26    12    13   ar
    27    12    14   ar
    28    13    15   ar
    29    14     4    1
    30    14    17   ar
    31    27    26   ar
    32     4     5   ar
    33    15    24    1
    34    15    18   ar
    35    19    17    1
    36    17    18   ar
    37    39    40    1
    38    24    25   ar
    39    18    23    1
    40    23    22    3
    41    26    25   ar
    42    26    31    1
    43    25    29    1
    44     1     5   ar
    45     1     7    1
    46    29    30    1
    47    31    32    1
    48    31    34    1
    49     5     6    1
