@<TRIPOS>MOLECULE
mol_data/opt/cam/geoms/mol2/13ff13ff-4ff13ff.out
 44 47 0 0 0
SMALL
GASTEIGER

@<TRIPOS>ATOM
      1 C           1.3787   -0.2998   -0.3558 C.ar    1  LIG1        0.0480
      2 C           0.9919    0.9944   -0.1117 C.ar    1  LIG1        0.1767
      3 C          -0.4118    0.9932    0.0657 C.ar    1  LIG1        0.1857
      4 C          -0.8627   -0.3027   -0.0845 C.ar    1  LIG1        0.1124
      5 N           0.2408   -1.0770   -0.3217 N.ar    1  LIG1       -0.3534
      6 H           0.1786   -2.0603   -0.5314 H       1  LIG1        0.1656
      7 H           2.3549   -0.7159   -0.5410 H       1  LIG1        0.0845
      8 O           1.7953    2.0897   -0.0359 O.3     1  LIG1       -0.5023
      9 H           1.2099    2.8580   -0.0037 H       1  LIG1        0.2923
     10 O          -1.1706    2.1277    0.2921 O.3     1  LIG1       -0.5019
     11 H          -1.3526    2.1923    1.2389 H       1  LIG1        0.2924
     12 C          -2.1930   -0.8488   -0.0309 C.ar    1  LIG1        0.1128
     13 C          -2.6126   -2.1658   -0.0069 C.ar    1  LIG1        0.1864
     14 C          -4.0187   -2.1760    0.0122 C.ar    1  LIG1        0.1850
     15 C          -4.4597   -0.8596    0.0160 C.ar    1  LIG1        0.0964
     16 N          -3.3167   -0.0802   -0.0026 N.ar    1  LIG1       -0.3469
     17 H          -3.3358    0.9280   -0.0585 H       1  LIG1        0.1662
     18 O          -1.8181   -3.3013   -0.0506 O.3     1  LIG1       -0.5019
     19 H          -1.5943   -3.5491    0.8564 H       1  LIG1        0.2924
     20 O          -4.7868   -3.3043    0.0327 O.3     1  LIG1       -0.5019
     21 H          -4.1939   -4.0426   -0.1629 H       1  LIG1        0.2924
     22 C          -6.0940    1.0590    0.0248 C.ar    1  LIG1        0.1269
     23 C          -7.3954    1.5266    0.0270 C.ar    1  LIG1       -0.0068
     24 C          -5.8097   -0.3160    0.0300 C.ar    1  LIG1        0.0469
     25 C          -8.5011    0.6677    0.0336 C.ar    1  LIG1        0.0469
     26 H          -7.5739    2.5967    0.0249 H       1  LIG1        0.0662
     27 C          -6.9160   -1.1752    0.0413 C.ar    1  LIG1       -0.0068
     28 C          -8.2168   -0.7068    0.0422 C.ar    1  LIG1        0.1269
     29 H          -6.7386   -2.2454    0.0448 H       1  LIG1        0.0662
     30 O          -5.0394    1.9452    0.0217 O.3     1  LIG1       -0.5061
     31 H          -5.3833    2.8417   -0.0594 H       1  LIG1        0.2922
     32 O          -9.2719   -1.5956    0.0514 O.3     1  LIG1       -0.5061
     33 H          -8.9219   -2.4934    0.0574 H       1  LIG1        0.2922
     34 C          -9.8500    1.2167    0.0341 C.ar    1  LIG1        0.0959
     35 C         -10.2856    2.5319    0.0107 C.ar    1  LIG1        0.1842
     36 C         -11.6948    2.5305    0.0189 C.ar    1  LIG1        0.1766
     37 C         -12.1145    1.2207    0.0522 C.ar    1  LIG1        0.0479
     38 N         -10.9957    0.4441    0.0507 N.ar    1  LIG1       -0.3546
     39 H         -10.9545   -0.5623    0.0656 H       1  LIG1        0.1656
     40 H         -13.1065    0.7983    0.0776 H       1  LIG1        0.0845
     41 O          -9.5214    3.6616   -0.0162 O.3     1  LIG1       -0.5019
     42 H         -10.1430    4.4030    0.0081 H       1  LIG1        0.2924
     43 O         -12.4154    3.7057    0.0425 O.3     1  LIG1       -0.5023
     44 H         -12.9862    3.7392   -0.7335 H       1  LIG1        0.2923
@<TRIPOS>BOND
     1    44    43    1
     2     7     1    1
     3     6     5    1
     4     1     5   ar
     5     1     2   ar
     6     5     4   ar
     7    21    20    1
     8     2     8    1
     9     2     3   ar
    10     4    12    1
    11     4     3   ar
    12    31    30    1
    13    17    16    1
    14    18    13    1
    15    18    19    1
    16     8     9    1
    17    12    13   ar
    18    12    16   ar
    19    41    42    1
    20    41    35    1
    21    13    14   ar
    22    16    15   ar
    23    35    36   ar
    24    35    34   ar
    25    14    15   ar
    26    14    20    1
    27    15    24    1
    28    36    43    1
    29    36    37   ar
    30    30    22    1
    31    22    23   ar
    32    22    24   ar
    33    26    23    1
    34    23    25   ar
    35    24    27   ar
    36    25    34    1
    37    25    28   ar
    38    34    38   ar
    39    27    28   ar
    40    27    29    1
    41    28    32    1
    42    38    37   ar
    43    38    39    1
    44    32    33    1
    45    37    40    1
    46     3    10    1
    47    10    11    1
