@<TRIPOS>MOLECULE
mol_data/opt/cam/geoms/mol2/13ff13ff-13ff-13ff.out
 42 45 0 0 0
SMALL
GASTEIGER

@<TRIPOS>ATOM
      1 C           1.3485   -0.4516   -0.6861 C.ar    1  LIG1        0.0480
      2 C           1.0779    0.7880   -0.1792 C.ar    1  LIG1        0.1767
      3 C          -0.3114    0.8372    0.1181 C.ar    1  LIG1        0.1857
      4 C          -0.8662   -0.3721   -0.2170 C.ar    1  LIG1        0.1124
      5 N           0.1700   -1.1861   -0.6610 N.ar    1  LIG1       -0.3534
      6 H          -0.0083   -1.9252   -1.3241 H       1  LIG1        0.1656
      7 H           2.2775   -0.8746   -1.0308 H       1  LIG1        0.0845
      8 O           1.9625    1.7926    0.0468 O.3     1  LIG1       -0.5023
      9 H           1.4791    2.5105    0.4761 H       1  LIG1        0.2923
     10 O          -0.8888    1.9327    0.6947 O.3     1  LIG1       -0.5019
     11 H          -1.7415    1.6720    1.0681 H       1  LIG1        0.2924
     12 C          -2.2145   -0.8551   -0.0522 C.ar    1  LIG1        0.1129
     13 C          -2.6614   -2.0885    0.3495 C.ar    1  LIG1        0.1864
     14 C          -4.0727   -2.0353    0.4407 C.ar    1  LIG1        0.1864
     15 C          -4.4836   -0.7714    0.0978 C.ar    1  LIG1        0.1129
     16 N          -3.3353   -0.0264   -0.1541 N.ar    1  LIG1       -0.3458
     17 H          -3.3547    0.7122   -0.8434 H       1  LIG1        0.1662
     18 O          -1.9519   -3.2025    0.6900 O.3     1  LIG1       -0.5019
     19 H          -1.0273   -2.9491    0.8200 H       1  LIG1        0.2924
     20 O          -4.8954   -3.0499    0.8590 O.3     1  LIG1       -0.5019
     21 H          -4.3522   -3.8279    1.0396 H       1  LIG1        0.2924
     22 C          -5.8123   -0.2356   -0.0142 C.ar    1  LIG1        0.1129
     23 C          -7.0184   -0.8967   -0.1790 C.ar    1  LIG1        0.1864
     24 C          -8.0318    0.0799   -0.2628 C.ar    1  LIG1        0.1864
     25 C          -7.4456    1.3209   -0.1543 C.ar    1  LIG1        0.1129
     26 N          -6.0898    1.1191   -0.0237 N.ar    1  LIG1       -0.3458
     27 H          -5.4702    1.8529    0.2844 H       1  LIG1        0.1662
     28 O          -7.2890   -2.2224   -0.3112 O.3     1  LIG1       -0.5019
     29 H          -6.5720   -2.7384    0.0977 H       1  LIG1        0.2924
     30 O          -9.3692   -0.1446   -0.4447 O.3     1  LIG1       -0.5019
     31 H          -9.4976   -1.1022   -0.4563 H       1  LIG1        0.2924
     32 C          -8.0364    2.6292   -0.1376 C.ar    1  LIG1        0.1124
     33 C          -7.4552    3.8636    0.0508 C.ar    1  LIG1        0.1857
     34 C          -8.4765    4.8361    0.0026 C.ar    1  LIG1        0.1767
     35 C          -9.6681    4.1833   -0.2157 C.ar    1  LIG1        0.0480
     36 N          -9.3849    2.8425   -0.2930 N.ar    1  LIG1       -0.3534
     37 H         -10.0422    2.0915   -0.4326 H       1  LIG1        0.1656
     38 H         -10.6711    4.5639   -0.3250 H       1  LIG1        0.0845
     39 O          -6.1180    4.0814    0.2571 O.3     1  LIG1       -0.5019
     40 H          -6.0053    5.0270    0.4191 H       1  LIG1        0.2924
     41 O          -8.1898    6.1719    0.1372 O.3     1  LIG1       -0.5023
     42 H          -8.9353    6.6181    0.5524 H       1  LIG1        0.2923
@<TRIPOS>BOND
     1     6     5    1
     2     7     1    1
     3    17    16    1
     4     1     5   ar
     5     1     2   ar
     6     5     4   ar
     7    31    30    1
     8    30    24    1
     9    37    36    1
    10    38    35    1
    11    28    23    1
    12    28    29    1
    13    36    35   ar
    14    36    32   ar
    15    24    23   ar
    16    24    25   ar
    17     4    12    1
    18     4     3   ar
    19    35    34   ar
    20     2     8    1
    21     2     3   ar
    22    23    22   ar
    23    25    32    1
    24    25    26   ar
    25    16    12   ar
    26    16    15   ar
    27    32    33   ar
    28    12    13   ar
    29    26    22   ar
    30    26    27    1
    31    22    15    1
    32    34    33   ar
    33    34    41    1
    34     8     9    1
    35    33    39    1
    36    15    14   ar
    37     3    10    1
    38    41    42    1
    39    39    40    1
    40    13    14   ar
    41    13    18    1
    42    14    20    1
    43    18    19    1
    44    10    11    1
    45    20    21    1
