@<TRIPOS>MOLECULE
mol_data/opt/cam/geoms/mol2/13ff13ff13ff-13ff-.out
 42 45 0 0 0
SMALL
GASTEIGER

@<TRIPOS>ATOM
      1 C           1.3217   -0.1333   -0.5504 C.ar    1  LIG1        0.0480
      2 C           0.8141    1.1241   -0.7253 C.ar    1  LIG1        0.1767
      3 C          -0.5846    1.0661   -0.4875 C.ar    1  LIG1        0.1857
      4 C          -0.9057   -0.2358   -0.1701 C.ar    1  LIG1        0.1124
      5 N           0.2640   -0.9757   -0.2514 N.ar    1  LIG1       -0.3534
      6 H           0.3904   -1.8263    0.2731 H       1  LIG1        0.1656
      7 H           2.3331   -0.4951   -0.6354 H       1  LIG1        0.0845
      8 O           1.4886    2.2427   -1.0967 O.3     1  LIG1       -0.5023
      9 H           0.8425    2.9616   -1.1180 H       1  LIG1        0.2923
     10 O          -1.3745    2.1595   -0.6508 O.3     1  LIG1       -0.5019
     11 H          -2.1884    2.0494   -0.1287 H       1  LIG1        0.2924
     12 C          -2.1856   -0.8132    0.1428 C.ar    1  LIG1        0.1129
     13 C          -3.3385   -0.2066    0.5685 C.ar    1  LIG1        0.1864
     14 C          -4.3538   -1.1906    0.6663 C.ar    1  LIG1        0.1864
     15 C          -3.8147   -2.3954    0.2956 C.ar    1  LIG1        0.1129
     16 N          -2.4575   -2.1763    0.0260 N.ar    1  LIG1       -0.3458
     17 H          -2.0113   -2.6996   -0.7154 H       1  LIG1        0.1662
     18 O          -3.4621    1.1179    0.8956 O.3     1  LIG1       -0.5019
     19 H          -4.3753    1.2845    1.1626 H       1  LIG1        0.2924
     20 O          -5.6023   -0.9021    1.1290 O.3     1  LIG1       -0.5019
     21 H          -6.0527   -1.7341    1.3301 H       1  LIG1        0.2924
     22 C          -4.4023   -3.7094    0.2979 C.ar    1  LIG1        0.1129
     23 C          -3.8640   -4.9126    0.6751 C.ar    1  LIG1        0.1864
     24 C          -4.8791   -5.8970    0.5796 C.ar    1  LIG1        0.1864
     25 C          -6.0310   -5.2924    0.1488 C.ar    1  LIG1        0.1129
     26 N          -5.7589   -3.9297    0.0265 N.ar    1  LIG1       -0.3458
     27 H          -6.2036   -3.4098   -0.7182 H       1  LIG1        0.1662
     28 O          -2.6164   -5.1990    1.1416 O.3     1  LIG1       -0.5019
     29 H          -2.1664   -4.3661    1.3400 H       1  LIG1        0.2924
     30 O          -4.7561   -7.2200    0.9129 O.3     1  LIG1       -0.5019
     31 H          -3.8435   -7.3854    1.1826 H       1  LIG1        0.2924
     32 C          -7.3103   -5.8711   -0.1641 C.ar    1  LIG1        0.1124
     33 C          -7.6307   -7.1744   -0.4763 C.ar    1  LIG1        0.1857
     34 C          -9.0290   -7.2336   -0.7168 C.ar    1  LIG1        0.1767
     35 C          -9.5369   -5.9753   -0.5485 C.ar    1  LIG1        0.0480
     36 N          -8.4798   -5.1316   -0.2511 N.ar    1  LIG1       -0.3534
     37 H          -8.6074   -4.2787    0.2693 H       1  LIG1        0.1656
     38 H         -10.5482   -5.6140   -0.6373 H       1  LIG1        0.0845
     39 O          -6.8405   -8.2685   -0.6331 O.3     1  LIG1       -0.5019
     40 H          -6.0278   -8.1561   -0.1098 H       1  LIG1        0.2924
     41 O          -9.7027   -8.3537   -1.0845 O.3     1  LIG1       -0.5023
     42 H          -9.0566   -9.0727   -1.1013 H       1  LIG1        0.2923
@<TRIPOS>BOND
     1     9     8    1
     2    42    41    1
     3     8     2    1
     4    41    34    1
     5     2     1   ar
     6     2     3   ar
     7    27    26    1
     8    34    35   ar
     9    34    33   ar
    10    17    16    1
    11    10     3    1
    12    10    11    1
    13    38    35    1
    14     7     1    1
    15    39    33    1
    16    39    40    1
    17     1     5   ar
    18    35    36   ar
    19     3     4   ar
    20    33    32   ar
    21     5     4   ar
    22     5     6    1
    23    36    32   ar
    24    36    37    1
    25     4    12    1
    26    32    25    1
    27    16    12   ar
    28    16    15   ar
    29    26    25   ar
    30    26    22   ar
    31    12    13   ar
    32    25    24   ar
    33    15    22    1
    34    15    14   ar
    35    22    23   ar
    36    13    14   ar
    37    13    18    1
    38    24    23   ar
    39    24    30    1
    40    14    20    1
    41    23    28    1
    42    18    19    1
    43    30    31    1
    44    20    21    1
    45    28    29    1
