@<TRIPOS>MOLECULE
mol_data/opt/cam/geoms/mol2/13ff13ff-.out
 22 23 0 0 0
SMALL
GASTEIGER

@<TRIPOS>ATOM
      1 C           1.1918   -0.2390   -0.1672 C.ar    1  LIG1        0.0480
      2 C           0.7574    1.0587   -0.0634 C.ar    1  LIG1        0.1767
      3 C          -0.6555    1.0274    0.0231 C.ar    1  LIG1        0.1857
      4 C          -1.0604   -0.2894   -0.0440 C.ar    1  LIG1        0.1124
      5 N           0.0742   -1.0453   -0.1441 N.ar    1  LIG1       -0.3534
      6 H           0.0500   -2.0459   -0.2607 H       1  LIG1        0.1656
      7 H           2.1888   -0.6384   -0.2503 H       1  LIG1        0.0845
      8 O           1.5304    2.1792   -0.0277 O.3     1  LIG1       -0.5023
      9 H           0.9443    2.9282   -0.1969 H       1  LIG1        0.2923
     10 O          -1.4762    2.1419    0.0971 O.3     1  LIG1       -0.5019
     11 H          -1.5647    2.3916    1.0265 H       1  LIG1        0.2924
     12 C          -2.3816   -0.8629   -0.0433 C.ar    1  LIG1        0.1124
     13 C          -2.7864   -2.1797    0.0245 C.ar    1  LIG1        0.1857
     14 C          -4.1993   -2.2110   -0.0606 C.ar    1  LIG1        0.1767
     15 C          -4.6339   -0.9133   -0.1643 C.ar    1  LIG1        0.0480
     16 N          -3.5162   -0.1070   -0.1424 N.ar    1  LIG1       -0.3534
     17 H          -3.4922    0.8936   -0.2593 H       1  LIG1        0.1656
     18 H          -5.6309   -0.5139   -0.2465 H       1  LIG1        0.0845
     19 O          -1.9657   -3.2942    0.0979 O.3     1  LIG1       -0.5019
     20 H          -1.8761   -3.5435    1.0273 H       1  LIG1        0.2924
     21 O          -4.9724   -3.3315   -0.0239 O.3     1  LIG1       -0.5023
     22 H          -4.3863   -4.0806   -0.1934 H       1  LIG1        0.2923
@<TRIPOS>BOND
     1     6     5    1
     2    17    16    1
     3     7     1    1
     4    18    15    1
     5     9     8    1
     6    22    21    1
     7     1     5   ar
     8     1     2   ar
     9    15    16   ar
    10    15    14   ar
    11     5     4   ar
    12    16    12   ar
    13     2     8    1
    14     2     3   ar
    15    14    21    1
    16    14    13   ar
    17     4    12    1
    18     4     3   ar
    19    12    13   ar
    20     3    10    1
    21    13    19    1
    22    10    11    1
    23    19    20    1
