@<TRIPOS>MOLECULE
mol_data/opt/cam/geoms/mol2/13ff13ff13ff.out
 32 34 0 0 0
SMALL
GASTEIGER

@<TRIPOS>ATOM
      1 C           1.3161   -0.0903    0.0463 C.ar    1  LIG1        0.0480
      2 C           0.7934    1.1384   -0.2466 C.ar    1  LIG1        0.1767
      3 C          -0.6222    1.0218   -0.2460 C.ar    1  LIG1        0.1857
      4 C          -0.9379   -0.2855    0.0489 C.ar    1  LIG1        0.1124
      5 N           0.2575   -0.9744    0.1855 N.ar    1  LIG1       -0.3534
      6 H           0.3227   -1.7992    0.7604 H       1  LIG1        0.1656
      7 H           2.3415   -0.4078    0.1405 H       1  LIG1        0.0845
      8 O           1.4729    2.2800   -0.5323 O.3     1  LIG1       -0.5023
      9 H           0.8074    2.9662   -0.6778 H       1  LIG1        0.2923
     10 O          -1.4206    2.0746   -0.5654 O.3     1  LIG1       -0.5019
     11 H          -2.3053    1.9309   -0.1836 H       1  LIG1        0.2924
     12 C          -2.2287   -0.9100    0.1677 C.ar    1  LIG1        0.1129
     13 C          -3.4568   -0.3448    0.3875 C.ar    1  LIG1        0.1864
     14 C          -4.4406   -1.3644    0.3566 C.ar    1  LIG1        0.1864
     15 C          -3.7958   -2.5552    0.1188 C.ar    1  LIG1        0.1129
     16 N          -2.4274   -2.2827    0.0452 N.ar    1  LIG1       -0.3458
     17 H          -1.8452   -2.8000   -0.5985 H       1  LIG1        0.1662
     18 O          -3.6943    0.9799    0.6491 O.3     1  LIG1       -0.5019
     19 H          -4.6531    1.1046    0.6699 H       1  LIG1        0.2924
     20 O          -5.7461   -1.0947    0.6021 O.3     1  LIG1       -0.5019
     21 H          -6.2945   -1.8101    0.2290 H       1  LIG1        0.2924
     22 C          -4.3419   -3.8830    0.0125 C.ar    1  LIG1        0.1124
     23 C          -5.6271   -4.2791   -0.2705 C.ar    1  LIG1        0.1857
     24 C          -5.6814   -5.6909   -0.2181 C.ar    1  LIG1        0.1767
     25 C          -4.4260   -6.1454    0.0925 C.ar    1  LIG1        0.0480
     26 N          -3.6084   -5.0353    0.2008 N.ar    1  LIG1       -0.3534
     27 H          -2.7217   -5.0375    0.6765 H       1  LIG1        0.1656
     28 H          -4.0464   -7.1468    0.2177 H       1  LIG1        0.0845
     29 O          -6.6645   -3.4346   -0.5890 O.3     1  LIG1       -0.5019
     30 H          -7.4750   -3.9586   -0.6314 H       1  LIG1        0.2924
     31 O          -6.8476   -6.3487   -0.4886 O.3     1  LIG1       -0.5023
     32 H          -6.7387   -7.2914   -0.3245 H       1  LIG1        0.2923
@<TRIPOS>BOND
     1     9     8    1
     2    30    29    1
     3    17    16    1
     4    29    23    1
     5    10     3    1
     6    10    11    1
     7     8     2    1
     8    31    32    1
     9    31    24    1
    10    23    24   ar
    11    23    22   ar
    12     2     3   ar
    13     2     1   ar
    14     3     4   ar
    15    24    25   ar
    16    22    15    1
    17    22    26   ar
    18    16    15   ar
    19    16    12   ar
    20     1     7    1
    21     1     5   ar
    22     4    12    1
    23     4     5   ar
    24    25    26   ar
    25    25    28    1
    26    15    14   ar
    27    12    13   ar
    28     5     6    1
    29    26    27    1
    30    21    20    1
    31    14    13   ar
    32    14    20    1
    33    13    18    1
    34    18    19    1
