@<TRIPOS>MOLECULE
mol_data/opt/cam/geoms/mol2/13ff.out
 12 12 0 0 0
SMALL
GASTEIGER

@<TRIPOS>ATOM
      1 C           1.1265   -0.3675    0.0000 C.ar    1  LIG1        0.0475
      2 C           0.6959    0.9335   -0.0000 C.ar    1  LIG1        0.1760
      3 C          -0.7214    0.9140    0.0003 C.ar    1  LIG1        0.1760
      4 C          -1.1290   -0.3962   -0.0000 C.ar    1  LIG1        0.0475
      5 N           0.0083   -1.1676    0.0002 N.ar    1  LIG1       -0.3610
      6 H           0.0208   -2.1714   -0.0002 H       1  LIG1        0.1650
      7 H          -2.1161   -0.8314   -0.0001 H       1  LIG1        0.0845
      8 H           2.1255   -0.7711    0.0000 H       1  LIG1        0.0845
      9 O           1.4727    2.0528   -0.0001 O.3     1  LIG1       -0.5023
     10 H           0.8757    2.8117   -0.0001 H       1  LIG1        0.2923
     11 O          -1.4315    2.0855    0.0008 O.3     1  LIG1       -0.5023
     12 H          -2.3749    1.8944    0.0008 H       1  LIG1        0.2923
@<TRIPOS>BOND
     1     6     5    1
     2     9    10    1
     3     9     2    1
     4     7     4    1
     5     2     1   ar
     6     2     3   ar
     7     4     5   ar
     8     4     3   ar
     9     8     1    1
    10     1     5   ar
    11     3    11    1
    12    11    12    1
