@<TRIPOS>MOLECULE
mol_data/opt/cam/geoms/mol2/13ff13ff13ff-13ff.out
 42 45 0 0 0
SMALL
GASTEIGER

@<TRIPOS>ATOM
      1 C           1.2479   -0.0559   -0.6722 C.ar    1  LIG1        0.0480
      2 C           0.7121    1.2015   -0.7103 C.ar    1  LIG1        0.1767
      3 C          -0.6684    1.0968   -0.3952 C.ar    1  LIG1        0.1857
      4 C          -0.9508   -0.2326   -0.1689 C.ar    1  LIG1        0.1124
      5 N           0.2221   -0.9397   -0.3808 N.ar    1  LIG1       -0.3534
      6 H           0.3901   -1.8322    0.0545 H       1  LIG1        0.1656
      7 H           2.2567   -0.3905   -0.8494 H       1  LIG1        0.0845
      8 O           1.3456    2.3611   -1.0261 O.3     1  LIG1       -0.5023
      9 H           0.6874    3.0647   -0.9465 H       1  LIG1        0.2923
     10 O          -1.4831    2.1850   -0.4177 O.3     1  LIG1       -0.5019
     11 H          -2.2594    2.0161    0.1446 H       1  LIG1        0.2924
     12 C          -2.2002   -0.8568    0.1774 C.ar    1  LIG1        0.1129
     13 C          -3.3278   -0.3087    0.7300 C.ar    1  LIG1        0.1864
     14 C          -4.3206   -1.3160    0.8211 C.ar    1  LIG1        0.1864
     15 C          -3.7935   -2.4777    0.3181 C.ar    1  LIG1        0.1129
     16 N          -2.4632   -2.2109   -0.0272 N.ar    1  LIG1       -0.3458
     17 H          -2.0594   -2.6763   -0.8287 H       1  LIG1        0.1662
     18 O          -3.4480    0.9823    1.1728 O.3     1  LIG1       -0.5019
     19 H          -4.3453    1.1054    1.5091 H       1  LIG1        0.2924
     20 O          -5.5384   -1.0768    1.3863 O.3     1  LIG1       -0.5019
     21 H          -5.9481   -1.9203    1.6220 H       1  LIG1        0.2924
     22 C          -4.3588   -3.7992    0.2395 C.ar    1  LIG1        0.1129
     23 C          -3.7599   -5.0242    0.4483 C.ar    1  LIG1        0.1864
     24 C          -4.7568   -6.0193    0.3598 C.ar    1  LIG1        0.1864
     25 C          -5.9571   -5.3949    0.1071 C.ar    1  LIG1        0.1129
     26 N          -5.7132   -4.0364    0.0701 N.ar    1  LIG1       -0.3458
     27 H          -6.3643   -3.3939   -0.3589 H       1  LIG1        0.1662
     28 O          -2.4553   -5.3057    0.7457 O.3     1  LIG1       -0.5019
     29 H          -2.0351   -4.4915    1.0548 H       1  LIG1        0.2924
     30 O          -4.5972   -7.3694    0.5118 O.3     1  LIG1       -0.5019
     31 H          -3.6863   -7.5303    0.7884 H       1  LIG1        0.2924
     32 C          -7.2640   -5.9463   -0.1157 C.ar    1  LIG1        0.1124
     33 C          -8.4449   -5.3146   -0.4371 C.ar    1  LIG1        0.1857
     34 C          -9.4434   -6.3030   -0.5708 C.ar    1  LIG1        0.1767
     35 C          -8.8588   -7.5246   -0.3280 C.ar    1  LIG1        0.0480
     36 N          -7.5330   -7.2923   -0.0569 N.ar    1  LIG1       -0.3534
     37 H          -6.8292   -7.9819    0.1532 H       1  LIG1        0.1656
     38 H          -9.2776   -8.5183   -0.3241 H       1  LIG1        0.0845
     39 O          -8.5913   -3.9624   -0.5985 O.3     1  LIG1       -0.5019
     40 H          -9.4894   -3.8049   -0.9172 H       1  LIG1        0.2924
     41 O         -10.7368   -5.9634   -0.8738 O.3     1  LIG1       -0.5023
     42 H         -11.1676   -6.7018   -1.3170 H       1  LIG1        0.2923
@<TRIPOS>BOND
     1    42    41    1
     2     8     9    1
     3     8     2    1
     4    40    39    1
     5    41    34    1
     6     7     1    1
     7    17    16    1
     8     2     1   ar
     9     2     3   ar
    10     1     5   ar
    11    39    33    1
    12    34    33   ar
    13    34    35   ar
    14    33    32   ar
    15    10     3    1
    16    10    11    1
    17     3     4   ar
    18     5     4   ar
    19     5     6    1
    20    27    26    1
    21    35    38    1
    22    35    36   ar
    23     4    12    1
    24    32    36   ar
    25    32    25    1
    26    36    37    1
    27    16    12   ar
    28    16    15   ar
    29    26    25   ar
    30    26    22   ar
    31    25    24   ar
    32    12    13   ar
    33    22    15    1
    34    22    23   ar
    35    15    14   ar
    36    24    23   ar
    37    24    30    1
    38    23    28    1
    39    30    31    1
    40    13    14   ar
    41    13    18    1
    42    28    29    1
    43    14    20    1
    44    18    19    1
    45    20    21    1
