@<TRIPOS>MOLECULE
mol_data/opt/cam/geoms/mol2/13ff13ff-13ff.out
 32 34 0 0 0
SMALL
GASTEIGER

@<TRIPOS>ATOM
      1 C           1.2577   -0.2496   -0.2718 C.ar    1  LIG1        0.0480
      2 C           0.8406    1.0442   -0.0822 C.ar    1  LIG1        0.1767
      3 C          -0.5663    1.0203    0.0689 C.ar    1  LIG1        0.1857
      4 C          -0.9880   -0.2890   -0.0440 C.ar    1  LIG1        0.1124
      5 N           0.1342   -1.0481   -0.2339 N.ar    1  LIG1       -0.3534
      6 H           0.0948   -2.0411   -0.3989 H       1  LIG1        0.1656
      7 H           2.2454   -0.6522   -0.4228 H       1  LIG1        0.0845
      8 O           1.6209    2.1582   -0.0318 O.3     1  LIG1       -0.5023
      9 H           1.0213    2.9153   -0.0661 H       1  LIG1        0.2923
     10 O          -1.3585    2.1430    0.2352 O.3     1  LIG1       -0.5019
     11 H          -1.5086    2.2773    1.1803 H       1  LIG1        0.2924
     12 C          -2.3102   -0.8543    0.0013 C.ar    1  LIG1        0.1129
     13 C          -2.7134   -2.1762    0.0297 C.ar    1  LIG1        0.1864
     14 C          -4.1241   -2.1994    0.0338 C.ar    1  LIG1        0.1864
     15 C          -4.5669   -0.8938    0.0239 C.ar    1  LIG1        0.1129
     16 N          -3.4477   -0.0920    0.0136 N.ar    1  LIG1       -0.3458
     17 H          -3.4683    0.9161   -0.0566 H       1  LIG1        0.1662
     18 O          -1.8898   -3.2894   -0.0067 O.3     1  LIG1       -0.5019
     19 H          -1.7562   -3.5963    0.8999 H       1  LIG1        0.2924
     20 O          -4.9383   -3.3023    0.0685 O.3     1  LIG1       -0.5019
     21 H          -4.4275   -4.0494   -0.2684 H       1  LIG1        0.2924
     22 C          -5.9035   -0.3654    0.0199 C.ar    1  LIG1        0.1124
     23 C          -6.3432    0.9394    0.0057 C.ar    1  LIG1        0.1857
     24 C          -7.7547    0.9211   -0.0169 C.ar    1  LIG1        0.1767
     25 C          -8.1584   -0.3941   -0.0126 C.ar    1  LIG1        0.0480
     26 N          -7.0222   -1.1642    0.0052 N.ar    1  LIG1       -0.3534
     27 H          -6.9726   -2.1704    0.0013 H       1  LIG1        0.1656
     28 H          -9.1450   -0.8292   -0.0140 H       1  LIG1        0.0845
     29 O          -5.5330    2.0418    0.0135 O.3     1  LIG1       -0.5019
     30 H          -6.1000    2.8158   -0.0984 H       1  LIG1        0.2924
     31 O          -8.4800    2.0870   -0.0133 O.3     1  LIG1       -0.5023
     32 H          -9.2873    1.9613   -0.5232 H       1  LIG1        0.2923
@<TRIPOS>BOND
     1    32    31    1
     2     7     1    1
     3     6     5    1
     4     1     5   ar
     5     1     2   ar
     6    21    20    1
     7     5     4   ar
     8    30    29    1
     9     2     8    1
    10     2     3   ar
    11     9     8    1
    12    17    16    1
    13     4    12    1
    14     4     3   ar
    15    24    31    1
    16    24    25   ar
    17    24    23   ar
    18    28    25    1
    19    25    26   ar
    20    18    13    1
    21    18    19    1
    22    27    26    1
    23    12    16   ar
    24    12    13   ar
    25    26    22   ar
    26    23    29    1
    27    23    22   ar
    28    16    15   ar
    29    22    15    1
    30    15    14   ar
    31    13    14   ar
    32    14    20    1
    33     3    10    1
    34    10    11    1
