@<TRIPOS>MOLECULE
mol_data/opt/cam/geoms/mol2/13ff13ff13ff13ff-.out
 42 45 0 0 0
SMALL
GASTEIGER

@<TRIPOS>ATOM
      1 C           1.2871    0.0819    0.0314 C.ar    1  LIG1        0.0480
      2 C           0.7425    1.3125    0.2714 C.ar    1  LIG1        0.1767
      3 C          -0.6713    1.1781    0.2364 C.ar    1  LIG1        0.1857
      4 C          -0.9633   -0.1414   -0.0253 C.ar    1  LIG1        0.1124
      5 N           0.2434   -0.8200   -0.1079 N.ar    1  LIG1       -0.3534
      6 H           0.3334   -1.6573   -0.6615 H       1  LIG1        0.1656
      7 H           2.3184   -0.2251   -0.0267 H       1  LIG1        0.0845
      8 O           1.4003    2.4708    0.5392 O.3     1  LIG1       -0.5023
      9 H           0.7235    3.1538    0.6404 H       1  LIG1        0.2923
     10 O          -1.4909    2.2301    0.5003 O.3     1  LIG1       -0.5019
     11 H          -2.3604    2.0669    0.0925 H       1  LIG1        0.2924
     12 C          -2.2426   -0.7850   -0.1595 C.ar    1  LIG1        0.1129
     13 C          -3.4697   -0.2440   -0.4390 C.ar    1  LIG1        0.1864
     14 C          -4.4413   -1.2736   -0.4006 C.ar    1  LIG1        0.1864
     15 C          -3.7915   -2.4480   -0.0960 C.ar    1  LIG1        0.1129
     16 N          -2.4302   -2.1533    0.0095 N.ar    1  LIG1       -0.3458
     17 H          -1.8532   -2.6419    0.6791 H       1  LIG1        0.1662
     18 O          -3.7121    1.0674   -0.7567 O.3     1  LIG1       -0.5019
     19 H          -4.6703    1.1794   -0.8222 H       1  LIG1        0.2924
     20 O          -5.7412   -1.0282   -0.6967 O.3     1  LIG1       -0.5019
     21 H          -6.2864   -1.7598   -0.3521 H       1  LIG1        0.2924
     22 C          -4.3165   -3.7811    0.0377 C.ar    1  LIG1        0.1129
     23 C          -5.6101   -4.2096    0.2499 C.ar    1  LIG1        0.1864
     24 C          -5.6081   -5.6200    0.3029 C.ar    1  LIG1        0.1864
     25 C          -4.3113   -6.0474    0.1118 C.ar    1  LIG1        0.1129
     26 N          -3.5384   -4.9197   -0.0227 N.ar    1  LIG1       -0.3458
     27 H          -2.5788   -4.9588   -0.3318 H       1  LIG1        0.1662
     28 O          -6.7033   -3.3902    0.4230 O.3     1  LIG1       -0.5019
     29 H          -7.4889   -3.8964    0.1762 H       1  LIG1        0.2924
     30 O          -6.7257   -6.4193    0.4578 O.3     1  LIG1       -0.5019
     31 H          -6.9191   -6.4957    1.4017 H       1  LIG1        0.2924
     32 C          -3.7661   -7.3738    0.0109 C.ar    1  LIG1        0.1124
     33 C          -2.4557   -7.7932   -0.0969 C.ar    1  LIG1        0.1857
     34 C          -2.4541   -9.2028   -0.2270 C.ar    1  LIG1        0.1767
     35 C          -3.7608   -9.6209   -0.1819 C.ar    1  LIG1        0.0480
     36 N          -4.5440   -8.4981   -0.0267 N.ar    1  LIG1       -0.3534
     37 H          -5.5509   -8.4634   -0.0284 H       1  LIG1        0.1656
     38 H          -4.1795  -10.6115   -0.2433 H       1  LIG1        0.0845
     39 O          -1.3347   -6.9802   -0.1414 O.3     1  LIG1       -0.5019
     40 H          -0.9376   -6.9633    0.7396 H       1  LIG1        0.2924
     41 O          -1.3505   -9.9907   -0.3486 O.3     1  LIG1       -0.5023
     42 H          -0.6241   -9.4191   -0.6291 H       1  LIG1        0.2923
@<TRIPOS>BOND
     1    19    18    1
     2    18    13    1
     3    20    14    1
     4    20    21    1
     5     6     5    1
     6    42    41    1
     7    13    14   ar
     8    13    12   ar
     9    14    15   ar
    10    41    34    1
    11    27    26    1
    12    38    35    1
    13    34    35   ar
    14    34    33   ar
    15    35    36   ar
    16    12     4    1
    17    12    16   ar
    18    39    33    1
    19    39    40    1
    20     5     4   ar
    21     5     1   ar
    22    33    32   ar
    23    15    16   ar
    24    15    22    1
    25    37    36    1
    26    36    32   ar
    27     7     1    1
    28     4     3   ar
    29    26    22   ar
    30    26    25   ar
    31    16    17    1
    32    32    25    1
    33     1     2   ar
    34    22    23   ar
    35    11    10    1
    36    25    24   ar
    37    29    28    1
    38     3     2   ar
    39     3    10    1
    40    23    24   ar
    41    23    28    1
    42     2     8    1
    43    24    30    1
    44    30    31    1
    45     8     9    1
