@<TRIPOS>MOLECULE
mol_data/opt/cam/geoms/mol2/13ff13ff-13ff13ff-.out
 42 45 0 0 0
SMALL
GASTEIGER

@<TRIPOS>ATOM
      1 C           1.3289   -0.2146   -0.2991 C.ar    1  LIG1        0.0480
      2 C           0.9152    1.0823   -0.1224 C.ar    1  LIG1        0.1767
      3 C          -0.4913    1.0628    0.0329 C.ar    1  LIG1        0.1857
      4 C          -0.9155   -0.2472   -0.0649 C.ar    1  LIG1        0.1124
      5 N           0.2042   -1.0098   -0.2517 N.ar    1  LIG1       -0.3534
      6 H           0.1621   -2.0065   -0.3932 H       1  LIG1        0.1656
      7 H           2.3153   -0.6205   -0.4490 H       1  LIG1        0.0845
      8 O           1.6991    2.1947   -0.0864 O.3     1  LIG1       -0.5023
      9 H           1.1039    2.9536   -0.1446 H       1  LIG1        0.2923
     10 O          -1.2840    2.1872    0.1899 O.3     1  LIG1       -0.5019
     11 H          -1.4038    2.3485    1.1351 H       1  LIG1        0.2924
     12 C          -2.2387   -0.8085   -0.0096 C.ar    1  LIG1        0.1129
     13 C          -2.6466   -2.1289    0.0143 C.ar    1  LIG1        0.1864
     14 C          -4.0581   -2.1458    0.0342 C.ar    1  LIG1        0.1864
     15 C          -4.4943   -0.8369    0.0366 C.ar    1  LIG1        0.1129
     16 N          -3.3722   -0.0404    0.0201 N.ar    1  LIG1       -0.3458
     17 H          -3.3888    0.9679   -0.0442 H       1  LIG1        0.1662
     18 O          -1.8182   -3.2356   -0.0458 O.3     1  LIG1       -0.5019
     19 H          -1.7709   -3.6270    0.8363 H       1  LIG1        0.2924
     20 O          -4.8801   -3.2432    0.0827 O.3     1  LIG1       -0.5019
     21 H          -4.4504   -3.9555   -0.4077 H       1  LIG1        0.2924
     22 C          -5.8278   -0.3042    0.0345 C.ar    1  LIG1        0.1129
     23 C          -6.2640    1.0047    0.0235 C.ar    1  LIG1        0.1864
     24 C          -7.6755    0.9875    0.0031 C.ar    1  LIG1        0.1864
     25 C          -8.0834   -0.3329   -0.0123 C.ar    1  LIG1        0.1129
     26 N          -6.9499   -1.1008    0.0228 N.ar    1  LIG1       -0.3458
     27 H          -6.9333   -2.1095   -0.0350 H       1  LIG1        0.1662
     28 O          -5.4421    2.1023    0.0651 O.3     1  LIG1       -0.5019
     29 H          -5.8716    2.8114   -0.4300 H       1  LIG1        0.2924
     30 O          -8.5039    2.0939   -0.0646 O.3     1  LIG1       -0.5019
     31 H          -8.5516    2.4910    0.8150 H       1  LIG1        0.2924
     32 C          -9.4066   -0.8946   -0.0645 C.ar    1  LIG1        0.1124
     33 C          -9.8308   -2.2039    0.0417 C.ar    1  LIG1        0.1857
     34 C         -11.2372   -2.2244   -0.1140 C.ar    1  LIG1        0.1767
     35 C         -11.6508   -0.9287   -0.2994 C.ar    1  LIG1        0.0480
     36 N         -10.5262   -0.1332   -0.2566 N.ar    1  LIG1       -0.3534
     37 H         -10.4840    0.8626   -0.4044 H       1  LIG1        0.1656
     38 H         -12.6372   -0.5238   -0.4523 H       1  LIG1        0.0845
     39 O          -9.0381   -3.3272    0.2064 O.3     1  LIG1       -0.5019
     40 H          -8.9189   -3.4824    1.1527 H       1  LIG1        0.2924
     41 O         -12.0212   -3.3365   -0.0710 O.3     1  LIG1       -0.5023
     42 H         -11.4259   -4.0958   -0.1241 H       1  LIG1        0.2923
@<TRIPOS>BOND
     1    38    35    1
     2     7     1    1
     3    29    28    1
     4    21    20    1
     5    37    36    1
     6     6     5    1
     7    35    36   ar
     8    35    34   ar
     9     1     5   ar
    10     1     2   ar
    11    36    32   ar
    12     5     4   ar
    13     9     8    1
    14    42    41    1
    15     2     8    1
    16     2     3   ar
    17    34    41    1
    18    34    33   ar
    19     4    12    1
    20     4     3   ar
    21    30    24    1
    22    30    31    1
    23    32    25    1
    24    32    33   ar
    25    18    13    1
    26    18    19    1
    27    17    16    1
    28    27    26    1
    29    25    24   ar
    30    25    26   ar
    31    12    13   ar
    32    12    16   ar
    33    24    23   ar
    34    13    14   ar
    35    16    15   ar
    36    26    22   ar
    37    23    22   ar
    38    23    28    1
    39     3    10    1
    40    14    15   ar
    41    14    20    1
    42    22    15    1
    43    33    39    1
    44    10    11    1
    45    39    40    1
