@<TRIPOS>MOLECULE
mol_data/opt/cam/geoms/mol2/13ff13ff13ff13ff.out
 42 45 0 0 0
SMALL
GASTEIGER

@<TRIPOS>ATOM
      1 C           1.3087    0.2025   -0.1028 C.ar    1  LIG1        0.0480
      2 C           0.7431    1.4182    0.1629 C.ar    1  LIG1        0.1767
      3 C          -0.6673    1.2486    0.1821 C.ar    1  LIG1        0.1857
      4 C          -0.9366   -0.0771   -0.0734 C.ar    1  LIG1        0.1124
      5 N           0.2827   -0.7249   -0.2045 N.ar    1  LIG1       -0.3534
      6 H           0.3718   -1.5574   -0.7651 H       1  LIG1        0.1656
      7 H           2.3444   -0.0787   -0.2002 H       1  LIG1        0.0845
      8 O           1.3812    2.5921    0.4099 O.3     1  LIG1       -0.5023
      9 H           0.6914    3.2563    0.5432 H       1  LIG1        0.2923
     10 O          -1.5011    2.2794    0.4820 O.3     1  LIG1       -0.5019
     11 H          -2.3835    2.0930    0.1133 H       1  LIG1        0.2924
     12 C          -2.2042   -0.7517   -0.1613 C.ar    1  LIG1        0.1129
     13 C          -3.4543   -0.2379   -0.3874 C.ar    1  LIG1        0.1864
     14 C          -4.3997   -1.2901   -0.3214 C.ar    1  LIG1        0.1864
     15 C          -3.7094   -2.4513   -0.0547 C.ar    1  LIG1        0.1129
     16 N          -2.3525   -2.1259   -0.0008 N.ar    1  LIG1       -0.3458
     17 H          -1.7426   -2.6142    0.6393 H       1  LIG1        0.1662
     18 O          -3.7410    1.0698   -0.6835 O.3     1  LIG1       -0.5019
     19 H          -4.7037    1.1584   -0.7044 H       1  LIG1        0.2924
     20 O          -5.7149   -1.0730   -0.5667 O.3     1  LIG1       -0.5019
     21 H          -6.2373   -1.8070   -0.1926 H       1  LIG1        0.2924
     22 C          -4.2004   -3.7919    0.1030 C.ar    1  LIG1        0.1129
     23 C          -5.4722   -4.2343    0.3600 C.ar    1  LIG1        0.1864
     24 C          -5.4707   -5.6502    0.3687 C.ar    1  LIG1        0.1864
     25 C          -4.1833   -6.0646    0.1185 C.ar    1  LIG1        0.1129
     26 N          -3.3917   -4.9200   -0.0022 N.ar    1  LIG1       -0.3458
     27 H          -2.6189   -4.9066   -0.6526 H       1  LIG1        0.1662
     28 O          -6.5584   -3.4394    0.6232 O.3     1  LIG1       -0.5019
     29 H          -7.3348   -4.0137    0.6748 H       1  LIG1        0.2924
     30 O          -6.5916   -6.3565    0.6540 O.3     1  LIG1       -0.5019
     31 H          -6.4966   -7.2610    0.3007 H       1  LIG1        0.2924
     32 C          -3.6556   -7.4013    0.0391 C.ar    1  LIG1        0.1124
     33 C          -4.3108   -8.5847   -0.2032 C.ar    1  LIG1        0.1857
     34 C          -3.3702   -9.6383   -0.1357 C.ar    1  LIG1        0.1767
     35 C          -2.1466   -9.0874    0.1432 C.ar    1  LIG1        0.0480
     36 N          -2.3249   -7.7178    0.2166 N.ar    1  LIG1       -0.3534
     37 H          -1.6811   -7.0957    0.6764 H       1  LIG1        0.1656
     38 H          -1.1771   -9.5428    0.2677 H       1  LIG1        0.0845
     39 O          -5.6481   -8.7035   -0.4994 O.3     1  LIG1       -0.5019
     40 H          -5.8693   -9.6438   -0.5148 H       1  LIG1        0.2924
     41 O          -3.7584  -10.9269   -0.3673 O.3     1  LIG1       -0.5023
     42 H          -3.0258  -11.5276   -0.1945 H       1  LIG1        0.2923
@<TRIPOS>BOND
     1     6     5    1
     2    19    18    1
     3    18    13    1
     4    27    26    1
     5    20    14    1
     6    20    21    1
     7    40    39    1
     8    39    33    1
     9    13    14   ar
    10    13    12   ar
    11    41    42    1
    12    41    34    1
    13    14    15   ar
    14     5     1   ar
    15     5     4   ar
    16    33    34   ar
    17    33    32   ar
    18     7     1    1
    19    12     4    1
    20    12    16   ar
    21    34    35   ar
    22     1     2   ar
    23     4     3   ar
    24    15    16   ar
    25    15    22    1
    26    26    22   ar
    27    26    25   ar
    28    16    17    1
    29    32    25    1
    30    32    36   ar
    31    22    23   ar
    32    11    10    1
    33    25    24   ar
    34    35    36   ar
    35    35    38    1
    36     2     3   ar
    37     2     8    1
    38     3    10    1
    39    36    37    1
    40    31    30    1
    41    23    24   ar
    42    23    28    1
    43    24    30    1
    44     8     9    1
    45    28    29    1
