@<TRIPOS>MOLECULE
mol_data/opt/cam/geoms/mol2/13ff13ff-13ff-13ff-.out
 42 45 0 0 0
SMALL
GASTEIGER

@<TRIPOS>ATOM
      1 C           1.3982   -0.4827   -0.5728 C.ar    1  LIG1        0.0480
      2 C           1.1307    0.7506   -0.0471 C.ar    1  LIG1        0.1767
      3 C          -0.2624    0.8076    0.2256 C.ar    1  LIG1        0.1857
      4 C          -0.8232   -0.3907   -0.1418 C.ar    1  LIG1        0.1124
      5 N           0.2125   -1.2030   -0.5833 N.ar    1  LIG1       -0.3534
      6 H           0.0423   -1.9476   -1.2420 H       1  LIG1        0.1656
      7 H           2.3291   -0.9097   -0.9075 H       1  LIG1        0.0845
      8 O           2.0208    1.7417    0.2111 O.3     1  LIG1       -0.5023
      9 H           1.5394    2.4526    0.6544 H       1  LIG1        0.2923
     10 O          -0.8469    1.9014    0.8042 O.3     1  LIG1       -0.5019
     11 H          -1.6414    1.6143    1.2730 H       1  LIG1        0.2924
     12 C          -2.1802   -0.8616   -0.0223 C.ar    1  LIG1        0.1129
     13 C          -2.6532   -2.1097    0.3005 C.ar    1  LIG1        0.1864
     14 C          -4.0652   -2.0439    0.3471 C.ar    1  LIG1        0.1864
     15 C          -4.4504   -0.7583    0.0552 C.ar    1  LIG1        0.1129
     16 N          -3.2875   -0.0180   -0.1183 N.ar    1  LIG1       -0.3458
     17 H          -3.2734    0.7754   -0.7427 H       1  LIG1        0.1662
     18 O          -1.9671   -3.2514    0.5971 O.3     1  LIG1       -0.5019
     19 H          -1.0557   -3.0152    0.8186 H       1  LIG1        0.2924
     20 O          -4.9151   -3.0672    0.6802 O.3     1  LIG1       -0.5019
     21 H          -4.3897   -3.8613    0.8425 H       1  LIG1        0.2924
     22 C          -5.7688   -0.2012   -0.0705 C.ar    1  LIG1        0.1129
     23 C          -6.9748   -0.8341   -0.2754 C.ar    1  LIG1        0.1864
     24 C          -7.9741    0.1660   -0.3512 C.ar    1  LIG1        0.1864
     25 C          -7.3846    1.3929   -0.1917 C.ar    1  LIG1        0.1129
     26 N          -6.0171    1.1733   -0.0638 N.ar    1  LIG1       -0.3458
     27 H          -5.4780    1.7850    0.5322 H       1  LIG1        0.1662
     28 O          -7.2746   -2.1421   -0.4642 O.3     1  LIG1       -0.5019
     29 H          -6.5627   -2.6944   -0.0929 H       1  LIG1        0.2924
     30 O          -9.3039   -0.0564   -0.5980 O.3     1  LIG1       -0.5019
     31 H          -9.4485   -1.0123   -0.5802 H       1  LIG1        0.2924
     32 C          -7.9832    2.6993   -0.1328 C.ar    1  LIG1        0.1124
     33 C          -9.2828    3.0540    0.1527 C.ar    1  LIG1        0.1857
     34 C          -9.3712    4.4703    0.0902 C.ar    1  LIG1        0.1767
     35 C          -8.1336    4.9543   -0.2305 C.ar    1  LIG1        0.0480
     36 N          -7.2708    3.8736   -0.3252 N.ar    1  LIG1       -0.3534
     37 H          -6.4500    3.8977   -0.9093 H       1  LIG1        0.1656
     38 H          -7.7967    5.9678   -0.3738 H       1  LIG1        0.0845
     39 O         -10.3495    2.2928    0.5123 O.3     1  LIG1       -0.5019
     40 H         -10.2266    1.3888    0.1710 H       1  LIG1        0.2924
     41 O         -10.4972    5.1850    0.3489 O.3     1  LIG1       -0.5023
     42 H         -11.1973    4.5417    0.5243 H       1  LIG1        0.2923
@<TRIPOS>BOND
     1     6     5    1
     2    37    36    1
     3     7     1    1
     4    17    16    1
     5    30    31    1
     6    30    24    1
     7     5     1   ar
     8     5     4   ar
     9     1     2   ar
    10    28    23    1
    11    28    29    1
    12    38    35    1
    13    24    23   ar
    14    24    25   ar
    15    36    35   ar
    16    36    32   ar
    17    23    22   ar
    18    35    34   ar
    19    25    32    1
    20    25    26   ar
    21     4    12    1
    22     4     3   ar
    23    32    33   ar
    24    16    12   ar
    25    16    15   ar
    26    22    26   ar
    27    22    15    1
    28    26    27    1
    29     2     8    1
    30     2     3   ar
    31    12    13   ar
    32    15    14   ar
    33    34    33   ar
    34    34    41    1
    35    33    39    1
    36    40    39    1
    37     8     9    1
    38     3    10    1
    39    13    14   ar
    40    13    18    1
    41    14    20    1
    42    41    42    1
    43    18    19    1
    44    20    21    1
    45    10    11    1
