@<TRIPOS>MOLECULE
mol_data/opt/cam/geoms/mol2/13fg13fg13fg-13fg-.out
 42 45 0 0 0
SMALL
GASTEIGER

@<TRIPOS>ATOM
      1 C           0.7810    0.6469    1.4934 C.ar    1  LIG1        0.0453
      2 C           0.7413    1.3471    0.3176 C.ar    1  LIG1        0.1478
      3 C          -0.4115    0.9271   -0.4064 C.ar    1  LIG1        0.0732
      4 C          -1.0603   -0.0201    0.3633 C.ar    1  LIG1        0.0835
      5 N          -0.3159   -0.1951    1.5014 N.ar    1  LIG1       -0.3555
      6 H          -0.6685   -0.6500    2.3273 H       1  LIG1        0.1655
      7 H           1.4942    0.6715    2.3005 H       1  LIG1        0.0845
      8 O           1.6561    2.2555   -0.0972 O.3     1  LIG1       -0.5042
      9 H           1.3199    2.6430   -0.9188 H       1  LIG1        0.2923
     10 S          -0.7954    1.4791   -2.0359 S.3     1  LIG1       -0.1370
     11 H          -1.9827    2.0539   -1.7656 H       1  LIG1        0.1073
     12 C          -2.3040   -0.7222    0.1306 C.ar    1  LIG1        0.1076
     13 C          -3.5310   -0.2637   -0.2954 C.ar    1  LIG1        0.1573
     14 C          -4.4287   -1.3617   -0.3483 C.ar    1  LIG1        0.0739
     15 C          -3.7329   -2.4848    0.0683 C.ar    1  LIG1        0.0840
     16 N          -2.4576   -2.0822    0.3555 N.ar    1  LIG1       -0.3479
     17 H          -1.7284   -2.6875    0.6943 H       1  LIG1        0.1661
     18 O          -3.8233    1.0254   -0.5968 O.3     1  LIG1       -0.5035
     19 H          -4.7741    1.0670   -0.7814 H       1  LIG1        0.2923
     20 S          -6.0819   -1.2384   -0.9462 S.3     1  LIG1       -0.1370
     21 H          -6.7195   -1.5987    0.1834 H       1  LIG1        0.1073
     22 C          -4.1719   -3.8526    0.2324 C.ar    1  LIG1        0.1077
     23 C          -5.3085   -4.3712    0.8040 C.ar    1  LIG1        0.1573
     24 C          -5.2387   -5.7918    0.7378 C.ar    1  LIG1        0.0739
     25 C          -4.0540   -6.1154    0.1069 C.ar    1  LIG1        0.0840
     26 N          -3.3951   -4.9403   -0.1649 N.ar    1  LIG1       -0.3479
     27 H          -2.7230   -4.8645   -0.9138 H       1  LIG1        0.1661
     28 O          -6.2895   -3.6522    1.3987 O.3     1  LIG1       -0.5035
     29 H          -6.9839   -4.2763    1.6607 H       1  LIG1        0.2923
     30 S          -6.4228   -6.8531    1.4987 S.3     1  LIG1       -0.1370
     31 H          -6.8601   -7.4731    0.3867 H       1  LIG1        0.1073
     32 C          -3.5248   -7.4020   -0.2852 C.ar    1  LIG1        0.1072
     33 C          -4.1404   -8.4947   -0.8540 C.ar    1  LIG1        0.1566
     34 C          -3.1552   -9.4982   -1.0688 C.ar    1  LIG1        0.0643
     35 C          -1.9522   -8.9823   -0.6396 C.ar    1  LIG1        0.0191
     36 N          -2.1782   -7.7255   -0.1801 N.ar    1  LIG1       -0.3555
     37 H          -1.5065   -7.1602    0.3125 H       1  LIG1        0.1655
     38 H          -0.9704   -9.4293   -0.6331 H       1  LIG1        0.0819
     39 O          -5.4492   -8.5734   -1.1907 O.3     1  LIG1       -0.5035
     40 H          -5.5723   -9.4016   -1.6795 H       1  LIG1        0.2923
     41 S          -3.4628  -11.0415   -1.8640 S.3     1  LIG1       -0.1377
     42 H          -3.7947  -11.7702   -0.7800 H       1  LIG1        0.1073
@<TRIPOS>BOND
     1    10    11    1
     2    10     3    1
     3    41    34    1
     4    41    42    1
     5    40    39    1
     6    39    33    1
     7    34    33   ar
     8    34    35   ar
     9    20    14    1
    10    20    21    1
    11     9     8    1
    12    27    26    1
    13    33    32   ar
    14    19    18    1
    15    35    38    1
    16    35    36   ar
    17    18    13    1
    18     3     2   ar
    19     3     4   ar
    20    14    13   ar
    21    14    15   ar
    22    13    12   ar
    23    32    36   ar
    24    32    25    1
    25    36    37    1
    26    26    25   ar
    27    26    22   ar
    28     8     2    1
    29    15    22    1
    30    15    16   ar
    31    25    24   ar
    32    12    16   ar
    33    12     4    1
    34    22    23   ar
    35     2     1   ar
    36    16    17    1
    37     4     5   ar
    38    31    30    1
    39    24    23   ar
    40    24    30    1
    41    23    28    1
    42    28    29    1
    43     1     5   ar
    44     1     7    1
    45     5     6    1
