@<TRIPOS>MOLECULE
mol_data/opt/cam/geoms/mol2/13fg13fg-.out
 22 23 0 0 0
SMALL
GASTEIGER

@<TRIPOS>ATOM
      1 C           1.1475   -0.2781   -0.5745 C.ar    1  LIG1        0.0453
      2 C           0.7905    0.9408   -0.0625 C.ar    1  LIG1        0.1478
      3 C          -0.5772    0.8704    0.3287 C.ar    1  LIG1        0.0732
      4 C          -1.0274   -0.4020    0.0285 C.ar    1  LIG1        0.0835
      5 N           0.0318   -1.0903   -0.5012 N.ar    1  LIG1       -0.3555
      6 H          -0.0619   -1.9675   -0.9855 H       1  LIG1        0.1655
      7 H           2.0895   -0.6267   -0.9639 H       1  LIG1        0.0845
      8 O           1.6051    2.0136    0.0744 O.3     1  LIG1       -0.5042
      9 H           1.0591    2.7465    0.3954 H       1  LIG1        0.2923
     10 S          -1.4260    2.1787    1.1503 S.3     1  LIG1       -0.1370
     11 H          -2.3603    2.4180    0.2109 H       1  LIG1        0.1073
     12 C          -2.3450   -0.9869    0.1669 C.ar    1  LIG1        0.1072
     13 C          -3.5885   -0.4979   -0.1609 C.ar    1  LIG1        0.1566
     14 C          -4.5567   -1.4890    0.1644 C.ar    1  LIG1        0.0643
     15 C          -3.8750   -2.5620    0.6951 C.ar    1  LIG1        0.0191
     16 N          -2.5511   -2.2634    0.6748 N.ar    1  LIG1       -0.3555
     17 H          -1.8295   -2.8027    1.1246 H       1  LIG1        0.1655
     18 H          -4.2487   -3.4971    1.0819 H       1  LIG1        0.0819
     19 O          -3.8354    0.7039   -0.7365 O.3     1  LIG1       -0.5035
     20 H          -4.7979    0.8112   -0.7725 H       1  LIG1        0.2923
     21 S          -6.2969   -1.2879   -0.0347 S.3     1  LIG1       -0.1377
     22 H          -6.4207   -1.7500   -1.2949 H       1  LIG1        0.1073
@<TRIPOS>BOND
     1    22    21    1
     2     6     5    1
     3     7     1    1
     4    20    19    1
     5    19    13    1
     6     1     5   ar
     7     1     2   ar
     8     5     4   ar
     9    13    14   ar
    10    13    12   ar
    11     2     8    1
    12     2     3   ar
    13    21    14    1
    14     4    12    1
    15     4     3   ar
    16     8     9    1
    17    14    15   ar
    18    12    16   ar
    19    11    10    1
    20     3    10    1
    21    16    15   ar
    22    16    17    1
    23    15    18    1
