@<TRIPOS>MOLECULE
mol_data/opt/cam/geoms/mol2/13fg13fg-13fg13fg-.out
 42 45 0 0 0
SMALL
GASTEIGER

@<TRIPOS>ATOM
      1 C           0.6954    0.4104   -1.9156 C.ar    1  LIG1        0.0453
      2 C           0.8045    1.1587   -0.7741 C.ar    1  LIG1        0.1478
      3 C          -0.2838    0.8198    0.0800 C.ar    1  LIG1        0.0732
      4 C          -1.0453   -0.1283   -0.5775 C.ar    1  LIG1        0.0835
      5 N          -0.4297   -0.3806   -1.7761 N.ar    1  LIG1       -0.3555
      6 H          -0.8787   -0.8588   -2.5397 H       1  LIG1        0.1655
      7 H           1.3223    0.3711   -2.7908 H       1  LIG1        0.0845
      8 O           1.7926    2.0421   -0.4954 O.3     1  LIG1       -0.5042
      9 H           1.5577    2.4791    0.3366 H       1  LIG1        0.2923
     10 S          -0.4788    1.4538    1.7133 S.3     1  LIG1       -0.1370
     11 H          -1.6649    2.0663    1.5370 H       1  LIG1        0.1073
     12 C          -2.2864   -0.7632   -0.1884 C.ar    1  LIG1        0.1076
     13 C          -3.4441   -0.2285    0.3324 C.ar    1  LIG1        0.1573
     14 C          -4.3757   -1.2803    0.5304 C.ar    1  LIG1        0.0739
     15 C          -3.7725   -2.4528    0.1081 C.ar    1  LIG1        0.0840
     16 N          -2.5162   -2.1240   -0.3240 N.ar    1  LIG1       -0.3479
     17 H          -1.8567   -2.7709   -0.7241 H       1  LIG1        0.1661
     18 O          -3.6501    1.0857    0.5946 O.3     1  LIG1       -0.5035
     19 H          -4.5767    1.1821    0.8626 H       1  LIG1        0.2923
     20 S          -5.9603   -1.0558    1.2692 S.3     1  LIG1       -0.1370
     21 H          -6.7111   -1.4499    0.2232 H       1  LIG1        0.1073
     22 C          -4.2943   -3.8016    0.0556 C.ar    1  LIG1        0.1077
     23 C          -5.4907   -4.2799   -0.4312 C.ar    1  LIG1        0.1573
     24 C          -5.5174   -5.6874   -0.2550 C.ar    1  LIG1        0.0739
     25 C          -4.3168   -6.0536    0.3294 C.ar    1  LIG1        0.0840
     26 N          -3.5889   -4.9088    0.5040 N.ar    1  LIG1       -0.3479
     27 H          -2.6667   -4.8714    0.9063 H       1  LIG1        0.1661
     28 O          -6.4631   -3.5233   -0.9957 O.3     1  LIG1       -0.5035
     29 H          -7.1480   -4.1299   -1.3163 H       1  LIG1        0.2923
     30 S          -6.9073   -6.6945   -0.6551 S.3     1  LIG1       -0.1370
     31 H          -6.3225   -7.4521   -1.6021 H       1  LIG1        0.1073
     32 C          -3.8157   -7.3639    0.6883 C.ar    1  LIG1        0.1072
     33 C          -3.7898   -8.5401   -0.0247 C.ar    1  LIG1        0.1566
     34 C          -3.1639   -9.5342    0.7783 C.ar    1  LIG1        0.0643
     35 C          -2.8313   -8.9365    1.9739 C.ar    1  LIG1        0.0191
     36 N          -3.2030   -7.6330    1.9065 N.ar    1  LIG1       -0.3555
     37 H          -3.2171   -6.9987    2.6888 H       1  LIG1        0.1655
     38 H          -2.3671   -9.3573    2.8521 H       1  LIG1        0.0819
     39 O          -4.2430   -8.7019   -1.2910 O.3     1  LIG1       -0.5035
     40 H          -4.1684   -9.6449   -1.5033 H       1  LIG1        0.2923
     41 S          -2.9519  -11.2170    0.2970 S.3     1  LIG1       -0.1377
     42 H          -1.7462  -11.1154   -0.2968 H       1  LIG1        0.1073
@<TRIPOS>BOND
     1     7     1    1
     2     6     5    1
     3     1     5   ar
     4     1     2   ar
     5     5     4   ar
     6    31    30    1
     7    40    39    1
     8    29    28    1
     9    39    33    1
    10    28    23    1
    11     2     8    1
    12     2     3   ar
    13    17    16    1
    14    30    24    1
    15     4    12    1
    16     4     3   ar
    17     8     9    1
    18    23    24   ar
    19    23    22   ar
    20    16    12   ar
    21    16    15   ar
    22    42    41    1
    23    24    25   ar
    24    12    13   ar
    25    33    32   ar
    26    33    34   ar
    27    22    15    1
    28    22    26   ar
    29     3    10    1
    30    15    14   ar
    31    21    20    1
    32    41    34    1
    33    25    26   ar
    34    25    32    1
    35    13    14   ar
    36    13    18    1
    37    26    27    1
    38    14    20    1
    39    18    19    1
    40    32    36   ar
    41    34    35   ar
    42    11    10    1
    43    36    35   ar
    44    36    37    1
    45    35    38    1
