@<TRIPOS>MOLECULE
mol_data/opt/cam/geoms/mol2/13fg13fg-13fg-13fg.out
 42 45 0 0 0
SMALL
GASTEIGER

@<TRIPOS>ATOM
      1 C           0.7060    0.3924    1.9273 C.ar    1  LIG1        0.0453
      2 C           0.8110    1.1497    0.7914 C.ar    1  LIG1        0.1478
      3 C          -0.2811    0.8184   -0.0609 C.ar    1  LIG1        0.0732
      4 C          -1.0405   -0.1344    0.5921 C.ar    1  LIG1        0.0835
      5 N          -0.4202   -0.3967    1.7862 N.ar    1  LIG1       -0.3555
      6 H          -0.8664   -0.8807    2.5477 H       1  LIG1        0.1655
      7 H           1.3365    0.3456    2.7996 H       1  LIG1        0.0845
      8 O           1.7985    2.0347    0.5158 O.3     1  LIG1       -0.5042
      9 H           1.5606    2.4784   -0.3116 H       1  LIG1        0.2923
     10 S          -0.4822    1.4657   -1.6882 S.3     1  LIG1       -0.1370
     11 H          -1.6672    2.0776   -1.5022 H       1  LIG1        0.1073
     12 C          -2.2837   -0.7653    0.2030 C.ar    1  LIG1        0.1076
     13 C          -3.4431   -0.2257   -0.3088 C.ar    1  LIG1        0.1573
     14 C          -4.3763   -1.2751   -0.5113 C.ar    1  LIG1        0.0739
     15 C          -3.7721   -2.4515   -0.1010 C.ar    1  LIG1        0.0840
     16 N          -2.5139   -2.1270    0.3286 N.ar    1  LIG1       -0.3479
     17 H          -1.8533   -2.7775    0.7209 H       1  LIG1        0.1661
     18 O          -3.6492    1.0908   -0.5596 O.3     1  LIG1       -0.5035
     19 H          -4.5768    1.1899   -0.8230 H       1  LIG1        0.2923
     20 S          -5.9637   -1.0437   -1.2418 S.3     1  LIG1       -0.1370
     21 H          -6.7105   -1.4457   -0.1960 H       1  LIG1        0.1073
     22 C          -4.2947   -3.8002   -0.0571 C.ar    1  LIG1        0.1077
     23 C          -5.4895   -4.2816    0.4307 C.ar    1  LIG1        0.1573
     24 C          -5.5179   -5.6877    0.2434 C.ar    1  LIG1        0.0739
     25 C          -4.3200   -6.0500   -0.3489 C.ar    1  LIG1        0.0840
     26 N          -3.5920   -4.9043   -0.5173 N.ar    1  LIG1       -0.3479
     27 H          -2.6714   -4.8644   -0.9230 H       1  LIG1        0.1661
     28 O          -6.4590   -3.5289    1.0052 O.3     1  LIG1       -0.5035
     29 H          -7.1430   -4.1376    1.3238 H       1  LIG1        0.2923
     30 S          -6.9069   -6.6970    0.6411 S.3     1  LIG1       -0.1370
     31 H          -6.3188   -7.4625    1.5796 H       1  LIG1        0.1073
     32 C          -3.8213   -7.3577   -0.7203 C.ar    1  LIG1        0.1072
     33 C          -3.7933   -8.5396   -0.0169 C.ar    1  LIG1        0.1566
     34 C          -3.1714   -9.5276   -0.8303 C.ar    1  LIG1        0.0643
     35 C          -2.8432   -8.9206   -2.0225 C.ar    1  LIG1        0.0191
     36 N          -3.2138   -7.6174   -1.9431 N.ar    1  LIG1       -0.3555
     37 H          -3.2306   -6.9769   -2.7202 H       1  LIG1        0.1655
     38 H          -2.3829   -9.3346   -2.9059 H       1  LIG1        0.0819
     39 O          -4.2415   -8.7112    1.2499 O.3     1  LIG1       -0.5035
     40 H          -4.1666   -9.6559    1.4544 H       1  LIG1        0.2923
     41 S          -2.9586  -11.2144   -0.3635 S.3     1  LIG1       -0.1377
     42 H          -1.7504  -11.1184    0.2262 H       1  LIG1        0.1073
@<TRIPOS>BOND
     1    38    35    1
     2    37    36    1
     3    35    36   ar
     4    35    34   ar
     5    36    32   ar
     6    10    11    1
     7    10     3    1
     8    20    14    1
     9    20    21    1
    10    27    26    1
    11    34    41    1
    12    34    33   ar
    13    19    18    1
    14    32    25    1
    15    32    33   ar
    16    18    13    1
    17    26    25   ar
    18    26    22   ar
    19    14    13   ar
    20    14    15   ar
    21    41    42    1
    22    25    24   ar
    23     9     8    1
    24    13    12   ar
    25    15    22    1
    26    15    16   ar
    27     3     4   ar
    28     3     2   ar
    29    22    23   ar
    30    33    39    1
    31    12    16   ar
    32    12     4    1
    33    24    23   ar
    34    24    30    1
    35    16    17    1
    36    23    28    1
    37     8     2    1
    38     4     5   ar
    39    30    31    1
    40     2     1   ar
    41    28    29    1
    42    39    40    1
    43     5     1   ar
    44     5     6    1
    45     1     7    1
