@<TRIPOS>MOLECULE
mol_data/opt/cam/geoms/mol2/13fg13fg13fg-.out
 32 34 0 0 0
SMALL
GASTEIGER

@<TRIPOS>ATOM
      1 C           1.0710   -0.0661    1.1262 C.ar    1  LIG1        0.0453
      2 C           0.8734    0.9694    0.2525 C.ar    1  LIG1        0.1478
      3 C          -0.4223    0.8208   -0.3202 C.ar    1  LIG1        0.0732
      4 C          -0.9932   -0.3082    0.2368 C.ar    1  LIG1        0.0835
      5 N          -0.0700   -0.8460    1.0960 N.ar    1  LIG1       -0.3555
      6 H          -0.2979   -1.5358    1.7927 H       1  LIG1        0.1655
      7 H           1.9195   -0.3105    1.7434 H       1  LIG1        0.0845
      8 O           1.7669    1.9447   -0.0380 O.3     1  LIG1       -0.5042
      9 H           1.3184    2.5784   -0.6172 H       1  LIG1        0.2923
     10 S          -1.0533    1.8658   -1.5921 S.3     1  LIG1       -0.1370
     11 H          -2.1225    2.3444   -0.9282 H       1  LIG1        0.1073
     12 C          -2.3117   -0.8762    0.0531 C.ar    1  LIG1        0.1076
     13 C          -3.5534   -0.2801    0.0403 C.ar    1  LIG1        0.1573
     14 C          -4.5326   -1.2855   -0.1693 C.ar    1  LIG1        0.0739
     15 C          -3.8681   -2.4963   -0.2661 C.ar    1  LIG1        0.0840
     16 N          -2.5330   -2.2332   -0.1258 N.ar    1  LIG1       -0.3479
     17 H          -1.8050   -2.9285   -0.1354 H       1  LIG1        0.1661
     18 O          -3.7879    1.0437    0.2155 O.3     1  LIG1       -0.5035
     19 H          -4.7495    1.1626    0.2437 H       1  LIG1        0.2923
     20 S          -6.2537   -0.9502   -0.3481 S.3     1  LIG1       -0.1370
     21 H          -6.6895   -1.6308    0.7287 H       1  LIG1        0.1073
     22 C          -4.3904   -3.8355   -0.4408 C.ar    1  LIG1        0.1072
     23 C          -5.4176   -4.4888    0.2000 C.ar    1  LIG1        0.1566
     24 C          -5.5126   -5.8036   -0.3357 C.ar    1  LIG1        0.0643
     25 C          -4.5401   -5.9158   -1.3049 C.ar    1  LIG1        0.0191
     26 N          -3.8577   -4.7434   -1.3483 N.ar    1  LIG1       -0.3555
     27 H          -3.1931   -4.4908   -2.0615 H       1  LIG1        0.1655
     28 H          -4.3043   -6.7431   -1.9559 H       1  LIG1        0.0819
     29 O          -6.1735   -3.9744    1.1999 O.3     1  LIG1       -0.5035
     30 H          -6.8641   -4.6245    1.4001 H       1  LIG1        0.2923
     31 S          -6.7216   -6.9927    0.1465 S.3     1  LIG1       -0.1377
     32 H          -6.0455   -7.5854    1.1507 H       1  LIG1        0.1073
@<TRIPOS>BOND
     1    27    26    1
     2    28    25    1
     3    10    11    1
     4    10     3    1
     5    26    25   ar
     6    26    22   ar
     7    25    24   ar
     8     9     8    1
     9    22    15    1
    10    22    23   ar
    11    20    14    1
    12    20    21    1
    13    24    31    1
    14    24    23   ar
    15     3     4   ar
    16     3     2   ar
    17    15    14   ar
    18    15    16   ar
    19    14    13   ar
    20    17    16    1
    21    16    12   ar
    22     8     2    1
    23    13    12   ar
    24    13    18    1
    25    12     4    1
    26    31    32    1
    27    23    29    1
    28    18    19    1
    29     4     5   ar
    30     2     1   ar
    31     5     1   ar
    32     5     6    1
    33     1     7    1
    34    29    30    1
