@<TRIPOS>MOLECULE
mol_data/opt/cam/geoms/mol2/13fg13fg-13fg13fg.out
 42 45 0 0 0
SMALL
GASTEIGER

@<TRIPOS>ATOM
      1 C           1.2806    0.1732    0.1344 C.ar    1  LIG1        0.0453
      2 C           0.7315    1.3413   -0.3221 C.ar    1  LIG1        0.1478
      3 C          -0.6818    1.1713   -0.3817 C.ar    1  LIG1        0.0732
      4 C          -0.9621   -0.1088    0.0611 C.ar    1  LIG1        0.0835
      5 N           0.2361   -0.7073    0.3494 N.ar    1  LIG1       -0.3555
      6 H           0.3130   -1.5591    0.8794 H       1  LIG1        0.1655
      7 H           2.3087   -0.0993    0.3050 H       1  LIG1        0.0845
      8 O           1.4159    2.4522   -0.6845 O.3     1  LIG1       -0.5042
      9 H           0.7604    3.1349   -0.8907 H       1  LIG1        0.2923
     10 S          -1.7795    2.3823   -1.0411 S.3     1  LIG1       -0.1370
     11 H          -2.5078    2.6056    0.0691 H       1  LIG1        0.1073
     12 C          -2.2273   -0.7815    0.2558 C.ar    1  LIG1        0.1076
     13 C          -3.4086   -0.3457    0.8066 C.ar    1  LIG1        0.1573
     14 C          -4.3399   -1.4223    0.7882 C.ar    1  LIG1        0.0739
     15 C          -3.7067   -2.5031    0.2051 C.ar    1  LIG1        0.0840
     16 N          -2.4183   -2.1201   -0.0804 N.ar    1  LIG1       -0.3479
     17 H          -1.8676   -2.5718   -0.7943 H       1  LIG1        0.1661
     18 O          -3.6223    0.8780    1.3468 O.3     1  LIG1       -0.5035
     19 H          -4.5580    0.9208    1.5972 H       1  LIG1        0.2923
     20 S          -5.9252   -1.3361    1.5535 S.3     1  LIG1       -0.1370
     21 H          -6.6735   -1.5753    0.4603 H       1  LIG1        0.1073
     22 C          -4.2061   -3.8173   -0.1244 C.ar    1  LIG1        0.1077
     23 C          -5.4147   -4.2234   -0.6410 C.ar    1  LIG1        0.1573
     24 C          -5.3796   -5.6357   -0.8121 C.ar    1  LIG1        0.0739
     25 C          -4.1415   -6.0712   -0.3825 C.ar    1  LIG1        0.0840
     26 N          -3.4244   -4.9636   -0.0008 N.ar    1  LIG1       -0.3479
     27 H          -2.6540   -5.0147    0.6478 H       1  LIG1        0.1661
     28 O          -6.4331   -3.4075   -1.0012 O.3     1  LIG1       -0.5035
     29 H          -7.1649   -3.9731   -1.2931 H       1  LIG1        0.2923
     30 S          -6.6711   -6.5465   -1.5921 S.3     1  LIG1       -0.1370
     31 H          -7.0070   -7.3243   -0.5459 H       1  LIG1        0.1073
     32 C          -3.6086   -7.4105   -0.2711 C.ar    1  LIG1        0.1072
     33 C          -4.1817   -8.5738    0.1916 C.ar    1  LIG1        0.1566
     34 C          -3.2079   -9.6086    0.1189 C.ar    1  LIG1        0.0643
     35 C          -2.0606   -9.0486   -0.3982 C.ar    1  LIG1        0.0191
     36 N          -2.2987   -7.7289   -0.6076 N.ar    1  LIG1       -0.3555
     37 H          -1.6879   -7.1050   -1.1089 H       1  LIG1        0.1655
     38 H          -1.1112   -9.5057   -0.6295 H       1  LIG1        0.0819
     39 O          -5.4390   -8.6921    0.6794 O.3     1  LIG1       -0.5035
     40 H          -5.5876   -9.6317    0.8662 H       1  LIG1        0.2923
     41 S          -3.5049  -11.2889    0.5627 S.3     1  LIG1       -0.1377
     42 H          -3.1548  -11.2270    1.8628 H       1  LIG1        0.1073
@<TRIPOS>BOND
     1    30    24    1
     2    30    31    1
     3    29    28    1
     4    37    36    1
     5    10     3    1
     6    10    11    1
     7    28    23    1
     8     9     8    1
     9    24    23   ar
    10    24    25   ar
    11    17    16    1
    12     8     2    1
    13    23    22   ar
    14    38    35    1
    15    36    35   ar
    16    36    32   ar
    17    35    34   ar
    18    25    32    1
    19    25    26   ar
    20     3     2   ar
    21     3     4   ar
    22     2     1   ar
    23    32    33   ar
    24    22    26   ar
    25    22    15    1
    26    16    15   ar
    27    16    12   ar
    28    26    27    1
    29     4    12    1
    30     4     5   ar
    31    34    33   ar
    32    34    41    1
    33     1     7    1
    34     1     5   ar
    35    33    39    1
    36    15    14   ar
    37    12    13   ar
    38     5     6    1
    39    21    20    1
    40    41    42    1
    41    39    40    1
    42    14    13   ar
    43    14    20    1
    44    13    18    1
    45    18    19    1
