@<TRIPOS>MOLECULE
mol_data/opt/cam/geoms/mol2/13fg13fg13fg.out
 32 34 0 0 0
SMALL
GASTEIGER

@<TRIPOS>ATOM
      1 C           1.2722   -0.0156    0.2594 C.ar    1  LIG1        0.0453
      2 C           0.7829    1.0858   -0.3905 C.ar    1  LIG1        0.1478
      3 C          -0.6243    0.9219   -0.5384 C.ar    1  LIG1        0.0732
      4 C          -0.9626   -0.2848    0.0472 C.ar    1  LIG1        0.0835
      5 N           0.1976   -0.8491    0.5074 N.ar    1  LIG1       -0.3555
      6 H           0.2194   -1.6287    1.1432 H       1  LIG1        0.1655
      7 H           2.2787   -0.2720    0.5453 H       1  LIG1        0.0845
      8 O           1.5152    2.1318   -0.8414 O.3     1  LIG1       -0.5042
      9 H           0.8915    2.7881   -1.1859 H       1  LIG1        0.2923
     10 S          -1.6446    2.0432   -1.4373 S.3     1  LIG1       -0.1370
     11 H          -2.4583    2.4102   -0.4294 H       1  LIG1        0.1073
     12 C          -2.2534   -0.9119    0.2283 C.ar    1  LIG1        0.1076
     13 C          -3.4633   -0.3918    0.6212 C.ar    1  LIG1        0.1573
     14 C          -4.4160   -1.4488    0.6628 C.ar    1  LIG1        0.0739
     15 C          -3.7650   -2.6042    0.2785 C.ar    1  LIG1        0.0840
     16 N          -2.4498   -2.2794    0.0495 N.ar    1  LIG1       -0.3479
     17 H          -1.8547   -2.8256   -0.5546 H       1  LIG1        0.1661
     18 O          -3.6895    0.8949    0.9797 O.3     1  LIG1       -0.5035
     19 H          -4.6396    0.9811    1.1524 H       1  LIG1        0.2923
     20 S          -6.0601   -1.2459    1.2653 S.3     1  LIG1       -0.1370
     21 H          -6.7153   -1.5774    0.1370 H       1  LIG1        0.1073
     22 C          -4.2760   -3.9418    0.0791 C.ar    1  LIG1        0.1072
     23 C          -5.4335   -4.3839   -0.5213 C.ar    1  LIG1        0.1566
     24 C          -5.4441   -5.8058   -0.4739 C.ar    1  LIG1        0.0643
     25 C          -4.2767   -6.1987    0.1429 C.ar    1  LIG1        0.0191
     26 N          -3.5786   -5.0796    0.4635 N.ar    1  LIG1       -0.3555
     27 H          -2.7525   -5.0575    1.0383 H       1  LIG1        0.1655
     28 H          -3.9124   -7.1887    0.3686 H       1  LIG1        0.0819
     29 O          -6.3726   -3.5948   -1.0951 O.3     1  LIG1       -0.5035
     30 H          -7.0046   -4.1773   -1.5433 H       1  LIG1        0.2923
     31 S          -6.6883   -6.8182   -1.2058 S.3     1  LIG1       -0.1377
     32 H          -7.5371   -6.8908   -0.1616 H       1  LIG1        0.1073
@<TRIPOS>BOND
     1    30    29    1
     2    10     3    1
     3    10    11    1
     4    31    24    1
     5    31    32    1
     6     9     8    1
     7    29    23    1
     8     8     2    1
     9    17    16    1
    10     3     2   ar
    11     3     4   ar
    12    23    24   ar
    13    23    22   ar
    14    24    25   ar
    15     2     1   ar
    16     4    12    1
    17     4     5   ar
    18    16    12   ar
    19    16    15   ar
    20    22    15    1
    21    22    26   ar
    22    21    20    1
    23    25    28    1
    24    25    26   ar
    25    12    13   ar
    26     1     5   ar
    27     1     7    1
    28    15    14   ar
    29    26    27    1
    30     5     6    1
    31    13    14   ar
    32    13    18    1
    33    14    20    1
    34    18    19    1
