@<TRIPOS>MOLECULE
mol_data/opt/cam/geoms/mol2/13fg13fg-13fg-13fg-.out
 42 45 0 0 0
SMALL
GASTEIGER

@<TRIPOS>ATOM
      1 C           1.2615    0.2271   -0.1549 C.ar    1  LIG1        0.0453
      2 C           0.7196    1.3673    0.3747 C.ar    1  LIG1        0.1478
      3 C          -0.6896    1.1819    0.4734 C.ar    1  LIG1        0.0732
      4 C          -0.9752   -0.0782   -0.0202 C.ar    1  LIG1        0.0835
      5 N           0.2169   -0.6517   -0.3765 N.ar    1  LIG1       -0.3555
      6 H           0.2822   -1.4765   -0.9490 H       1  LIG1        0.1655
      7 H           2.2853   -0.0277   -0.3727 H       1  LIG1        0.0845
      8 O           1.4076    2.4659    0.7666 O.3     1  LIG1       -0.5042
      9 H           0.7543    3.1324    1.0263 H       1  LIG1        0.2923
     10 S          -1.7734    2.3505    1.2256 S.3     1  LIG1       -0.1370
     11 H          -2.5403    2.6195    0.1521 H       1  LIG1        0.1073
     12 C          -2.2413   -0.7523   -0.2042 C.ar    1  LIG1        0.1076
     13 C          -3.4436   -0.3018   -0.6943 C.ar    1  LIG1        0.1573
     14 C          -4.3659   -1.3862   -0.6954 C.ar    1  LIG1        0.0739
     15 C          -3.7056   -2.4873   -0.1850 C.ar    1  LIG1        0.0840
     16 N          -2.4113   -2.1067    0.0752 N.ar    1  LIG1       -0.3479
     17 H          -1.8330   -2.5867    0.7476 H       1  LIG1        0.1661
     18 O          -3.6842    0.9440   -1.1690 O.3     1  LIG1       -0.5035
     19 H          -4.6277    0.9897   -1.3873 H       1  LIG1        0.2923
     20 S          -5.9765   -1.2784   -1.4031 S.3     1  LIG1       -0.1370
     21 H          -6.6864   -1.5725   -0.2978 H       1  LIG1        0.1073
     22 C          -4.1841   -3.8197    0.0996 C.ar    1  LIG1        0.1077
     23 C          -5.3717   -4.2600    0.6360 C.ar    1  LIG1        0.1573
     24 C          -5.3201   -5.6783    0.7408 C.ar    1  LIG1        0.0739
     25 C          -4.0933   -6.0822    0.2522 C.ar    1  LIG1        0.0840
     26 N          -3.3976   -4.9520   -0.1015 N.ar    1  LIG1       -0.3479
     27 H          -2.6505   -4.9667   -0.7787 H       1  LIG1        0.1661
     28 O          -6.3839   -3.4709    1.0667 O.3     1  LIG1       -0.5035
     29 H          -7.1001   -4.0561    1.3583 H       1  LIG1        0.2923
     30 S          -6.5773   -6.6359    1.5210 S.3     1  LIG1       -0.1370
     31 H          -6.9526   -7.3606    0.4504 H       1  LIG1        0.1073
     32 C          -3.5551   -7.4103    0.0627 C.ar    1  LIG1        0.1072
     33 C          -4.1385   -8.5561   -0.4298 C.ar    1  LIG1        0.1566
     34 C          -3.1593   -9.5885   -0.4302 C.ar    1  LIG1        0.0643
     35 C          -1.9913   -9.0381    0.0496 C.ar    1  LIG1        0.0191
     36 N          -2.2312   -7.7326    0.3333 N.ar    1  LIG1       -0.3555
     37 H          -1.6013   -7.1242    0.8298 H       1  LIG1        0.1655
     38 H          -1.0251   -9.4922    0.2046 H       1  LIG1        0.0819
     39 O          -5.4115   -8.6602   -0.8777 O.3     1  LIG1       -0.5035
     40 H          -5.5080   -9.5409   -1.2713 H       1  LIG1        0.2923
     41 S          -3.4249  -11.2123   -1.0639 S.3     1  LIG1       -0.1377
     42 H          -3.8711  -11.8030    0.0622 H       1  LIG1        0.1073
@<TRIPOS>BOND
     1    20    14    1
     2    20    21    1
     3    19    18    1
     4    40    39    1
     5    18    13    1
     6    41    34    1
     7    41    42    1
     8     6     5    1
     9    39    33    1
    10    27    26    1
    11    14    13   ar
    12    14    15   ar
    13    13    12   ar
    14    34    33   ar
    15    34    35   ar
    16    33    32   ar
    17     5     1   ar
    18     5     4   ar
    19     7     1    1
    20    12     4    1
    21    12    16   ar
    22    15    16   ar
    23    15    22    1
    24     1     2   ar
    25    26    22   ar
    26    26    25   ar
    27     4     3   ar
    28    35    38    1
    29    35    36   ar
    30    32    25    1
    31    32    36   ar
    32    16    17    1
    33    22    23   ar
    34    11    10    1
    35    25    24   ar
    36    36    37    1
    37     2     3   ar
    38     2     8    1
    39    31    30    1
    40     3    10    1
    41    23    24   ar
    42    23    28    1
    43    24    30    1
    44     8     9    1
    45    28    29    1
