@<TRIPOS>MOLECULE
mol_data/opt/cam/geoms/mol2/13fg13fg13fg13fg.out
 42 45 0 0 0
SMALL
GASTEIGER

@<TRIPOS>ATOM
      1 C           1.2786    0.1747    0.1279 C.ar    1  LIG1        0.0453
      2 C           0.7277    1.3464   -0.3170 C.ar    1  LIG1        0.1478
      3 C          -0.6856    1.1760   -0.3747 C.ar    1  LIG1        0.0732
      4 C          -0.9641   -0.1080    0.0576 C.ar    1  LIG1        0.0835
      5 N           0.2351   -0.7083    0.3377 N.ar    1  LIG1       -0.3555
      6 H           0.3138   -1.5647    0.8601 H       1  LIG1        0.1655
      7 H           2.3073   -0.0986    0.2937 H       1  LIG1        0.0845
      8 O           1.4106    2.4608   -0.6714 O.3     1  LIG1       -0.5042
      9 H           0.7542    3.1449   -0.8700 H       1  LIG1        0.2923
     10 S          -1.7856    2.3921   -1.0208 S.3     1  LIG1       -0.1370
     11 H          -2.5114    2.6052    0.0931 H       1  LIG1        0.1073
     12 C          -2.2285   -0.7832    0.2495 C.ar    1  LIG1        0.1076
     13 C          -3.4086   -0.3530    0.8069 C.ar    1  LIG1        0.1573
     14 C          -4.3393   -1.4299    0.7814 C.ar    1  LIG1        0.0739
     15 C          -3.7069   -2.5052    0.1873 C.ar    1  LIG1        0.0840
     16 N          -2.4195   -2.1189   -0.0980 N.ar    1  LIG1       -0.3479
     17 H          -1.8702   -2.5640   -0.8171 H       1  LIG1        0.1661
     18 O          -3.6217    0.8659    1.3584 O.3     1  LIG1       -0.5035
     19 H          -4.5568    0.9059    1.6114 H       1  LIG1        0.2923
     20 S          -5.9229   -1.3514    1.5513 S.3     1  LIG1       -0.1370
     21 H          -6.6736   -1.5815    0.4578 H       1  LIG1        0.1073
     22 C          -4.2064   -3.8168   -0.1525 C.ar    1  LIG1        0.1077
     23 C          -5.4159   -4.2191   -0.6696 C.ar    1  LIG1        0.1573
     24 C          -5.3804   -5.6298   -0.8531 C.ar    1  LIG1        0.0739
     25 C          -4.1411   -6.0683   -0.4304 C.ar    1  LIG1        0.0840
     26 N          -3.4237   -4.9636   -0.0407 N.ar    1  LIG1       -0.3479
     27 H          -2.6517   -5.0199    0.6055 H       1  LIG1        0.1661
     28 O          -6.4357   -3.4007   -1.0202 O.3     1  LIG1       -0.5035
     29 H          -7.1679   -3.9642   -1.3153 H       1  LIG1        0.2923
     30 S          -6.6733   -6.5346   -1.6380 S.3     1  LIG1       -0.1370
     31 H          -7.0062   -7.3216   -0.5978 H       1  LIG1        0.1073
     32 C          -3.6071   -7.4082   -0.3319 C.ar    1  LIG1        0.1072
     33 C          -4.1784   -8.5758    0.1220 C.ar    1  LIG1        0.1566
     34 C          -3.2042   -9.6094    0.0378 C.ar    1  LIG1        0.0643
     35 C          -2.0585   -9.0442   -0.4771 C.ar    1  LIG1        0.0191
     36 N          -2.2978   -7.7229   -0.6745 N.ar    1  LIG1       -0.3555
     37 H          -1.6886   -7.0942   -1.1718 H       1  LIG1        0.1655
     38 H          -1.1094   -9.4987   -0.7148 H       1  LIG1        0.0819
     39 O          -5.4345   -8.6991    0.6117 O.3     1  LIG1       -0.5035
     40 H          -5.5821   -9.6405    0.7906 H       1  LIG1        0.2923
     41 S          -3.4992  -11.2936    0.4676 S.3     1  LIG1       -0.1377
     42 H          -3.1460  -11.2429    1.7674 H       1  LIG1        0.1073
@<TRIPOS>BOND
     1    30    24    1
     2    30    31    1
     3    29    28    1
     4    37    36    1
     5    10     3    1
     6    10    11    1
     7    28    23    1
     8     9     8    1
     9    24    23   ar
    10    24    25   ar
    11    17    16    1
    12    38    35    1
    13    36    35   ar
    14    36    32   ar
    15     8     2    1
    16    23    22   ar
    17    35    34   ar
    18    25    32    1
    19    25    26   ar
    20     3     2   ar
    21     3     4   ar
    22    32    33   ar
    23     2     1   ar
    24    22    26   ar
    25    22    15    1
    26    16    15   ar
    27    16    12   ar
    28    26    27    1
    29    34    33   ar
    30    34    41    1
    31     4    12    1
    32     4     5   ar
    33    33    39    1
    34     1     7    1
    35     1     5   ar
    36    15    14   ar
    37    12    13   ar
    38     5     6    1
    39    21    20    1
    40    41    42    1
    41    39    40    1
    42    14    13   ar
    43    14    20    1
    44    13    18    1
    45    18    19    1
