@<TRIPOS>MOLECULE
mol_data/opt/cam/geoms/mol2/13fg13fg-13fg-.out
 32 34 0 0 0
SMALL
GASTEIGER

@<TRIPOS>ATOM
      1 C           1.2659   -0.0632   -0.2729 C.ar    1  LIG1        0.0453
      2 C           0.8060    1.0003    0.4567 C.ar    1  LIG1        0.1478
      3 C          -0.6012    0.8495    0.6176 C.ar    1  LIG1        0.0732
      4 C          -0.9695   -0.3100   -0.0408 C.ar    1  LIG1        0.0835
      5 N           0.1734   -0.8611   -0.5570 N.ar    1  LIG1       -0.3555
      6 H           0.1715   -1.5962   -1.2440 H       1  LIG1        0.1655
      7 H           2.2631   -0.3159   -0.5926 H       1  LIG1        0.0845
      8 O           1.5633    2.0022    0.9633 O.3     1  LIG1       -0.5042
      9 H           0.9565    2.6449    1.3597 H       1  LIG1        0.2923
     10 S          -1.5880    1.9250    1.6054 S.3     1  LIG1       -0.1370
     11 H          -2.4120    2.3696    0.6379 H       1  LIG1        0.1073
     12 C          -2.2737   -0.9026   -0.2410 C.ar    1  LIG1        0.1076
     13 C          -3.4802   -0.3380   -0.5797 C.ar    1  LIG1        0.1573
     14 C          -4.4519   -1.3739   -0.6742 C.ar    1  LIG1        0.0739
     15 C          -3.8159   -2.5625   -0.3753 C.ar    1  LIG1        0.0840
     16 N          -2.4918   -2.2750   -0.1472 N.ar    1  LIG1       -0.3479
     17 H          -1.8961   -2.8699    0.4084 H       1  LIG1        0.1661
     18 O          -3.6888    0.9729   -0.8501 O.3     1  LIG1       -0.5035
     19 H          -4.6400    1.0867   -0.9992 H       1  LIG1        0.2923
     20 S          -6.1012   -1.1041   -1.2348 S.3     1  LIG1       -0.1370
     21 H          -6.7429   -1.5095   -0.1230 H       1  LIG1        0.1073
     22 C          -4.3465   -3.9023   -0.2539 C.ar    1  LIG1        0.1072
     23 C          -5.4999   -4.3667    0.3372 C.ar    1  LIG1        0.1566
     24 C          -5.5287   -5.7830    0.2047 C.ar    1  LIG1        0.0643
     25 C          -4.3882   -6.1488   -0.4757 C.ar    1  LIG1        0.0191
     26 N          -3.6750   -5.0220   -0.7281 N.ar    1  LIG1       -0.3555
     27 H          -2.8651   -4.9715   -1.3239 H       1  LIG1        0.1655
     28 H          -4.0540   -7.1245   -0.7921 H       1  LIG1        0.0819
     29 O          -6.4186   -3.6048    0.9777 O.3     1  LIG1       -0.5035
     30 H          -7.1490   -4.1892    1.2321 H       1  LIG1        0.2923
     31 S          -6.8445   -6.8101    0.7721 S.3     1  LIG1       -0.1377
     32 H          -6.3908   -7.0645    2.0156 H       1  LIG1        0.1073
@<TRIPOS>BOND
     1    27    26    1
     2     6     5    1
     3    20    14    1
     4    20    21    1
     5    19    18    1
     6    18    13    1
     7    28    25    1
     8    26    25   ar
     9    26    22   ar
    10    14    13   ar
    11    14    15   ar
    12     7     1    1
    13    13    12   ar
    14     5     1   ar
    15     5     4   ar
    16    25    24   ar
    17    15    22    1
    18    15    16   ar
    19     1     2   ar
    20    22    23   ar
    21    12    16   ar
    22    12     4    1
    23    16    17    1
    24     4     3   ar
    25    24    23   ar
    26    24    31    1
    27    23    29    1
    28     2     3   ar
    29     2     8    1
    30     3    10    1
    31    11    10    1
    32    31    32    1
    33     8     9    1
    34    29    30    1
