@<TRIPOS>MOLECULE
mol_data/opt/cam/geoms/mol2/13fg13fg-13fg.out
 32 34 0 0 0
SMALL
GASTEIGER

@<TRIPOS>ATOM
      1 C           1.2690   -0.0679    0.2603 C.ar    1  LIG1        0.0453
      2 C           0.8070    0.9970   -0.4660 C.ar    1  LIG1        0.1478
      3 C          -0.6011    0.8478   -0.6208 C.ar    1  LIG1        0.0732
      4 C          -0.9676   -0.3121    0.0377 C.ar    1  LIG1        0.0835
      5 N           0.1770   -0.8651    0.5481 N.ar    1  LIG1       -0.3555
      6 H           0.1773   -1.6011    1.2343 H       1  LIG1        0.1655
      7 H           2.2674   -0.3221    0.5752 H       1  LIG1        0.0845
      8 O           1.5631    1.9987   -0.9747 O.3     1  LIG1       -0.5042
      9 H           0.9552    2.6425   -1.3676 H       1  LIG1        0.2923
     10 S          -1.5911    1.9256   -1.6029 S.3     1  LIG1       -0.1370
     11 H          -2.4104    2.3698   -0.6312 H       1  LIG1        0.1073
     12 C          -2.2716   -0.9037    0.2429 C.ar    1  LIG1        0.1076
     13 C          -3.4759   -0.3383    0.5877 C.ar    1  LIG1        0.1573
     14 C          -4.4483   -1.3733    0.6852 C.ar    1  LIG1        0.0739
     15 C          -3.8149   -2.5621    0.3819 C.ar    1  LIG1        0.0840
     16 N          -2.4915   -2.2757    0.1483 N.ar    1  LIG1       -0.3479
     17 H          -1.8989   -2.8705   -0.4106 H       1  LIG1        0.1661
     18 O          -3.6820    0.9726    0.8607 O.3     1  LIG1       -0.5035
     19 H          -4.6324    1.0872    1.0141 H       1  LIG1        0.2923
     20 S          -6.0948   -1.1024    1.2534 S.3     1  LIG1       -0.1370
     21 H          -6.7418   -1.5058    0.1439 H       1  LIG1        0.1073
     22 C          -4.3474   -3.9012    0.2612 C.ar    1  LIG1        0.1072
     23 C          -5.5039   -4.3636   -0.3254 C.ar    1  LIG1        0.1566
     24 C          -5.5335   -5.7800   -0.1946 C.ar    1  LIG1        0.0643
     25 C          -4.3905   -6.1480    0.4803 C.ar    1  LIG1        0.0191
     26 N          -3.6750   -5.0222    0.7310 N.ar    1  LIG1       -0.3555
     27 H          -2.8624   -4.9733    1.3233 H       1  LIG1        0.1655
     28 H          -4.0559   -7.1244    0.7941 H       1  LIG1        0.0819
     29 O          -6.4246   -3.5999   -0.9609 O.3     1  LIG1       -0.5035
     30 H          -7.1567   -4.1833   -1.2127 H       1  LIG1        0.2923
     31 S          -6.8529   -6.8051   -0.7574 S.3     1  LIG1       -0.1377
     32 H          -6.4050   -7.0584   -2.0032 H       1  LIG1        0.1073
@<TRIPOS>BOND
     1    32    31    1
     2    10    11    1
     3    10     3    1
     4     9     8    1
     5    30    29    1
     6     8     2    1
     7    29    23    1
     8    31    24    1
     9     3     2   ar
    10     3     4   ar
    11     2     1   ar
    12    17    16    1
    13    23    24   ar
    14    23    22   ar
    15    24    25   ar
    16     4    12    1
    17     4     5   ar
    18    21    20    1
    19    16    12   ar
    20    16    15   ar
    21    12    13   ar
    22     1     5   ar
    23     1     7    1
    24    22    15    1
    25    22    26   ar
    26    15    14   ar
    27    25    26   ar
    28    25    28    1
    29     5     6    1
    30    13    14   ar
    31    13    18    1
    32    14    20    1
    33    26    27    1
    34    18    19    1
