@<TRIPOS>MOLECULE
mol_data/opt/cam/geoms/mol2/13fg13fg13fg13fg-.out
 42 45 0 0 0
SMALL
GASTEIGER

@<TRIPOS>ATOM
      1 C           1.2764    0.1773    0.1230 C.ar    1  LIG1        0.0453
      2 C           0.7263    1.3468   -0.3284 C.ar    1  LIG1        0.1478
      3 C          -0.6868    1.1756   -0.3893 C.ar    1  LIG1        0.0732
      4 C          -0.9660   -0.1068    0.0476 C.ar    1  LIG1        0.0835
      5 N           0.2328   -0.7053    0.3335 N.ar    1  LIG1       -0.3555
      6 H           0.3104   -1.5595    0.8597 H       1  LIG1        0.1655
      7 H           2.3048   -0.0949    0.2927 H       1  LIG1        0.0845
      8 O           1.4096    2.4601   -0.6854 O.3     1  LIG1       -0.5042
      9 H           0.7534    3.1431   -0.8888 H       1  LIG1        0.2923
     10 S          -1.7856    2.3884   -1.0435 S.3     1  LIG1       -0.1370
     11 H          -2.5145    2.6059    0.0674 H       1  LIG1        0.1073
     12 C          -2.2305   -0.7817    0.2388 C.ar    1  LIG1        0.1076
     13 C          -3.4124   -0.3497    0.7911 C.ar    1  LIG1        0.1573
     14 C          -4.3426   -1.4272    0.7675 C.ar    1  LIG1        0.0739
     15 C          -3.7080   -2.5046    0.1797 C.ar    1  LIG1        0.0840
     16 N          -2.4199   -2.1190   -0.1036 N.ar    1  LIG1       -0.3479
     17 H          -1.8685   -2.5668   -0.8193 H       1  LIG1        0.1661
     18 O          -3.6276    0.8713    1.3369 O.3     1  LIG1       -0.5035
     19 H          -4.5635    0.9120    1.5872 H       1  LIG1        0.2923
     20 S          -5.9283   -1.3462    1.5326 S.3     1  LIG1       -0.1370
     21 H          -6.6759   -1.5812    0.4381 H       1  LIG1        0.1073
     22 C          -4.2060   -3.8178   -0.1560 C.ar    1  LIG1        0.1077
     23 C          -5.4139   -4.2229   -0.6748 C.ar    1  LIG1        0.1573
     24 C          -5.3772   -5.6343   -0.8524 C.ar    1  LIG1        0.0739
     25 C          -4.1389   -6.0704   -0.4244 C.ar    1  LIG1        0.0840
     26 N          -3.4231   -4.9638   -0.0373 N.ar    1  LIG1       -0.3479
     27 H          -2.6528   -5.0171    0.6113 H       1  LIG1        0.1661
     28 O          -6.4331   -3.4064   -1.0317 O.3     1  LIG1       -0.5035
     29 H          -7.1641   -3.9715   -1.3265 H       1  LIG1        0.2923
     30 S          -6.6675   -6.5430   -1.6370 S.3     1  LIG1       -0.1370
     31 H          -7.0029   -7.3258   -0.5946 H       1  LIG1        0.1073
     32 C          -3.6045   -7.4098   -0.3188 C.ar    1  LIG1        0.1072
     33 C          -4.1766   -8.5757    0.1383 C.ar    1  LIG1        0.1566
     34 C          -3.2017   -9.6092    0.0612 C.ar    1  LIG1        0.0643
     35 C          -2.0548   -9.0456   -0.4529 C.ar    1  LIG1        0.0191
     36 N          -2.2942   -7.7252   -0.6564 N.ar    1  LIG1       -0.3555
     37 H          -1.6839   -7.0983   -1.1546 H       1  LIG1        0.1655
     38 H          -1.1048   -9.5006   -0.6860 H       1  LIG1        0.0819
     39 O          -5.4340   -8.6975    0.6251 O.3     1  LIG1       -0.5035
     40 H          -5.5816   -9.6382    0.8075 H       1  LIG1        0.2923
     41 S          -3.4971  -11.2917    0.4972 S.3     1  LIG1       -0.1377
     42 H          -3.1475  -11.2354    1.7977 H       1  LIG1        0.1073
@<TRIPOS>BOND
     1    30    24    1
     2    30    31    1
     3    29    28    1
     4    37    36    1
     5    10     3    1
     6    10    11    1
     7    28    23    1
     8     9     8    1
     9    24    23   ar
    10    24    25   ar
    11    17    16    1
    12    38    35    1
    13     8     2    1
    14    23    22   ar
    15    36    35   ar
    16    36    32   ar
    17    35    34   ar
    18    25    32    1
    19    25    26   ar
    20     3     2   ar
    21     3     4   ar
    22     2     1   ar
    23    32    33   ar
    24    22    26   ar
    25    22    15    1
    26    16    15   ar
    27    16    12   ar
    28    26    27    1
    29     4    12    1
    30     4     5   ar
    31    34    33   ar
    32    34    41    1
    33     1     7    1
    34     1     5   ar
    35    33    39    1
    36    15    14   ar
    37    12    13   ar
    38     5     6    1
    39    21    20    1
    40    41    42    1
    41    39    40    1
    42    14    13   ar
    43    14    20    1
    44    13    18    1
    45    18    19    1
