@<TRIPOS>MOLECULE
mol_data/opt/cam/geoms/mol2/13fg13fg13fg-13fg.out
 42 45 0 0 0
SMALL
GASTEIGER

@<TRIPOS>ATOM
      1 C           0.7091    0.3744    1.9295 C.ar    1  LIG1        0.0453
      2 C           0.8119    1.1426    0.8008 C.ar    1  LIG1        0.1478
      3 C          -0.2817    0.8193   -0.0527 C.ar    1  LIG1        0.0732
      4 C          -1.0398   -0.1398    0.5926 C.ar    1  LIG1        0.0835
      5 N          -0.4173   -0.4135    1.7829 N.ar    1  LIG1       -0.3555
      6 H          -0.8620   -0.9048    2.5406 H       1  LIG1        0.1655
      7 H           1.3412    0.3194    2.8001 H       1  LIG1        0.0845
      8 O           1.7988    2.0303    0.5318 O.3     1  LIG1       -0.5042
      9 H           1.5593    2.4819   -0.2909 H       1  LIG1        0.2923
     10 S          -0.4860    1.4822   -1.6734 S.3     1  LIG1       -0.1370
     11 H          -1.6707    2.0921   -1.4792 H       1  LIG1        0.1073
     12 C          -2.2836   -0.7671    0.1998 C.ar    1  LIG1        0.1076
     13 C          -3.4441   -0.2227   -0.3047 C.ar    1  LIG1        0.1573
     14 C          -4.3775   -1.2703   -0.5155 C.ar    1  LIG1        0.0739
     15 C          -3.7724   -2.4505   -0.1176 C.ar    1  LIG1        0.0840
     16 N          -2.5134   -2.1300    0.3127 N.ar    1  LIG1       -0.3479
     17 H          -1.8520   -2.7841    0.6975 H       1  LIG1        0.1661
     18 O          -3.6508    1.0960   -0.5425 O.3     1  LIG1       -0.5035
     19 H          -4.5788    1.1976   -0.8032 H       1  LIG1        0.2923
     20 S          -5.9663   -1.0321   -1.2408 S.3     1  LIG1       -0.1370
     21 H          -6.7111   -1.4442   -0.1975 H       1  LIG1        0.1073
     22 C          -4.2948   -3.7997   -0.0857 C.ar    1  LIG1        0.1077
     23 C          -5.4886   -4.2858    0.3997 C.ar    1  LIG1        0.1573
     24 C          -5.5173   -5.6901    0.1990 C.ar    1  LIG1        0.0739
     25 C          -4.3204   -6.0465   -0.3990 C.ar    1  LIG1        0.0840
     26 N          -3.5928   -4.8992   -0.5577 N.ar    1  LIG1       -0.3479
     27 H          -2.6730   -4.8553   -0.9647 H       1  LIG1        0.1661
     28 O          -6.4571   -3.5388    0.9832 O.3     1  LIG1       -0.5035
     29 H          -7.1405   -4.1506    1.2973 H       1  LIG1        0.2923
     30 S          -6.9054   -6.7033    0.5896 S.3     1  LIG1       -0.1370
     31 H          -6.3154   -7.4777    1.5196 H       1  LIG1        0.1073
     32 C          -3.8223   -7.3505   -0.7838 C.ar    1  LIG1        0.1072
     33 C          -3.7929   -8.5392   -0.0918 C.ar    1  LIG1        0.1566
     34 C          -3.1724   -9.5192   -0.9159 C.ar    1  LIG1        0.0643
     35 C          -2.8465   -8.9008   -2.1027 C.ar    1  LIG1        0.0191
     36 N          -3.2170   -7.5984   -2.0102 N.ar    1  LIG1       -0.3555
     37 H          -3.2354   -6.9505   -2.7811 H       1  LIG1        0.1655
     38 H          -2.3878   -9.3062   -2.9910 H       1  LIG1        0.0819
     39 O          -4.2387   -8.7230    1.1741 O.3     1  LIG1       -0.5035
     40 H          -4.1633   -9.6696    1.3693 H       1  LIG1        0.2923
     41 S          -2.9586  -11.2104   -0.4656 S.3     1  LIG1       -0.1377
     42 H          -1.7493  -11.1199    0.1227 H       1  LIG1        0.1073
@<TRIPOS>BOND
     1    38    35    1
     2    37    36    1
     3    35    36   ar
     4    35    34   ar
     5    36    32   ar
     6    10    11    1
     7    10     3    1
     8    20    14    1
     9    20    21    1
    10    27    26    1
    11    34    41    1
    12    34    33   ar
    13    19    18    1
    14    32    25    1
    15    32    33   ar
    16    26    25   ar
    17    26    22   ar
    18    18    13    1
    19    14    13   ar
    20    14    15   ar
    21    41    42    1
    22    25    24   ar
    23    13    12   ar
    24     9     8    1
    25    15    22    1
    26    15    16   ar
    27    33    39    1
    28    22    23   ar
    29     3     4   ar
    30     3     2   ar
    31    24    23   ar
    32    24    30    1
    33    12    16   ar
    34    12     4    1
    35    16    17    1
    36    23    28    1
    37     8     2    1
    38    30    31    1
    39     4     5   ar
    40     2     1   ar
    41    28    29    1
    42    39    40    1
    43     5     1   ar
    44     5     6    1
    45     1     7    1
