@<TRIPOS>MOLECULE
mol_data/opt/cam/geoms/mol2/13fg.out
 12 12 0 0 0
SMALL
GASTEIGER

@<TRIPOS>ATOM
      1 C           1.1288   -0.3777   -0.1147 C.ar    1  LIG1        0.0448
      2 C           0.6262    0.8926   -0.0191 C.ar    1  LIG1        0.1472
      3 C          -0.7811    0.7902    0.1865 C.ar    1  LIG1        0.0636
      4 C          -1.0892   -0.5527    0.2217 C.ar    1  LIG1        0.0186
      5 N           0.0627   -1.2440    0.0332 N.ar    1  LIG1       -0.3630
      6 H           0.1359   -2.2468    0.0151 H       1  LIG1        0.1649
      7 H          -2.0390   -1.0428    0.3683 H       1  LIG1        0.0819
      8 H           2.1363   -0.7254   -0.2709 H       1  LIG1        0.0844
      9 O           1.3404    2.0397   -0.1102 O.3     1  LIG1       -0.5042
     10 H           0.7370    2.7683    0.0970 H       1  LIG1        0.2923
     11 S          -1.8582    2.1626    0.4388 S.3     1  LIG1       -0.1377
     12 H          -2.1821    2.4210   -0.8440 H       1  LIG1        0.1073
@<TRIPOS>BOND
     1    12    11    1
     2     8     1    1
     3     1     2   ar
     4     1     5   ar
     5     9     2    1
     6     9    10    1
     7     2     3   ar
     8     6     5    1
     9     5     4   ar
    10     3     4   ar
    11     3    11    1
    12     4     7    1
