@<TRIPOS>MOLECULE
mol_data/opt/cam/geoms/mol2/13fg13fg.out
 22 23 0 0 0
SMALL
GASTEIGER

@<TRIPOS>ATOM
      1 C           1.1502   -0.2806    0.5634 C.ar    1  LIG1        0.0453
      2 C           0.7903    0.9414    0.0610 C.ar    1  LIG1        0.1478
      3 C          -0.5793    0.8730   -0.3241 C.ar    1  LIG1        0.0732
      4 C          -1.0276   -0.4014   -0.0300 C.ar    1  LIG1        0.0835
      5 N           0.0344   -1.0927    0.4902 N.ar    1  LIG1       -0.3555
      6 H          -0.0567   -1.9731    0.9693 H       1  LIG1        0.1655
      7 H           2.0941   -0.6314    0.9461 H       1  LIG1        0.0845
      8 O           1.6039    2.0154   -0.0728 O.3     1  LIG1       -0.5042
      9 H           1.0561    2.7502   -0.3864 H       1  LIG1        0.2923
     10 S          -1.4324    2.1863   -1.1331 S.3     1  LIG1       -0.1370
     11 H          -2.3623    2.4192   -0.1878 H       1  LIG1        0.1073
     12 C          -2.3456   -0.9860   -0.1659 C.ar    1  LIG1        0.1072
     13 C          -3.5877   -0.4996    0.1710 C.ar    1  LIG1        0.1566
     14 C          -4.5571   -1.4890   -0.1561 C.ar    1  LIG1        0.0643
     15 C          -3.8775   -2.5583   -0.6969 C.ar    1  LIG1        0.0191
     16 N          -2.5536   -2.2593   -0.6810 N.ar    1  LIG1       -0.3555
     17 H          -1.8340   -2.7953   -1.1377 H       1  LIG1        0.1655
     18 H          -4.2527   -3.4910   -1.0880 H       1  LIG1        0.0819
     19 O          -3.8322    0.6984    0.7555 O.3     1  LIG1       -0.5035
     20 H          -4.7947    0.8051    0.7967 H       1  LIG1        0.2923
     21 S          -6.2963   -1.2899    0.0526 S.3     1  LIG1       -0.1377
     22 H          -6.4139   -1.7601    1.3104 H       1  LIG1        0.1073
@<TRIPOS>BOND
     1    17    16    1
     2    10     3    1
     3    10    11    1
     4    18    15    1
     5    15    16   ar
     6    15    14   ar
     7    16    12   ar
     8     9     8    1
     9     3     4   ar
    10     3     2   ar
    11    12     4    1
    12    12    13   ar
    13    14    21    1
    14    14    13   ar
    15     8     2    1
    16     4     5   ar
    17    21    22    1
    18     2     1   ar
    19    13    19    1
    20     5     1   ar
    21     5     6    1
    22     1     7    1
    23    19    20    1
