@<TRIPOS>MOLECULE
mol_data/opt/cam/geoms/mol2/13fh13fh-.out
 24 25 0 0 0
SMALL
GASTEIGER

@<TRIPOS>ATOM
      1 C           1.2225   -0.2903    0.1500 C.ar    1  LIG1        0.0461
      2 C           0.8531    1.0219    0.0059 C.ar    1  LIG1        0.1554
      3 C          -0.5623    1.0821   -0.0733 C.ar    1  LIG1        0.0938
      4 C          -1.0326   -0.2197    0.0218 C.ar    1  LIG1        0.0911
      5 N           0.0585   -1.0309    0.1504 N.ar    1  LIG1       -0.3549
      6 H          -0.0260   -2.0266    0.2848 H       1  LIG1        0.1655
      7 H           2.1937   -0.7460    0.2463 H       1  LIG1        0.0845
      8 O           1.6561    2.1120   -0.0629 O.3     1  LIG1       -0.5035
      9 H           1.0482    2.8570   -0.1971 H       1  LIG1        0.2923
     10 N          -1.2316    2.3274   -0.2362 N.pl3   1  LIG1       -0.3535
     11 H          -1.8009    2.3896   -1.0721 H       1  LIG1        0.1425
     12 H          -1.7643    2.6259    0.5729 H       1  LIG1        0.1425
     13 C          -2.3646   -0.7765   -0.0024 C.ar    1  LIG1        0.1087
     14 C          -2.7689   -2.0959   -0.0429 C.ar    1  LIG1        0.1643
     15 C          -4.1875   -2.1467   -0.0200 C.ar    1  LIG1        0.0849
     16 C          -4.6208   -0.8423    0.0197 C.ar    1  LIG1        0.0267
     17 N          -3.5093   -0.0264    0.0162 N.ar    1  LIG1       -0.3549
     18 H          -3.5197    0.9758    0.0807 H       1  LIG1        0.1655
     19 H          -5.6192   -0.4371    0.0586 H       1  LIG1        0.0827
     20 O          -1.9266   -3.1972   -0.0604 O.3     1  LIG1       -0.5031
     21 H          -1.8071   -3.4724   -0.9789 H       1  LIG1        0.2923
     22 N          -4.9549   -3.3224    0.0104 N.pl3   1  LIG1       -0.3540
     23 H          -5.6629   -3.3650   -0.7106 H       1  LIG1        0.1425
     24 H          -4.3636   -4.1424   -0.0343 H       1  LIG1        0.1425
@<TRIPOS>BOND
     1    11    10    1
     2    21    20    1
     3    23    22    1
     4    10     3    1
     5    10    12    1
     6     9     8    1
     7     3     2   ar
     8     3     4   ar
     9     8     2    1
    10    20    14    1
    11    14    15   ar
    12    14    13   ar
    13    24    22    1
    14    15    22    1
    15    15    16   ar
    16    13    17   ar
    17    13     4    1
    18     2     1   ar
    19    17    16   ar
    20    17    18    1
    21    16    19    1
    22     4     5   ar
    23     1     5   ar
    24     1     7    1
    25     5     6    1
