@<TRIPOS>MOLECULE
mol_data/opt/cam/geoms/mol2/13fh13fh13fh13fh-.out
 46 49 0 0 0
SMALL
GASTEIGER

@<TRIPOS>ATOM
      1 C           1.0632    0.2564   -1.3773 C.ar    1  LIG1        0.0461
      2 C           0.8519    1.2328   -0.4451 C.ar    1  LIG1        0.1554
      3 C          -0.4284    1.0289    0.1407 C.ar    1  LIG1        0.0938
      4 C          -0.9858   -0.0769   -0.4644 C.ar    1  LIG1        0.0912
      5 N          -0.0584   -0.5672   -1.3599 N.ar    1  LIG1       -0.3549
      6 H          -0.3258   -1.1268   -2.1534 H       1  LIG1        0.1655
      7 H           1.9034    0.0610   -2.0228 H       1  LIG1        0.0845
      8 O           1.6822    2.2349   -0.0688 O.3     1  LIG1       -0.5035
      9 H           1.1548    2.7592    0.5576 H       1  LIG1        0.2923
     10 N          -0.9106    1.8839    1.1681 N.pl3   1  LIG1       -0.3535
     11 H          -1.8874    2.1181    1.0091 H       1  LIG1        0.1425
     12 H          -0.8571    1.4350    2.0783 H       1  LIG1        0.1425
     13 C          -2.2792   -0.6864   -0.2649 C.ar    1  LIG1        0.1092
     14 C          -3.4929   -0.1366    0.0813 C.ar    1  LIG1        0.1650
     15 C          -4.4638   -1.1618    0.1462 C.ar    1  LIG1        0.0945
     16 C          -3.8320   -2.3491   -0.1811 C.ar    1  LIG1        0.0916
     17 N          -2.5142   -2.0453   -0.4279 N.ar    1  LIG1       -0.3473
     18 H          -1.8014   -2.7118   -0.6700 H       1  LIG1        0.1662
     19 O          -3.7699    1.1736    0.3167 O.3     1  LIG1       -0.5030
     20 H          -4.7354    1.2012    0.4315 H       1  LIG1        0.2923
     21 N          -5.8142   -0.8716    0.4802 N.pl3   1  LIG1       -0.3534
     22 H          -6.4516   -1.3704   -0.1351 H       1  LIG1        0.1425
     23 H          -6.0294   -1.1637    1.4295 H       1  LIG1        0.1425
     24 C          -4.3705   -3.6845   -0.2836 C.ar    1  LIG1        0.1092
     25 C          -5.6225   -4.1194   -0.6580 C.ar    1  LIG1        0.1650
     26 C          -5.6536   -5.5331   -0.6095 C.ar    1  LIG1        0.0945
     27 C          -4.3952   -5.9544   -0.2054 C.ar    1  LIG1        0.0916
     28 N          -3.6328   -4.8312   -0.0283 N.ar    1  LIG1       -0.3473
     29 H          -2.7325   -4.8713    0.4271 H       1  LIG1        0.1662
     30 O          -6.6751   -3.3569   -1.0552 O.3     1  LIG1       -0.5030
     31 H          -7.3731   -3.9935   -1.2829 H       1  LIG1        0.2923
     32 N          -6.8300   -6.2437   -0.9751 N.pl3   1  LIG1       -0.3534
     33 H          -6.7170   -6.8610   -1.7706 H       1  LIG1        0.1425
     34 H          -7.2792   -6.7341   -0.2101 H       1  LIG1        0.1425
     35 C          -3.8439   -7.2620    0.0490 C.ar    1  LIG1        0.1087
     36 C          -2.5666   -7.6207    0.4318 C.ar    1  LIG1        0.1643
     37 C          -2.5127   -9.0288    0.6036 C.ar    1  LIG1        0.0849
     38 C          -3.7687   -9.5025    0.3034 C.ar    1  LIG1        0.0267
     39 N          -4.5578   -8.4282   -0.0406 N.ar    1  LIG1       -0.3549
     40 H          -5.5336   -8.4720   -0.2741 H       1  LIG1        0.1655
     41 H          -4.1568  -10.5082    0.3178 H       1  LIG1        0.0827
     42 O          -1.5288   -6.7344    0.6672 O.3     1  LIG1       -0.5031
     43 H          -0.8944   -6.8076   -0.0578 H       1  LIG1        0.2923
     44 N          -1.3957   -9.7581    1.0445 N.pl3   1  LIG1       -0.3540
     45 H          -1.0893  -10.4713    0.3960 H       1  LIG1        0.1425
     46 H          -0.6246   -9.1464    1.2787 H       1  LIG1        0.1425
@<TRIPOS>BOND
     1     6     5    1
     2     7     1    1
     3    33    32    1
     4     1     5   ar
     5     1     2   ar
     6     5     4   ar
     7    31    30    1
     8    30    25    1
     9    32    26    1
    10    32    34    1
    11    18    17    1
    12    25    26   ar
    13    25    24   ar
    14    26    27   ar
    15     4    13    1
    16     4     3   ar
    17     2     8    1
    18     2     3   ar
    19    17    13   ar
    20    17    16   ar
    21    24    16    1
    22    24    28   ar
    23    40    39    1
    24    13    14   ar
    25    27    28   ar
    26    27    35    1
    27    16    15   ar
    28    22    21    1
    29     8     9    1
    30    43    42    1
    31    39    35   ar
    32    39    38   ar
    33    28    29    1
    34    35    36   ar
    35    14    15   ar
    36    14    19    1
    37     3    10    1
    38    15    21    1
    39    38    41    1
    40    38    37   ar
    41    19    20    1
    42    45    44    1
    43    36    37   ar
    44    36    42    1
    45    21    23    1
    46    37    44    1
    47    11    10    1
    48    44    46    1
    49    10    12    1
