@<TRIPOS>MOLECULE
mol_data/opt/cam/geoms/mol2/13fh13fh13fh13fh.out
 46 49 0 0 0
SMALL
GASTEIGER

@<TRIPOS>ATOM
      1 C           1.0620    0.2998   -1.5333 C.ar    1  LIG1        0.0461
      2 C           0.8570    1.3044   -0.6301 C.ar    1  LIG1        0.1554
      3 C          -0.4062    1.1017   -0.0081 C.ar    1  LIG1        0.0938
      4 C          -0.9603   -0.0323   -0.5621 C.ar    1  LIG1        0.0912
      5 N          -0.0461   -0.5388   -1.4624 N.ar    1  LIG1       -0.3549
      6 H          -0.3215   -1.1282   -2.2313 H       1  LIG1        0.1655
      7 H           1.8897    0.0951   -2.1920 H       1  LIG1        0.0845
      8 O           1.6802    2.3309   -0.3075 O.3     1  LIG1       -0.5035
      9 H           1.1577    2.8709    0.3095 H       1  LIG1        0.2923
     10 N          -0.8789    1.9851    0.9996 N.pl3   1  LIG1       -0.3535
     11 H          -1.8633    2.1965    0.8561 H       1  LIG1        0.1425
     12 H          -0.7952    1.5712    1.9239 H       1  LIG1        0.1425
     13 C          -2.2393   -0.6531   -0.3093 C.ar    1  LIG1        0.1092
     14 C          -3.4526   -0.1073    0.0438 C.ar    1  LIG1        0.1650
     15 C          -4.4057   -1.1431    0.1750 C.ar    1  LIG1        0.0945
     16 C          -3.7644   -2.3337   -0.1173 C.ar    1  LIG1        0.0916
     17 N          -2.4544   -2.0234   -0.3988 N.ar    1  LIG1       -0.3473
     18 H          -1.7574   -2.6771   -0.7119 H       1  LIG1        0.1662
     19 O          -3.7432    1.2065    0.2390 O.3     1  LIG1       -0.5030
     20 H          -4.7056    1.2240    0.3792 H       1  LIG1        0.2923
     21 N          -5.7522   -0.8611    0.5302 N.pl3   1  LIG1       -0.3534
     22 H          -6.3948   -1.3816   -0.0618 H       1  LIG1        0.1425
     23 H          -5.9462   -1.1347    1.4895 H       1  LIG1        0.1425
     24 C          -4.2944   -3.6760   -0.1532 C.ar    1  LIG1        0.1092
     25 C          -5.5431   -4.1340   -0.5096 C.ar    1  LIG1        0.1650
     26 C          -5.5770   -5.5409   -0.3762 C.ar    1  LIG1        0.0945
     27 C          -4.3253   -5.9433    0.0524 C.ar    1  LIG1        0.0916
     28 N          -3.5628   -4.8077    0.1902 N.ar    1  LIG1       -0.3473
     29 H          -2.5920   -4.7984    0.4524 H       1  LIG1        0.1662
     30 O          -6.6006   -3.3978   -0.9409 O.3     1  LIG1       -0.5030
     31 H          -7.2681   -4.0568   -1.1988 H       1  LIG1        0.2923
     32 N          -6.7482   -6.2802   -0.6906 N.pl3   1  LIG1       -0.3534
     33 H          -6.5151   -7.1087   -1.2323 H       1  LIG1        0.1425
     34 H          -7.2234   -6.5971    0.1497 H       1  LIG1        0.1425
     35 C          -3.8267   -7.2737    0.3146 C.ar    1  LIG1        0.1087
     36 C          -4.1287   -8.4755   -0.2813 C.ar    1  LIG1        0.1643
     37 C          -3.3675   -9.5001    0.3372 C.ar    1  LIG1        0.0849
     38 C          -2.6033   -8.9011    1.3116 C.ar    1  LIG1        0.0267
     39 N          -2.8692   -7.5594    1.2804 N.ar    1  LIG1       -0.3549
     40 H          -2.6104   -6.9156    2.0094 H       1  LIG1        0.1655
     41 H          -1.8976   -9.3202    2.0125 H       1  LIG1        0.0827
     42 O          -4.9782   -8.6948   -1.3180 O.3     1  LIG1       -0.5031
     43 H          -4.9159   -9.6504   -1.4892 H       1  LIG1        0.2923
     44 N          -3.4758  -10.8428   -0.1230 N.pl3   1  LIG1       -0.3540
     45 H          -2.5970  -11.2046   -0.4762 H       1  LIG1        0.1425
     46 H          -3.8111  -11.4742    0.5960 H       1  LIG1        0.1425
@<TRIPOS>BOND
     1     6     5    1
     2     7     1    1
     3     1     5   ar
     4     1     2   ar
     5    43    42    1
     6     5     4   ar
     7    42    36    1
     8    33    32    1
     9    31    30    1
    10    30    25    1
    11    18    17    1
    12    32    26    1
    13    32    34    1
    14     2     8    1
    15     2     3   ar
    16     4    13    1
    17     4     3   ar
    18    25    26   ar
    19    25    24   ar
    20    45    44    1
    21    17    13   ar
    22    17    16   ar
    23    26    27   ar
    24    13    14   ar
    25     8     9    1
    26    36    35   ar
    27    36    37   ar
    28    24    16    1
    29    24    28   ar
    30    44    37    1
    31    44    46    1
    32    16    15   ar
    33    22    21    1
    34     3    10    1
    35    14    15   ar
    36    14    19    1
    37    27    28   ar
    38    27    35    1
    39    15    21    1
    40    28    29    1
    41    19    20    1
    42    35    39   ar
    43    37    38   ar
    44    21    23    1
    45    11    10    1
    46    10    12    1
    47    39    38   ar
    48    39    40    1
    49    38    41    1
