@<TRIPOS>MOLECULE
mol_data/opt/cam/geoms/mol2/13fh13fh-13fh-13fh-.out
 46 49 0 0 0
SMALL
GASTEIGER

@<TRIPOS>ATOM
      1 C           1.2796   -0.5088    1.0033 C.ar    1  LIG1        0.0461
      2 C           1.1379    0.7082    0.4007 C.ar    1  LIG1        0.1554
      3 C          -0.2070    0.8362   -0.0529 C.ar    1  LIG1        0.0938
      4 C          -0.8689   -0.3268    0.2836 C.ar    1  LIG1        0.0912
      5 N           0.0541   -1.1574    0.8911 N.ar    1  LIG1       -0.3549
      6 H          -0.2356   -1.8909    1.5193 H       1  LIG1        0.1655
      7 H           2.1341   -0.9787    1.4608 H       1  LIG1        0.0845
      8 O           2.0806    1.6556    0.1935 O.3     1  LIG1       -0.5035
      9 H           1.6518    2.3119   -0.3807 H       1  LIG1        0.2923
     10 N          -0.6097    1.9732   -0.8060 N.pl3   1  LIG1       -0.3535
     11 H          -1.1385    1.7184   -1.6330 H       1  LIG1        0.1425
     12 H          -1.1633    2.6292   -0.2653 H       1  LIG1        0.1425
     13 C          -2.2126   -0.7941    0.0318 C.ar    1  LIG1        0.1092
     14 C          -2.6396   -2.0525   -0.3178 C.ar    1  LIG1        0.1650
     15 C          -4.0485   -2.0251   -0.4791 C.ar    1  LIG1        0.0945
     16 C          -4.4689   -0.7332   -0.2244 C.ar    1  LIG1        0.0916
     17 N          -3.3443    0.0228    0.0339 N.ar    1  LIG1       -0.3473
     18 H          -3.3829    0.8538    0.6027 H       1  LIG1        0.1662
     19 O          -1.8921   -3.1702   -0.5332 O.3     1  LIG1       -0.5030
     20 H          -0.9598   -2.9113   -0.5460 H       1  LIG1        0.2923
     21 N          -4.8938   -3.1091   -0.8663 N.pl3   1  LIG1       -0.3534
     22 H          -4.9173   -3.2188   -1.8778 H       1  LIG1        0.1425
     23 H          -4.5363   -3.9808   -0.4861 H       1  LIG1        0.1425
     24 C          -5.7989   -0.1854   -0.2080 C.ar    1  LIG1        0.1092
     25 C          -7.0230   -0.8192   -0.0622 C.ar    1  LIG1        0.1650
     26 C          -8.0288    0.1773   -0.0297 C.ar    1  LIG1        0.0945
     27 C          -7.4128    1.4103   -0.1586 C.ar    1  LIG1        0.0916
     28 N          -6.0699    1.1789   -0.2828 N.ar    1  LIG1       -0.3473
     29 H          -5.3833    1.9096   -0.3517 H       1  LIG1        0.1662
     30 O          -7.2909   -2.1328    0.0577 O.3     1  LIG1       -0.5030
     31 H          -6.4900   -2.6422   -0.2334 H       1  LIG1        0.2923
     32 N          -9.4351   -0.0308    0.1192 N.pl3   1  LIG1       -0.3534
     33 H          -9.8662   -0.2739   -0.7701 H       1  LIG1        0.1425
     34 H          -9.5952   -0.8196    0.7400 H       1  LIG1        0.1425
     35 C          -7.9816    2.7332   -0.1864 C.ar    1  LIG1        0.1087
     36 C          -9.1859    3.1779    0.3089 C.ar    1  LIG1        0.1643
     37 C          -9.2632    4.5891    0.0909 C.ar    1  LIG1        0.0849
     38 C          -8.1072    4.9597   -0.5384 C.ar    1  LIG1        0.0267
     39 N          -7.2852    3.8434   -0.6671 N.ar    1  LIG1       -0.3549
     40 H          -6.7111    3.7481   -1.4928 H       1  LIG1        0.1655
     41 H          -7.7813    5.9303   -0.8795 H       1  LIG1        0.0827
     42 O         -10.1633    2.4962    0.9376 O.3     1  LIG1       -0.5031
     43 H         -10.0402    1.5299    0.7408 H       1  LIG1        0.2923
     44 N         -10.3258    5.3694    0.5579 N.pl3   1  LIG1       -0.3540
     45 H         -10.5893    6.1176   -0.0688 H       1  LIG1        0.1425
     46 H         -11.1262    4.7892    0.7763 H       1  LIG1        0.1425
@<TRIPOS>BOND
     1    22    21    1
     2    11    10    1
     3    40    39    1
     4    41    38    1
     5    21    23    1
     6    21    15    1
     7    10    12    1
     8    10     3    1
     9    33    32    1
    10    39    38   ar
    11    39    35   ar
    12    20    19    1
    13    38    37   ar
    14    19    14    1
    15    15    14   ar
    16    15    16   ar
    17     9     8    1
    18    29    28    1
    19    14    13   ar
    20    28    24   ar
    21    28    27   ar
    22    31    30    1
    23    16    24    1
    24    16    17   ar
    25    24    25   ar
    26    35    27    1
    27    35    36   ar
    28    27    26   ar
    29    45    44    1
    30    25    26   ar
    31    25    30    1
    32     3     4   ar
    33     3     2   ar
    34    26    32    1
    35    13    17   ar
    36    13     4    1
    37    17    18    1
    38    37    36   ar
    39    37    44    1
    40    32    34    1
    41     8     2    1
    42     4     5   ar
    43    36    42    1
    44     2     1   ar
    45    44    46    1
    46    43    42    1
    47     5     1   ar
    48     5     6    1
    49     1     7    1
