@<TRIPOS>MOLECULE
mol_data/opt/cam/geoms/mol2/13fh13fh.out
 24 25 0 0 0
SMALL
GASTEIGER

@<TRIPOS>ATOM
      1 C           1.2734   -0.3205   -0.3420 C.ar    1  LIG1        0.0461
      2 C           0.8747    0.9536   -0.0473 C.ar    1  LIG1        0.1554
      3 C          -0.5370    0.9566    0.1231 C.ar    1  LIG1        0.0938
      4 C          -0.9782   -0.3326   -0.0876 C.ar    1  LIG1        0.0911
      5 N           0.1308   -1.1111   -0.3349 N.ar    1  LIG1       -0.3549
      6 H           0.0768   -1.9959   -0.8121 H       1  LIG1        0.1655
      7 H           2.2504   -0.7324   -0.5327 H       1  LIG1        0.0845
      8 O           1.6384    2.0630    0.0986 O.3     1  LIG1       -0.5035
      9 H           0.9962    2.7819    0.2233 H       1  LIG1        0.2923
     10 N          -1.2349    2.1473    0.4601 N.pl3   1  LIG1       -0.3535
     11 H          -2.0922    2.2265   -0.0810 H       1  LIG1        0.1425
     12 H          -1.4986    2.1574    1.4414 H       1  LIG1        0.1425
     13 C          -2.3209   -0.8674   -0.0661 C.ar    1  LIG1        0.1087
     14 C          -3.5279   -0.2929   -0.3882 C.ar    1  LIG1        0.1643
     15 C          -4.5584   -1.2469   -0.1889 C.ar    1  LIG1        0.0849
     16 C          -3.9578   -2.4026    0.2553 C.ar    1  LIG1        0.0267
     17 N          -2.6108   -2.1716    0.3103 N.ar    1  LIG1       -0.3549
     18 H          -1.9445   -2.7705    0.7685 H       1  LIG1        0.1655
     19 H          -4.3793   -3.3579    0.5287 H       1  LIG1        0.0827
     20 O          -3.7487    0.9644   -0.8556 O.3     1  LIG1       -0.5031
     21 H          -4.7102    1.0084   -0.9945 H       1  LIG1        0.2923
     22 N          -5.9106   -0.9071   -0.4795 N.pl3   1  LIG1       -0.3540
     23 H          -6.3087   -1.4895   -1.2077 H       1  LIG1        0.1425
     24 H          -6.5098   -0.9692    0.3362 H       1  LIG1        0.1425
@<TRIPOS>BOND
     1    23    22    1
     2    21    20    1
     3    20    14    1
     4     6     5    1
     5     7     1    1
     6    22    15    1
     7    22    24    1
     8    14    15   ar
     9    14    13   ar
    10     1     5   ar
    11     1     2   ar
    12     5     4   ar
    13    15    16   ar
    14     4    13    1
    15     4     3   ar
    16    11    10    1
    17    13    17   ar
    18     2     8    1
    19     2     3   ar
    20     8     9    1
    21     3    10    1
    22    16    17   ar
    23    16    19    1
    24    17    18    1
    25    10    12    1
