@<TRIPOS>MOLECULE
mol_data/opt/cam/geoms/mol2/13fh13fh13fh.out
 35 37 0 0 0
SMALL
GASTEIGER

@<TRIPOS>ATOM
      1 C           1.2776   -0.1018   -0.8437 C.ar    1  LIG1        0.0461
      2 C           0.9277    1.0640   -0.2226 C.ar    1  LIG1        0.1554
      3 C          -0.4465    0.9891    0.1372 C.ar    1  LIG1        0.0938
      4 C          -0.9171   -0.2341   -0.2898 C.ar    1  LIG1        0.0912
      5 N           0.1454   -0.9100   -0.8520 N.ar    1  LIG1       -0.3549
      6 H           0.0168   -1.6469   -1.5263 H       1  LIG1        0.1655
      7 H           2.2172   -0.4338   -1.2532 H       1  LIG1        0.0845
      8 O           1.7064    2.1354    0.0618 O.3     1  LIG1       -0.5035
      9 H           1.0887    2.7881    0.4330 H       1  LIG1        0.2923
     10 N          -1.0852    2.0566    0.8239 N.pl3   1  LIG1       -0.3535
     11 H          -2.0054    2.2356    0.4298 H       1  LIG1        0.1425
     12 H          -1.2195    1.8371    1.8069 H       1  LIG1        0.1425
     13 C          -2.2458   -0.7935   -0.2040 C.ar    1  LIG1        0.1092
     14 C          -3.4822   -0.1892   -0.2397 C.ar    1  LIG1        0.1650
     15 C          -4.4846   -1.1788   -0.1184 C.ar    1  LIG1        0.0945
     16 C          -3.8458   -2.4018   -0.0229 C.ar    1  LIG1        0.0916
     17 N          -2.4944   -2.1535   -0.0697 N.ar    1  LIG1       -0.3473
     18 H          -1.7756   -2.8567   -0.0595 H       1  LIG1        0.1662
     19 O          -3.7502    1.1362   -0.3803 O.3     1  LIG1       -0.5030
     20 H          -4.7178    1.1818   -0.4681 H       1  LIG1        0.2923
     21 N          -5.8631   -0.8355   -0.1354 N.pl3   1  LIG1       -0.3534
     22 H          -6.3847   -1.4757   -0.7289 H       1  LIG1        0.1425
     23 H          -6.2703   -0.8922    0.7938 H       1  LIG1        0.1425
     24 C          -4.4084   -3.7274    0.0944 C.ar    1  LIG1        0.1087
     25 C          -5.5701   -4.2563   -0.4171 C.ar    1  LIG1        0.1643
     26 C          -5.6747   -5.6124   -0.0148 C.ar    1  LIG1        0.0849
     27 C          -4.5622   -5.8943    0.7437 C.ar    1  LIG1        0.0267
     28 N          -3.7955   -4.7621    0.7902 N.ar    1  LIG1       -0.3549
     29 H          -3.0339   -4.6203    1.4325 H       1  LIG1        0.1655
     30 H          -4.2595   -6.8019    1.2434 H       1  LIG1        0.0827
     31 O          -6.4821   -3.6373   -1.2114 O.3     1  LIG1       -0.5031
     32 H          -7.1472   -4.3213   -1.4006 H       1  LIG1        0.2923
     33 N          -6.7814   -6.3988   -0.4435 N.pl3   1  LIG1       -0.3540
     34 H          -6.4980   -7.1947   -1.0043 H       1  LIG1        0.1425
     35 H          -7.3379   -6.7413    0.3318 H       1  LIG1        0.1425
@<TRIPOS>BOND
     1     6     5    1
     2    32    31    1
     3     7     1    1
     4    31    25    1
     5    34    33    1
     6     5     1   ar
     7     5     4   ar
     8     1     2   ar
     9    22    21    1
    10    20    19    1
    11    33    26    1
    12    33    35    1
    13    25    26   ar
    14    25    24   ar
    15    19    14    1
    16     4    13    1
    17     4     3   ar
    18    14    13   ar
    19    14    15   ar
    20     2     8    1
    21     2     3   ar
    22    13    17   ar
    23    21    15    1
    24    21    23    1
    25    15    16   ar
    26    17    18    1
    27    17    16   ar
    28    16    24    1
    29    26    27   ar
    30     8     9    1
    31    24    28   ar
    32     3    10    1
    33    11    10    1
    34    27    28   ar
    35    27    30    1
    36    28    29    1
    37    10    12    1
