@<TRIPOS>MOLECULE
mol_data/opt/cam/geoms/mol2/13fh13fh-13fh13fh-.out
 46 49 0 0 0
SMALL
GASTEIGER

@<TRIPOS>ATOM
      1 C           1.3896   -0.2627   -0.0108 C.ar    1  LIG1        0.0461
      2 C           1.0008    1.0480   -0.1003 C.ar    1  LIG1        0.1554
      3 C          -0.4171    1.0959   -0.1160 C.ar    1  LIG1        0.0938
      4 C          -0.8715   -0.2132   -0.0340 C.ar    1  LIG1        0.0912
      5 N           0.2319   -1.0160    0.0276 N.ar    1  LIG1       -0.3549
      6 H           0.1728   -2.0192    0.0977 H       1  LIG1        0.1655
      7 H           2.3678   -0.7119    0.0261 H       1  LIG1        0.0845
      8 O           1.7860    2.1524   -0.1665 O.3     1  LIG1       -0.5035
      9 H           1.1579    2.8913   -0.2209 H       1  LIG1        0.2923
     10 N          -1.1027    2.3407   -0.2038 N.pl3   1  LIG1       -0.3535
     11 H          -1.6573    2.4509   -1.0452 H       1  LIG1        0.1425
     12 H          -1.6695    2.5609    0.6075 H       1  LIG1        0.1425
     13 C          -2.2009   -0.7682   -0.0046 C.ar    1  LIG1        0.1092
     14 C          -2.6178   -2.0789    0.0845 C.ar    1  LIG1        0.1650
     15 C          -4.0356   -2.1113    0.0800 C.ar    1  LIG1        0.0945
     16 C          -4.4604   -0.7954   -0.0112 C.ar    1  LIG1        0.0916
     17 N          -3.3500   -0.0036   -0.0620 N.ar    1  LIG1       -0.3473
     18 H          -3.3839    1.0012   -0.1283 H       1  LIG1        0.1662
     19 O          -1.7615   -3.1486    0.1471 O.3     1  LIG1       -0.5030
     20 H          -2.2764   -3.9332    0.3690 H       1  LIG1        0.2923
     21 N          -4.9031   -3.2389    0.1584 N.pl3   1  LIG1       -0.3534
     22 H          -4.7340   -3.9236   -0.5707 H       1  LIG1        0.1425
     23 H          -4.8823   -3.7038    1.0603 H       1  LIG1        0.1425
     24 C          -5.7829   -0.2382   -0.0498 C.ar    1  LIG1        0.1092
     25 C          -6.1937    1.0747   -0.1186 C.ar    1  LIG1        0.1650
     26 C          -7.6040    1.1101   -0.1235 C.ar    1  LIG1        0.0945
     27 C          -8.0417   -0.2105   -0.0588 C.ar    1  LIG1        0.0916
     28 N          -6.9292   -1.0026   -0.0201 N.ar    1  LIG1       -0.3473
     29 H          -6.9191   -2.0108    0.0734 H       1  LIG1        0.1662
     30 O          -5.3820    2.1674   -0.1818 O.3     1  LIG1       -0.5030
     31 H          -5.9830    2.9254   -0.2639 H       1  LIG1        0.2923
     32 N          -8.3016    2.3476   -0.2036 N.pl3   1  LIG1       -0.3534
     33 H          -8.9268    2.4193   -0.9981 H       1  LIG1        0.1425
     34 H          -8.7909    2.6050    0.6463 H       1  LIG1        0.1425
     35 C          -9.3645   -0.7845   -0.0484 C.ar    1  LIG1        0.1087
     36 C          -9.7570   -2.1047   -0.1585 C.ar    1  LIG1        0.1643
     37 C         -11.1712   -2.1754   -0.0715 C.ar    1  LIG1        0.0849
     38 C         -11.6168   -0.8829    0.0784 C.ar    1  LIG1        0.0267
     39 N         -10.5159   -0.0519    0.0728 N.ar    1  LIG1       -0.3549
     40 H         -10.5359    0.9416    0.2162 H       1  LIG1        0.1655
     41 H         -12.6162   -0.4943    0.1915 H       1  LIG1        0.0827
     42 O          -8.9222   -3.1997   -0.2975 O.3     1  LIG1       -0.5031
     43 H          -8.6688   -3.2748   -1.2268 H       1  LIG1        0.2923
     44 N         -11.9134   -3.3651   -0.0841 N.pl3   1  LIG1       -0.3540
     45 H         -12.7095   -3.3415   -0.7071 H       1  LIG1        0.1425
     46 H         -11.3212   -4.1562   -0.3025 H       1  LIG1        0.1425
@<TRIPOS>BOND
     1    43    42    1
     2    11    10    1
     3    33    32    1
     4    45    44    1
     5    22    21    1
     6    46    44    1
     7    42    36    1
     8    31    30    1
     9     9     8    1
    10    10     3    1
    11    10    12    1
    12    32    26    1
    13    32    34    1
    14    30    25    1
    15     8     2    1
    16    36    37   ar
    17    36    35   ar
    18    18    17    1
    19    26    25   ar
    20    26    27   ar
    21    25    24   ar
    22     3     2   ar
    23     3     4   ar
    24     2     1   ar
    25    44    37    1
    26    37    38   ar
    27    17    16   ar
    28    17    13   ar
    29    27    35    1
    30    27    28   ar
    31    24    28   ar
    32    24    16    1
    33    35    39   ar
    34     4    13    1
    35     4     5   ar
    36    28    29    1
    37    16    15   ar
    38     1     7    1
    39     1     5   ar
    40    13    14   ar
    41     5     6    1
    42    39    38   ar
    43    39    40    1
    44    38    41    1
    45    15    14   ar
    46    15    21    1
    47    14    19    1
    48    19    20    1
    49    21    23    1
