@<TRIPOS>MOLECULE
mol_data/opt/cam/geoms/mol2/13fh13fh13fh-13fh.out
 46 49 0 0 0
SMALL
GASTEIGER

@<TRIPOS>ATOM
      1 C           1.3534   -0.1921    0.2615 C.ar    1  LIG1        0.0461
      2 C           0.8843    1.0678    0.5141 C.ar    1  LIG1        0.1554
      3 C          -0.5302    1.0583    0.3809 C.ar    1  LIG1        0.0938
      4 C          -0.9009   -0.2253    0.0301 C.ar    1  LIG1        0.0912
      5 N           0.2460   -0.9843   -0.0074 N.ar    1  LIG1       -0.3549
      6 H           0.3009   -1.8709   -0.4797 H       1  LIG1        0.1655
      7 H           2.3537   -0.5920    0.2673 H       1  LIG1        0.0845
      8 O           1.5862    2.1736    0.8610 O.3     1  LIG1       -0.5035
      9 H           0.9215    2.8827    0.8815 H       1  LIG1        0.2923
     10 N          -1.2969    2.2312    0.6172 N.pl3   1  LIG1       -0.3535
     11 H          -2.0200    2.3399   -0.0887 H       1  LIG1        0.1425
     12 H          -1.7648    2.1926    1.5185 H       1  LIG1        0.1425
     13 C          -2.2054   -0.7723   -0.2530 C.ar    1  LIG1        0.1092
     14 C          -3.3472   -0.1878   -0.7329 C.ar    1  LIG1        0.1650
     15 C          -4.3752   -1.1691   -0.8166 C.ar    1  LIG1        0.0945
     16 C          -3.8408   -2.3638   -0.3882 C.ar    1  LIG1        0.0916
     17 N          -2.5033   -2.1326   -0.0854 N.ar    1  LIG1       -0.3473
     18 H          -2.0599   -2.6599    0.6542 H       1  LIG1        0.1662
     19 O          -3.5171    1.0931   -1.1462 O.3     1  LIG1       -0.5030
     20 H          -4.4013    1.1099   -1.5511 H       1  LIG1        0.2923
     21 N          -5.6401   -0.8348   -1.3730 N.pl3   1  LIG1       -0.3534
     22 H          -5.9472   -1.4966   -2.0775 H       1  LIG1        0.1425
     23 H          -6.3725   -0.7415   -0.6768 H       1  LIG1        0.1425
     24 C          -4.3923   -3.6896   -0.2877 C.ar    1  LIG1        0.1092
     25 C          -3.7502   -4.9120   -0.3622 C.ar    1  LIG1        0.1650
     26 C          -4.7167   -5.9387   -0.2381 C.ar    1  LIG1        0.0945
     27 C          -5.9445   -5.3129   -0.0993 C.ar    1  LIG1        0.0916
     28 N          -5.7414   -3.9648   -0.1422 N.ar    1  LIG1       -0.3473
     29 H          -6.4782   -3.2912   -0.0038 H       1  LIG1        0.1662
     30 O          -2.4155   -5.1386   -0.5448 O.3     1  LIG1       -0.5030
     31 H          -2.0326   -4.3387   -0.9311 H       1  LIG1        0.2923
     32 N          -4.5348   -7.3552   -0.2575 N.pl3   1  LIG1       -0.3534
     33 H          -4.0596   -7.6384   -1.1104 H       1  LIG1        0.1425
     34 H          -3.9349   -7.6467    0.5097 H       1  LIG1        0.1425
     35 C          -7.2565   -5.8742    0.0641 C.ar    1  LIG1        0.1087
     36 C          -8.4826   -5.2671    0.2098 C.ar    1  LIG1        0.1643
     37 C          -9.4698   -6.2707    0.3346 C.ar    1  LIG1        0.0849
     38 C          -8.8131   -7.4855    0.2599 C.ar    1  LIG1        0.0267
     39 N          -7.4856   -7.2329    0.0980 N.ar    1  LIG1       -0.3549
     40 H          -6.7170   -7.8852   -0.0016 H       1  LIG1        0.1655
     41 H          -9.1959   -8.4935    0.3112 H       1  LIG1        0.0827
     42 O          -8.7225   -3.9259    0.2330 O.3     1  LIG1       -0.5031
     43 H          -9.6830   -3.8487    0.3592 H       1  LIG1        0.2923
     44 N         -10.8392   -5.9156    0.5031 N.pl3   1  LIG1       -0.3540
     45 H         -11.4238   -6.2612   -0.2501 H       1  LIG1        0.1425
     46 H         -11.2221   -6.2572    1.3778 H       1  LIG1        0.1425
@<TRIPOS>BOND
     1    22    21    1
     2    20    19    1
     3    21    15    1
     4    21    23    1
     5    19    14    1
     6    33    32    1
     7    31    30    1
     8    15    14   ar
     9    15    16   ar
    10    14    13   ar
    11    30    25    1
    12     6     5    1
    13    16    24    1
    14    16    17   ar
    15    25    24   ar
    16    25    26   ar
    17    24    28   ar
    18    32    26    1
    19    32    34    1
    20    13    17   ar
    21    13     4    1
    22    45    44    1
    23    26    27   ar
    24    28    27   ar
    25    28    29    1
    26    27    35    1
    27    11    10    1
    28    17    18    1
    29     5     4   ar
    30     5     1   ar
    31    40    39    1
    32     4     3   ar
    33    35    39   ar
    34    35    36   ar
    35    39    38   ar
    36    36    42    1
    37    36    37   ar
    38    42    43    1
    39    38    41    1
    40    38    37   ar
    41     1     7    1
    42     1     2   ar
    43    37    44    1
    44     3     2   ar
    45     3    10    1
    46    44    46    1
    47     2     8    1
    48    10    12    1
    49     8     9    1
