@<TRIPOS>MOLECULE
mol_data/opt/cam/geoms/mol2/13fh13fh-13fh.out
 35 37 0 0 0
SMALL
GASTEIGER

@<TRIPOS>ATOM
      1 C           1.3333   -0.2674   -0.0026 C.ar    1  LIG1        0.0461
      2 C           0.9324    1.0426   -0.0047 C.ar    1  LIG1        0.1554
      3 C          -0.4859    1.0784   -0.0267 C.ar    1  LIG1        0.0938
      4 C          -0.9279   -0.2373   -0.0378 C.ar    1  LIG1        0.0912
      5 N           0.1828   -1.0323   -0.0231 N.ar    1  LIG1       -0.3549
      6 H           0.1342   -2.0385   -0.0271 H       1  LIG1        0.1655
      7 H           2.3156   -0.7090    0.0114 H       1  LIG1        0.0845
      8 O           1.7073    2.1559    0.0110 O.3     1  LIG1       -0.5035
      9 H           1.0728    2.8913    0.0040 H       1  LIG1        0.2923
     10 N          -1.1829    2.3198   -0.0335 N.pl3   1  LIG1       -0.3535
     11 H          -1.7315    2.4840   -0.8701 H       1  LIG1        0.1425
     12 H          -1.7583    2.4779    0.7861 H       1  LIG1        0.1425
     13 C          -2.2525   -0.8047   -0.0604 C.ar    1  LIG1        0.1092
     14 C          -2.6583   -2.1215   -0.0705 C.ar    1  LIG1        0.1650
     15 C          -4.0762   -2.1642   -0.0930 C.ar    1  LIG1        0.0945
     16 C          -4.5111   -0.8490   -0.0962 C.ar    1  LIG1        0.0916
     17 N          -3.4084   -0.0474   -0.0767 N.ar    1  LIG1       -0.3473
     18 H          -3.4514    0.9594   -0.0738 H       1  LIG1        0.1662
     19 O          -1.7923   -3.1846   -0.0598 O.3     1  LIG1       -0.5030
     20 H          -2.3109   -3.9973   -0.0708 H       1  LIG1        0.2923
     21 N          -4.9365   -3.3029   -0.1096 N.pl3   1  LIG1       -0.3534
     22 H          -4.8141   -3.8811   -0.9350 H       1  LIG1        0.1425
     23 H          -4.8401   -3.8855    0.7161 H       1  LIG1        0.1425
     24 C          -5.8396   -0.3016   -0.1155 C.ar    1  LIG1        0.1087
     25 C          -6.2680    1.0058   -0.1180 C.ar    1  LIG1        0.1643
     26 C          -7.6814    1.0183   -0.1401 C.ar    1  LIG1        0.0849
     27 C          -8.0908   -0.3016   -0.1509 C.ar    1  LIG1        0.0267
     28 N          -6.9749   -1.0835   -0.1359 N.ar    1  LIG1       -0.3549
     29 H          -6.9108   -2.0924   -0.1377 H       1  LIG1        0.1655
     30 H          -9.0819   -0.7291   -0.1678 H       1  LIG1        0.0827
     31 O          -5.4759    2.1146   -0.1018 O.3     1  LIG1       -0.5031
     32 H          -6.0955    2.8630   -0.1085 H       1  LIG1        0.2923
     33 N          -8.3902    2.2541   -0.1472 N.pl3   1  LIG1       -0.3540
     34 H          -8.9624    2.3668   -0.9768 H       1  LIG1        0.1425
     35 H          -8.9900    2.3603    0.6635 H       1  LIG1        0.1425
@<TRIPOS>BOND
     1    34    33    1
     2    22    21    1
     3    11    10    1
     4    30    27    1
     5    27    26   ar
     6    27    28   ar
     7    33    26    1
     8    33    35    1
     9    26    25   ar
    10    29    28    1
    11    28    24   ar
    12    25    24   ar
    13    25    31    1
    14    24    16    1
    15    21    15    1
    16    21    23    1
    17    32    31    1
    18    16    15   ar
    19    16    17   ar
    20    15    14   ar
    21    17    18    1
    22    17    13   ar
    23    20    19    1
    24    14    13   ar
    25    14    19    1
    26    13     4    1
    27     4     3   ar
    28     4     5   ar
    29    10     3    1
    30    10    12    1
    31     6     5    1
    32     3     2   ar
    33     5     1   ar
    34     2     1   ar
    35     2     8    1
    36     1     7    1
    37     9     8    1
