@<TRIPOS>MOLECULE
mol_data/opt/cam/geoms/mol2/13fh13fh-13fh-13fh.out
 46 49 0 0 0
SMALL
GASTEIGER

@<TRIPOS>ATOM
      1 C           1.2749   -0.4558    0.9348 C.ar    1  LIG1        0.0461
      2 C           1.0804    0.7640    0.3537 C.ar    1  LIG1        0.1554
      3 C          -0.2828    0.8624   -0.0512 C.ar    1  LIG1        0.0938
      4 C          -0.9020   -0.3215    0.2921 C.ar    1  LIG1        0.0912
      5 N           0.0628   -1.1360    0.8557 N.ar    1  LIG1       -0.3549
      6 H          -0.1881   -1.8788    1.4897 H       1  LIG1        0.1655
      7 H           2.1572   -0.9096    1.3544 H       1  LIG1        0.0845
      8 O           1.9885    1.7399    0.1244 O.3     1  LIG1       -0.5035
      9 H           1.5177    2.3908   -0.4227 H       1  LIG1        0.2923
     10 N          -0.7402    1.9988   -0.7736 N.pl3   1  LIG1       -0.3535
     11 H          -1.2850    1.7423   -1.5897 H       1  LIG1        0.1425
     12 H          -1.2977    2.6302   -0.2080 H       1  LIG1        0.1425
     13 C          -2.2424   -0.8163    0.0834 C.ar    1  LIG1        0.1092
     14 C          -2.6588   -2.0861   -0.2423 C.ar    1  LIG1        0.1650
     15 C          -4.0703   -2.0815   -0.3725 C.ar    1  LIG1        0.0945
     16 C          -4.5030   -0.7904   -0.1253 C.ar    1  LIG1        0.0916
     17 N          -3.3860   -0.0202    0.1030 N.ar    1  LIG1       -0.3473
     18 H          -3.4272    0.8471    0.6137 H       1  LIG1        0.1662
     19 O          -1.8953   -3.1947   -0.4569 O.3     1  LIG1       -0.5030
     20 H          -0.9712   -2.9145   -0.5188 H       1  LIG1        0.2923
     21 N          -4.9117   -3.1802   -0.7284 N.pl3   1  LIG1       -0.3534
     22 H          -4.9130   -3.3343   -1.7344 H       1  LIG1        0.1425
     23 H          -4.5655   -4.0358   -0.3037 H       1  LIG1        0.1425
     24 C          -5.8328   -0.2445   -0.0968 C.ar    1  LIG1        0.1092
     25 C          -7.0604   -0.8746    0.0455 C.ar    1  LIG1        0.1650
     26 C          -8.0616    0.1301    0.0986 C.ar    1  LIG1        0.0945
     27 C          -7.4257    1.3517   -0.0172 C.ar    1  LIG1        0.0916
     28 N          -6.0823    1.1253   -0.1090 N.ar    1  LIG1       -0.3473
     29 H          -5.4402    1.8427   -0.4096 H       1  LIG1        0.1662
     30 O          -7.3295   -2.1893    0.1518 O.3     1  LIG1       -0.5030
     31 H          -6.5250   -2.6946   -0.1342 H       1  LIG1        0.2923
     32 N          -9.4733   -0.0340    0.2497 N.pl3   1  LIG1       -0.3534
     33 H          -9.8209   -0.6769   -0.4573 H       1  LIG1        0.1425
     34 H          -9.6792   -0.4731    1.1439 H       1  LIG1        0.1425
     35 C          -7.9779    2.6763   -0.0788 C.ar    1  LIG1        0.1087
     36 C          -7.3758    3.9026   -0.2445 C.ar    1  LIG1        0.1643
     37 C          -8.3790    4.8979   -0.2599 C.ar    1  LIG1        0.0849
     38 C          -9.5886    4.2463   -0.1011 C.ar    1  LIG1        0.0267
     39 N          -9.3328    2.9142    0.0069 N.ar    1  LIG1       -0.3549
     40 H          -9.9797    2.1413    0.1165 H       1  LIG1        0.1655
     41 H         -10.5944    4.6359   -0.0576 H       1  LIG1        0.0827
     42 O          -6.0401    4.1381   -0.3832 O.3     1  LIG1       -0.5031
     43 H          -5.9724    5.1000   -0.5036 H       1  LIG1        0.2923
     44 N          -8.0293    6.2698   -0.4234 N.pl3   1  LIG1       -0.3540
     45 H          -8.4612    6.6827   -1.2427 H       1  LIG1        0.1425
     46 H          -8.2858    6.8319    0.3810 H       1  LIG1        0.1425
@<TRIPOS>BOND
     1    22    21    1
     2    11    10    1
     3    45    44    1
     4    10    12    1
     5    10     3    1
     6    21    15    1
     7    21    23    1
     8    20    19    1
     9    43    42    1
    10    33    32    1
    11    19    14    1
    12    44    37    1
    13    44    46    1
    14     9     8    1
    15    29    28    1
    16    42    36    1
    17    15    14   ar
    18    15    16   ar
    19    37    36   ar
    20    37    38   ar
    21    36    35   ar
    22    14    13   ar
    23    31    30    1
    24    16    24    1
    25    16    17   ar
    26    28    24   ar
    27    28    27   ar
    28    38    41    1
    29    38    39   ar
    30    24    25   ar
    31    35    27    1
    32    35    39   ar
    33     3     4   ar
    34     3     2   ar
    35    27    26   ar
    36    39    40    1
    37    25    26   ar
    38    25    30    1
    39    13    17   ar
    40    13     4    1
    41    26    32    1
    42    17    18    1
    43     8     2    1
    44    32    34    1
    45     4     5   ar
    46     2     1   ar
    47     5     1   ar
    48     5     6    1
    49     1     7    1
