@<TRIPOS>MOLECULE
mol_data/opt/cam/geoms/mol2/13fh13fh13fh-13fh-.out
 46 49 0 0 0
SMALL
GASTEIGER

@<TRIPOS>ATOM
      1 C           1.3188   -0.2595    0.5080 C.ar    1  LIG1        0.0461
      2 C           0.8690    1.0130    0.7317 C.ar    1  LIG1        0.1554
      3 C          -0.5350    1.0400    0.5160 C.ar    1  LIG1        0.0938
      4 C          -0.9176   -0.2347    0.1454 C.ar    1  LIG1        0.0912
      5 N           0.2094   -1.0235    0.1758 N.ar    1  LIG1       -0.3549
      6 H           0.2698   -1.9124   -0.2916 H       1  LIG1        0.1655
      7 H           2.3066   -0.6847    0.5714 H       1  LIG1        0.0845
      8 O           1.5793    2.1000    1.1171 O.3     1  LIG1       -0.5035
      9 H           0.9363    2.8286    1.0947 H       1  LIG1        0.2923
     10 N          -1.2825    2.2331    0.7049 N.pl3   1  LIG1       -0.3535
     11 H          -1.9640    2.3576   -0.0384 H       1  LIG1        0.1425
     12 H          -1.7952    2.2161    1.5820 H       1  LIG1        0.1425
     13 C          -2.2168   -0.7494   -0.2129 C.ar    1  LIG1        0.1092
     14 C          -3.3148   -0.1367   -0.7550 C.ar    1  LIG1        0.1650
     15 C          -4.3602   -1.0933   -0.8998 C.ar    1  LIG1        0.0945
     16 C          -3.8811   -2.3007   -0.4453 C.ar    1  LIG1        0.0916
     17 N          -2.5553   -2.1027   -0.0664 N.ar    1  LIG1       -0.3473
     18 H          -2.1767   -2.6326    0.7070 H       1  LIG1        0.1662
     19 O          -3.4266    1.1474   -1.1779 O.3     1  LIG1       -0.5030
     20 H          -4.2664    1.1813   -1.6668 H       1  LIG1        0.2923
     21 N          -5.5732   -0.7349   -1.5476 N.pl3   1  LIG1       -0.3534
     22 H          -5.8740   -1.4378   -2.2140 H       1  LIG1        0.1425
     23 H          -6.3333   -0.5658   -0.8970 H       1  LIG1        0.1425
     24 C          -4.4527   -3.6225   -0.3974 C.ar    1  LIG1        0.1092
     25 C          -3.8328   -4.8385   -0.5789 C.ar    1  LIG1        0.1650
     26 C          -4.8046   -5.8638   -0.4647 C.ar    1  LIG1        0.0945
     27 C          -6.0189   -5.2521   -0.2142 C.ar    1  LIG1        0.0916
     28 N          -5.8096   -3.8921   -0.2272 N.ar    1  LIG1       -0.3473
     29 H          -6.4310   -3.2622    0.2550 H       1  LIG1        0.1662
     30 O          -2.5237   -5.0805   -0.8636 O.3     1  LIG1       -0.5030
     31 H          -2.1034   -4.2327   -1.0667 H       1  LIG1        0.2923
     32 N          -4.6016   -7.2710   -0.6012 N.pl3   1  LIG1       -0.3534
     33 H          -4.5992   -7.5531   -1.5788 H       1  LIG1        0.1425
     34 H          -3.6963   -7.5306   -0.2199 H       1  LIG1        0.1425
     35 C          -7.3156   -5.8256    0.0316 C.ar    1  LIG1        0.1087
     36 C          -7.6551   -7.0967    0.4407 C.ar    1  LIG1        0.1643
     37 C          -9.0737   -7.1488    0.6006 C.ar    1  LIG1        0.0849
     38 C          -9.5569   -5.9100    0.2772 C.ar    1  LIG1        0.0267
     39 N          -8.4883   -5.0740   -0.0209 N.ar    1  LIG1       -0.3549
     40 H          -8.5914   -4.3487   -0.7152 H       1  LIG1        0.1655
     41 H         -10.5710   -5.5411    0.2642 H       1  LIG1        0.0827
     42 O          -6.8653   -8.1548    0.7096 O.3     1  LIG1       -0.5031
     43 H          -5.9807   -7.9937    0.2914 H       1  LIG1        0.2923
     44 N          -9.7412   -8.2747    1.0933 N.pl3   1  LIG1       -0.3540
     45 H         -10.6389   -8.4401    0.6589 H       1  LIG1        0.1425
     46 H          -9.1559   -9.0978    1.0253 H       1  LIG1        0.1425
@<TRIPOS>BOND
     1    22    21    1
     2    20    19    1
     3    33    32    1
     4    21    15    1
     5    21    23    1
     6    19    14    1
     7    31    30    1
     8    15    14   ar
     9    15    16   ar
    10    30    25    1
    11    14    13   ar
    12    40    39    1
    13    32    26    1
    14    32    34    1
    15    25    26   ar
    16    25    24   ar
    17    26    27   ar
    18    16    24    1
    19    16    17   ar
    20    24    28   ar
    21     6     5    1
    22    28    27   ar
    23    28    29    1
    24    27    35    1
    25    13    17   ar
    26    13     4    1
    27    17    18    1
    28    11    10    1
    29    39    35   ar
    30    39    38   ar
    31    35    36   ar
    32     4     5   ar
    33     4     3   ar
    34     5     1   ar
    35    41    38    1
    36    38    37   ar
    37    43    42    1
    38    36    37   ar
    39    36    42    1
    40     1     7    1
    41     1     2   ar
    42     3    10    1
    43     3     2   ar
    44    37    44    1
    45    45    44    1
    46    10    12    1
    47     2     8    1
    48    46    44    1
    49     9     8    1
