@<TRIPOS>MOLECULE
mol_data/opt/cam/geoms/mol2/13fh13fh-4fh13fh.out
 48 51 0 0 0
SMALL
GASTEIGER

@<TRIPOS>ATOM
      1 C           1.3861   -0.3734    0.4016 C.ar    1  LIG1        0.0461
      2 C           1.0264    0.9463    0.3052 C.ar    1  LIG1        0.1554
      3 C          -0.3801    1.0162    0.1383 C.ar    1  LIG1        0.0938
      4 C          -0.8561   -0.2868    0.1323 C.ar    1  LIG1        0.0912
      5 N           0.2246   -1.1093    0.2858 N.ar    1  LIG1       -0.3549
      6 H           0.1318   -2.1096    0.3663 H       1  LIG1        0.1655
      7 H           2.3491   -0.8368    0.5361 H       1  LIG1        0.0845
      8 O           1.8314    2.0366    0.3469 O.3     1  LIG1       -0.5035
      9 H           1.2304    2.7884    0.2179 H       1  LIG1        0.2923
     10 N          -1.0389    2.2706   -0.0001 N.pl3   1  LIG1       -0.3535
     11 H          -1.5639    2.3613   -0.8629 H       1  LIG1        0.1425
     12 H          -1.6420    2.5011    0.7823 H       1  LIG1        0.1425
     13 C          -2.1847   -0.8281   -0.0111 C.ar    1  LIG1        0.1091
     14 C          -2.5949   -2.1394   -0.1648 C.ar    1  LIG1        0.1650
     15 C          -4.0032   -2.1715   -0.2594 C.ar    1  LIG1        0.0931
     16 C          -4.4456   -0.8551   -0.1693 C.ar    1  LIG1        0.0751
     17 N          -3.3182   -0.0708   -0.0295 N.ar    1  LIG1       -0.3485
     18 H          -3.3616    0.9341    0.0095 H       1  LIG1        0.1661
     19 O          -1.7664   -3.2514   -0.1824 O.3     1  LIG1       -0.5030
     20 H          -1.5632   -3.4616   -1.1034 H       1  LIG1        0.2923
     21 N          -4.7708   -3.3498   -0.3900 N.pl3   1  LIG1       -0.3535
     22 H          -5.2679   -3.3899   -1.2739 H       1  LIG1        0.1425
     23 H          -4.1635   -4.1590   -0.3192 H       1  LIG1        0.1425
     24 C          -6.0648    1.0740   -0.3129 C.ar    1  LIG1        0.1267
     25 C          -7.3592    1.5586   -0.2876 C.ar    1  LIG1       -0.0085
     26 C          -5.7930   -0.2967   -0.1691 C.ar    1  LIG1        0.0434
     27 C          -8.4652    0.7189   -0.1169 C.ar    1  LIG1        0.0260
     28 H          -7.5310    2.6263   -0.3870 H       1  LIG1        0.0661
     29 C          -6.9081   -1.1317   -0.0220 C.ar    1  LIG1       -0.0277
     30 C          -8.2128   -0.6611   -0.0008 C.ar    1  LIG1        0.0347
     31 H          -6.7318   -2.1956    0.0980 H       1  LIG1        0.0644
     32 O          -5.0069    1.9469   -0.4652 O.3     1  LIG1       -0.5061
     33 H          -5.3594    2.8401   -0.5517 H       1  LIG1        0.2922
     34 N          -9.3016   -1.5775    0.1628 N.pl3   1  LIG1       -0.3574
     35 H          -9.8466   -1.6464   -0.6933 H       1  LIG1        0.1423
     36 H          -8.9552   -2.5041    0.3844 H       1  LIG1        0.1423
     37 C          -9.7962    1.3075   -0.0365 C.ar    1  LIG1        0.0923
     38 C         -10.2434    2.5825   -0.3322 C.ar    1  LIG1        0.1629
     39 C         -11.6152    2.6744   -0.0036 C.ar    1  LIG1        0.0848
     40 C         -11.9902    1.4449    0.4991 C.ar    1  LIG1        0.0267
     41 N         -10.8998    0.6365    0.4675 N.ar    1  LIG1       -0.3560
     42 H         -10.8128   -0.3121    0.8096 H       1  LIG1        0.1655
     43 H         -12.9444    1.0943    0.8630 H       1  LIG1        0.0827
     44 O          -9.5360    3.6212   -0.8483 O.3     1  LIG1       -0.5031
     45 H         -10.1870    4.3416   -0.9138 H       1  LIG1        0.2923
     46 N         -12.3210    3.8924   -0.2240 N.pl3   1  LIG1       -0.3540
     47 H         -13.0802    3.7869   -0.8880 H       1  LIG1        0.1425
     48 H         -12.7041    4.2785    0.6319 H       1  LIG1        0.1425
@<TRIPOS>BOND
     1    22    21    1
     2    20    19    1
     3    45    44    1
     4    47    46    1
     5    11    10    1
     6    44    38    1
     7    35    34    1
     8    33    32    1
     9    32    24    1
    10    21    23    1
    11    21    15    1
    12    28    25    1
    13    38    37   ar
    14    38    39   ar
    15    24    25   ar
    16    24    26   ar
    17    25    27   ar
    18    15    16   ar
    19    15    14   ar
    20    46    39    1
    21    46    48    1
    22    19    14    1
    23    16    26    1
    24    16    17   ar
    25    26    29   ar
    26    14    13   ar
    27    27    37    1
    28    27    30   ar
    29    37    41   ar
    30    17    13   ar
    31    17    18    1
    32    29    30   ar
    33    29    31    1
    34    13     4    1
    35    39    40   ar
    36    30    34    1
    37    10     3    1
    38    10    12    1
    39     4     3   ar
    40     4     5   ar
    41     3     2   ar
    42    34    36    1
    43     9     8    1
    44     5     6    1
    45     5     1   ar
    46     2     8    1
    47     2     1   ar
    48     1     7    1
    49    41    40   ar
    50    41    42    1
    51    40    43    1
