@<TRIPOS>MOLECULE
mol_data/opt/cam/geoms/mol2/13fi13fi13fi13fi.out
 50 53 0 0 0
SMALL
GASTEIGER

@<TRIPOS>ATOM
      1 C           0.6636    0.2248   -2.0580 C.ar    1  LIG1        0.0445
      2 C           0.7520    1.0727   -0.9880 C.ar    1  LIG1        0.1376
      3 C          -0.3925    0.8932   -0.1585 C.ar    1  LIG1        0.0178
      4 C          -1.1662   -0.0725   -0.7701 C.ar    1  LIG1        0.0730
      5 N          -0.5033   -0.4964   -1.9006 N.ar    1  LIG1       -0.3561
      6 H          -0.9548   -1.0031   -2.6437 H       1  LIG1        0.1655
      7 H           1.3353    0.0660   -2.8854 H       1  LIG1        0.0844
      8 O           1.8053    1.9089   -0.7498 O.3     1  LIG1       -0.5050
      9 H           1.5699    2.4874   -0.0163 H       1  LIG1        0.2922
     10 C          -0.6579    1.5906    1.1370 C.3     1  LIG1       -0.0342
     11 H          -1.4049    1.0491    1.7195 H       1  LIG1        0.0279
     12 H          -1.0470    2.6046    0.9927 H       1  LIG1        0.0279
     13 H           0.2517    1.6629    1.7458 H       1  LIG1        0.0279
     14 C          -2.4345   -0.6593   -0.3846 C.ar    1  LIG1        0.1060
     15 C          -3.6024   -0.1030    0.0903 C.ar    1  LIG1        0.1470
     16 C          -4.5703   -1.1248    0.2760 C.ar    1  LIG1        0.0185
     17 C          -3.9686   -2.3081   -0.1131 C.ar    1  LIG1        0.0735
     18 N          -2.6829   -2.0167   -0.4986 N.ar    1  LIG1       -0.3486
     19 H          -2.0229   -2.6831   -0.8626 H       1  LIG1        0.1661
     20 O          -3.7604    1.2287    0.3519 O.3     1  LIG1       -0.5043
     21 H          -4.7004    1.4032    0.4717 H       1  LIG1        0.2922
     22 C          -5.9564   -0.9410    0.8055 C.3     1  LIG1       -0.0342
     23 H          -6.3487   -1.8836    1.1909 H       1  LIG1        0.0279
     24 H          -6.6570   -0.6012    0.0350 H       1  LIG1        0.0279
     25 H          -5.9752   -0.2124    1.6246 H       1  LIG1        0.0279
     26 C          -4.4717   -3.6671   -0.1199 C.ar    1  LIG1        0.1060
     27 C          -5.6655   -4.2009   -0.5555 C.ar    1  LIG1        0.1470
     28 C          -5.6487   -5.6081   -0.3705 C.ar    1  LIG1        0.0185
     29 C          -4.4127   -5.9150    0.1695 C.ar    1  LIG1        0.0735
     30 N          -3.7165   -4.7418    0.3200 N.ar    1  LIG1       -0.3486
     31 H          -2.7852   -4.6708    0.6938 H       1  LIG1        0.1661
     32 O          -6.6888   -3.4551   -1.0664 O.3     1  LIG1       -0.5043
     33 H          -7.3326   -4.0539   -1.4607 H       1  LIG1        0.2922
     34 C          -6.7609   -6.5554   -0.6888 C.3     1  LIG1       -0.0342
     35 H          -6.6743   -7.4648   -0.0915 H       1  LIG1        0.0279
     36 H          -6.7584   -6.8666   -1.7388 H       1  LIG1        0.0279
     37 H          -7.7377   -6.1083   -0.4698 H       1  LIG1        0.0279
     38 C          -3.8509   -7.1867    0.5800 C.ar    1  LIG1        0.1055
     39 C          -3.8358   -8.4198   -0.0321 C.ar    1  LIG1        0.1463
     40 C          -3.1139   -9.3365    0.7833 C.ar    1  LIG1        0.0090
     41 C          -2.7018   -8.6236    1.8830 C.ar    1  LIG1        0.0087
     42 N          -3.1247   -7.3316    1.7527 N.ar    1  LIG1       -0.3563
     43 H          -3.1264   -6.6504    2.4934 H       1  LIG1        0.1655
     44 H          -2.1374   -8.9479    2.7444 H       1  LIG1        0.0811
     45 O          -4.4070   -8.6751   -1.2456 O.3     1  LIG1       -0.5043
     46 H          -4.2005   -9.5820   -1.4971 H       1  LIG1        0.2922
     47 C          -2.8489  -10.7750    0.4680 C.3     1  LIG1       -0.0348
     48 H          -2.2750  -11.2494    1.2667 H       1  LIG1        0.0279
     49 H          -2.2714  -10.8963   -0.4564 H       1  LIG1        0.0279
     50 H          -3.7766  -11.3475    0.3534 H       1  LIG1        0.0279
@<TRIPOS>BOND
     1     7     1    1
     2     6     5    1
     3     1     5   ar
     4     1     2   ar
     5     5     4   ar
     6    36    34    1
     7    46    45    1
     8    33    32    1
     9    45    39    1
    10    32    27    1
    11     2     8    1
    12     2     3   ar
    13    19    18    1
    14     4    14    1
    15     4     3   ar
    16     8     9    1
    17    34    37    1
    18    34    28    1
    19    34    35    1
    20    27    28   ar
    21    27    26   ar
    22    18    14   ar
    23    18    17   ar
    24    49    47    1
    25    14    15   ar
    26    28    29   ar
    27     3    10    1
    28    26    17    1
    29    26    30   ar
    30    17    16   ar
    31    39    38   ar
    32    39    40   ar
    33    24    22    1
    34    15    16   ar
    35    15    20    1
    36    29    30   ar
    37    29    38    1
    38    16    22    1
    39    30    31    1
    40    20    21    1
    41    50    47    1
    42    47    40    1
    43    47    48    1
    44    38    42   ar
    45    40    41   ar
    46    22    23    1
    47    22    25    1
    48    12    10    1
    49    10    11    1
    50    10    13    1
    51    42    41   ar
    52    42    43    1
    53    41    44    1
