@<TRIPOS>MOLECULE
mol_data/opt/cam/geoms/mol2/13fi13ee4hl-12ii-.out
 55 58 0 0 0
SMALL
GASTEIGER

@<TRIPOS>ATOM
      1 C           1.1205   -0.4598    0.3256 C.ar    1  LIG1        0.0444
      2 C           0.7075    0.6700    0.9800 C.ar    1  LIG1        0.1376
      3 C          -0.7079    0.7763    0.8709 C.ar    1  LIG1        0.0177
      4 C          -1.1177   -0.3122    0.1250 C.ar    1  LIG1        0.0706
      5 N          -0.0085   -1.0742   -0.1673 N.ar    1  LIG1       -0.3562
      6 H           0.0025   -1.7875   -0.8776 H       1  LIG1        0.1655
      7 H           2.1080   -0.8692    0.1900 H       1  LIG1        0.0844
      8 O           1.5374    1.5088    1.6637 O.3     1  LIG1       -0.5050
      9 H           1.0489    2.3092    1.8849 H       1  LIG1        0.2922
     10 C          -1.5550    1.8291    1.5103 C.3     1  LIG1       -0.0342
     11 H          -2.5846    1.4863    1.6258 H       1  LIG1        0.0279
     12 H          -1.5951    2.7490    0.9175 H       1  LIG1        0.0279
     13 H          -1.1784    2.0834    2.5079 H       1  LIG1        0.0279
     14 C          -2.4396   -0.7461   -0.2829 C.ar    1  LIG1        0.0805
     15 C          -3.5138   -0.0603   -0.8201 C.ar    1  LIG1        0.0673
     16 C          -4.5693   -1.0168   -1.0264 C.ar    1  LIG1        0.0660
     17 C          -4.1035   -2.2551   -0.6143 C.ar    1  LIG1        0.0656
     18 N          -2.8138   -2.0641   -0.1876 N.ar    1  LIG1       -0.3510
     19 H          -2.2838   -2.7635    0.3087 H       1  LIG1        0.1660
     20 C          -3.5544    1.3130   -1.1758 C.1     1  LIG1       -0.0662
     21 C          -3.5996    2.4754   -1.4874 C.1     1  LIG1       -0.1138
     22 H          -3.6421    3.5000   -1.7757 H       1  LIG1        0.1232
     23 C          -5.8296   -0.7342   -1.6140 C.1     1  LIG1       -0.0663
     24 C          -6.9091   -0.4949   -2.0937 C.1     1  LIG1       -0.1138
     25 H          -7.8484   -0.2782   -2.5478 H       1  LIG1        0.1232
     26 C          -5.9627   -3.8957   -0.0929 C.ar    1  LIG1        0.0347
     27 C          -6.3861   -5.2291   -0.0923 C.ar    1  LIG1       -0.0262
     28 C          -4.6812   -3.6056   -0.6037 C.ar    1  LIG1        0.0236
     29 C          -5.5933   -6.2823   -0.5428 C.ar    1  LIG1        0.0609
     30 H          -7.3897   -5.4501    0.2572 H       1  LIG1        0.0644
     31 C          -3.8893   -4.6647   -1.0612 C.ar    1  LIG1       -0.0083
     32 C          -4.3121   -5.9811   -1.0338 C.ar    1  LIG1        0.1315
     33 H          -2.9085   -4.4636   -1.4793 H       1  LIG1        0.0661
     34 N          -6.7774   -2.9190    0.4640 N.pl3   1  LIG1       -0.3574
     35 H          -6.7470   -2.0109    0.0216 H       1  LIG1        0.1423
     36 H          -7.7280   -3.2212    0.6195 H       1  LIG1        0.1423
     37 O          -3.4655   -6.9389   -1.5371 O.3     1  LIG1       -0.4944
     38 C          -2.9000   -7.8102   -0.5730 C.3     1  LIG1        0.0788
     39 H          -2.2410   -8.4890   -1.1159 H       1  LIG1        0.0660
     40 H          -2.3131   -7.2516    0.1671 H       1  LIG1        0.0660
     41 H          -3.6637   -8.3966   -0.0520 H       1  LIG1        0.0660
     42 C          -6.1188   -7.6495   -0.5003 C.ar    1  LIG1        0.1415
     43 C          -6.8344   -8.3372    0.4390 C.ar    1  LIG1       -0.0017
     44 C          -7.0561   -9.6495   -0.1089 C.ar    1  LIG1       -0.0092
     45 C          -6.4560   -9.6457   -1.3236 C.ar    1  LIG1        0.0957
     46 O          -5.8805   -8.4479   -1.5799 O.2     1  LIG1       -0.4623
     47 H          -6.3587  -10.3933   -2.0959 H       1  LIG1        0.1032
     48 C          -7.2789   -7.8750    1.7902 C.3     1  LIG1       -0.0359
     49 H          -7.0694   -8.6348    2.5494 H       1  LIG1        0.0279
     50 H          -8.3575   -7.6839    1.8205 H       1  LIG1        0.0279
     51 H          -6.7701   -6.9559    2.0857 H       1  LIG1        0.0279
     52 C          -7.7903  -10.7763    0.5430 C.3     1  LIG1       -0.0365
     53 H          -7.7940  -11.6642   -0.0932 H       1  LIG1        0.0279
     54 H          -8.8318  -10.5105    0.7502 H       1  LIG1        0.0279
     55 H          -7.3329  -11.0541    1.4982 H       1  LIG1        0.0279
@<TRIPOS>BOND
     1    25    24    1
     2    47    45    1
     3    24    23    3
     4    22    21    1
     5    23    16    1
     6    46    45   ar
     7    46    42   ar
     8    37    32    1
     9    37    38    1
    10    21    20    3
    11    33    31    1
    12    45    44   ar
    13    20    15    1
    14    39    38    1
    15    31    32   ar
    16    31    28   ar
    17    32    29   ar
    18    16    15   ar
    19    16    17   ar
    20     6     5    1
    21    15    14   ar
    22    17    28    1
    23    17    18   ar
    24    28    26   ar
    25    38    41    1
    26    38    40    1
    27    29    42    1
    28    29    27   ar
    29    42    43   ar
    30    14    18   ar
    31    14     4    1
    32    18    19    1
    33     5     4   ar
    34     5     1   ar
    35    44    43   ar
    36    44    52    1
    37    53    52    1
    38    26    27   ar
    39    26    34    1
    40    27    30    1
    41    35    34    1
    42     4     3   ar
    43     7     1    1
    44     1     2   ar
    45    43    48    1
    46    34    36    1
    47    52    54    1
    48    52    55    1
    49     3     2   ar
    50     3    10    1
    51    12    10    1
    52     2     8    1
    53    10    11    1
    54    10    13    1
    55     8     9    1
    56    48    50    1
    57    48    51    1
    58    48    49    1
