@<TRIPOS>MOLECULE
mol_data/opt/cam/geoms/mol2/13fi13fi-4fi13fi.out
 52 55 0 0 0
SMALL
GASTEIGER

@<TRIPOS>ATOM
      1 C           1.3927   -0.3154   -0.1251 C.ar    1  LIG1        0.0445
      2 C           1.0266    0.9852    0.1124 C.ar    1  LIG1        0.1376
      3 C          -0.3909    1.0577    0.1930 C.ar    1  LIG1        0.0178
      4 C          -0.8508   -0.2354   -0.0131 C.ar    1  LIG1        0.0730
      5 N           0.2358   -1.0476   -0.1930 N.ar    1  LIG1       -0.3561
      6 H           0.1447   -2.0400   -0.3486 H       1  LIG1        0.1655
      7 H           2.3686   -0.7571   -0.2411 H       1  LIG1        0.0844
      8 O           1.9103    2.0176    0.2961 O.3     1  LIG1       -0.5050
      9 H           1.5338    2.8127   -0.0965 H       1  LIG1        0.2922
     10 C          -1.1869    2.2926    0.4812 C.3     1  LIG1       -0.0342
     11 H          -1.9469    2.1175    1.2494 H       1  LIG1        0.0279
     12 H          -1.6966    2.6958   -0.4032 H       1  LIG1        0.0279
     13 H          -0.5344    3.0823    0.8659 H       1  LIG1        0.0279
     14 C          -2.1817   -0.7964   -0.0506 C.ar    1  LIG1        0.1059
     15 C          -2.5778   -2.1177   -0.1291 C.ar    1  LIG1        0.1469
     16 C          -3.9882   -2.1898   -0.1675 C.ar    1  LIG1        0.0170
     17 C          -4.4424   -0.8746   -0.0977 C.ar    1  LIG1        0.0570
     18 N          -3.3345   -0.0615   -0.0326 N.ar    1  LIG1       -0.3498
     19 H          -3.3990    0.9416   -0.0951 H       1  LIG1        0.1661
     20 O          -1.6955   -3.1776   -0.2327 O.3     1  LIG1       -0.5043
     21 H          -1.8801   -3.8051    0.4762 H       1  LIG1        0.2922
     22 C          -4.7492   -3.4694   -0.3201 C.3     1  LIG1       -0.0342
     23 H          -4.0905   -4.2358   -0.7387 H       1  LIG1        0.0279
     24 H          -5.5990   -3.3584   -0.9982 H       1  LIG1        0.0279
     25 H          -5.1379   -3.8569    0.6296 H       1  LIG1        0.0279
     26 C          -6.0990    1.0036   -0.4124 C.ar    1  LIG1        0.1266
     27 C          -7.4013    1.4662   -0.4175 C.ar    1  LIG1       -0.0100
     28 C          -5.7993   -0.3298   -0.0845 C.ar    1  LIG1        0.0404
     29 C          -8.4842    0.6475   -0.0770 C.ar    1  LIG1        0.0083
     30 H          -7.5928    2.4999   -0.6870 H       1  LIG1        0.0661
     31 C          -6.8923   -1.1218    0.2831 C.ar    1  LIG1       -0.0456
     32 C          -8.2122   -0.6826    0.2978 C.ar    1  LIG1       -0.0404
     33 H          -6.6979   -2.1357    0.6092 H       1  LIG1        0.0628
     34 O          -5.0661    1.8486   -0.7410 O.3     1  LIG1       -0.5061
     35 H          -5.4259    2.7245   -0.9220 H       1  LIG1        0.2922
     36 C          -9.2783   -1.6459    0.7608 C.3     1  LIG1       -0.0391
     37 H          -8.8291   -2.4593    1.3344 H       1  LIG1        0.0278
     38 H          -9.8115   -2.1187   -0.0747 H       1  LIG1        0.0278
     39 H         -10.0203   -1.1582    1.3971 H       1  LIG1        0.0278
     40 C          -9.8226    1.2388   -0.1129 C.ar    1  LIG1        0.0891
     41 C         -10.2229    2.5521    0.0567 C.ar    1  LIG1        0.1449
     42 C         -11.6294    2.6452   -0.1075 C.ar    1  LIG1        0.0089
     43 C         -12.0597    1.3697   -0.3873 C.ar    1  LIG1        0.0087
     44 N         -10.9840    0.5351   -0.3819 N.ar    1  LIG1       -0.3575
     45 H         -11.0087   -0.4355   -0.6385 H       1  LIG1        0.1655
     46 H         -13.0557    1.0035   -0.5862 H       1  LIG1        0.0811
     47 O          -9.3729    3.5886    0.3332 O.3     1  LIG1       -0.5044
     48 H          -9.8984    4.3483    0.6078 H       1  LIG1        0.2922
     49 C         -12.4513    3.8895    0.0128 C.3     1  LIG1       -0.0348
     50 H         -13.5035    3.6823   -0.1930 H       1  LIG1        0.0279
     51 H         -12.1293    4.6627   -0.6941 H       1  LIG1        0.0279
     52 H         -12.4034    4.3237    1.0191 H       1  LIG1        0.0279
@<TRIPOS>BOND
     1    24    22    1
     2    35    34    1
     3    34    26    1
     4    23    22    1
     5    51    49    1
     6    30    27    1
     7    45    44    1
     8    46    43    1
     9    27    26   ar
    10    27    29   ar
    11    26    28   ar
    12    12    10    1
    13    43    44   ar
    14    43    42   ar
    15    44    40   ar
    16     6     5    1
    17    22    16    1
    18    22    25    1
    19     7     1    1
    20    20    15    1
    21    20    21    1
    22    50    49    1
    23     5     1   ar
    24     5     4   ar
    25    16    15   ar
    26    16    17   ar
    27    15    14   ar
    28     1     2   ar
    29    40    29    1
    30    40    41   ar
    31    42    49    1
    32    42    41   ar
    33    17    28    1
    34    17    18   ar
    35     9     8    1
    36    19    18    1
    37    28    31   ar
    38    29    32   ar
    39    38    36    1
    40    14    18   ar
    41    14     4    1
    42     4     3   ar
    43    49    52    1
    44    41    47    1
    45     2     3   ar
    46     2     8    1
    47     3    10    1
    48    31    32   ar
    49    31    33    1
    50    32    36    1
    51    47    48    1
    52    10    13    1
    53    10    11    1
    54    36    37    1
    55    36    39    1
