@<TRIPOS>MOLECULE
mol_data/opt/cam/geoms/mol2/13fi13fi-13fi-13fi.out
 50 53 0 0 0
SMALL
GASTEIGER

@<TRIPOS>ATOM
      1 C           1.2427   -0.6938   -1.0898 C.ar    1  LIG1        0.0445
      2 C           1.0493    0.6454   -0.8873 C.ar    1  LIG1        0.1376
      3 C          -0.2954    0.8620   -0.4678 C.ar    1  LIG1        0.0178
      4 C          -0.8971   -0.3834   -0.4385 C.ar    1  LIG1        0.0730
      5 N           0.0506   -1.3191   -0.7859 N.ar    1  LIG1       -0.3561
      6 H          -0.1822   -2.2665   -1.0361 H       1  LIG1        0.1655
      7 H           2.1207   -1.2377   -1.3961 H       1  LIG1        0.0844
      8 O           2.0207    1.5931   -1.0267 O.3     1  LIG1       -0.5050
      9 H           1.6158    2.4625   -0.9369 H       1  LIG1        0.2922
     10 C          -0.8865    2.1809   -0.0779 C.3     1  LIG1       -0.0342
     11 H          -1.8013    2.0421    0.5026 H       1  LIG1        0.0279
     12 H          -1.1376    2.8088   -0.9419 H       1  LIG1        0.0279
     13 H          -0.1964    2.7568    0.5502 H       1  LIG1        0.0279
     14 C          -2.2354   -0.8111   -0.0907 C.ar    1  LIG1        0.1060
     15 C          -2.6448   -1.9764    0.5200 C.ar    1  LIG1        0.1470
     16 C          -4.0568   -1.9688    0.6547 C.ar    1  LIG1        0.0185
     17 C          -4.4882   -0.7740    0.1009 C.ar    1  LIG1        0.0735
     18 N          -3.3810   -0.0699   -0.3174 N.ar    1  LIG1       -0.3486
     19 H          -3.4269    0.7064   -0.9571 H       1  LIG1        0.1661
     20 O          -1.8483   -2.9909    0.9789 O.3     1  LIG1       -0.5043
     21 H          -0.9778   -2.6220    1.1798 H       1  LIG1        0.2922
     22 C          -4.8708   -3.0064    1.3612 C.3     1  LIG1       -0.0342
     23 H          -4.3627   -3.3301    2.2735 H       1  LIG1        0.0279
     24 H          -5.0245   -3.9079    0.7566 H       1  LIG1        0.0279
     25 H          -5.8533   -2.6141    1.6319 H       1  LIG1        0.0279
     26 C          -5.8253   -0.2466   -0.0666 C.ar    1  LIG1        0.1060
     27 C          -6.9747   -0.8690   -0.5114 C.ar    1  LIG1        0.1470
     28 C          -8.0280    0.0744   -0.5670 C.ar    1  LIG1        0.0185
     29 C          -7.4807    1.2813   -0.1525 C.ar    1  LIG1        0.0735
     30 N          -6.1559    1.0816    0.1249 N.ar    1  LIG1       -0.3486
     31 H          -5.5807    1.7866    0.5617 H       1  LIG1        0.1661
     32 O          -7.1202   -2.1706   -0.8884 O.3     1  LIG1       -0.5043
     33 H          -6.2429   -2.5732   -0.9190 H       1  LIG1        0.2922
     34 C          -9.4263   -0.2219   -1.0108 C.3     1  LIG1       -0.0342
     35 H          -9.5110   -1.2772   -1.2763 H       1  LIG1        0.0279
     36 H          -9.7151    0.3551   -1.8979 H       1  LIG1        0.0279
     37 H         -10.1652   -0.0276   -0.2238 H       1  LIG1        0.0279
     38 C          -8.0612    2.5902    0.0339 C.ar    1  LIG1        0.1055
     39 C          -7.4860    3.7458    0.5199 C.ar    1  LIG1        0.1463
     40 C          -8.4509    4.7856    0.5320 C.ar    1  LIG1        0.0090
     41 C          -9.6086    4.2234    0.0465 C.ar    1  LIG1        0.0087
     42 N          -9.3688    2.9123   -0.2556 N.ar    1  LIG1       -0.3563
     43 H         -10.0394    2.2685   -0.6375 H       1  LIG1        0.1655
     44 H         -10.5804    4.6668   -0.1085 H       1  LIG1        0.0811
     45 O          -6.1600    3.8320    0.8860 O.3     1  LIG1       -0.5043
     46 H          -6.0768    4.4717    1.6022 H       1  LIG1        0.2922
     47 C          -8.2297    6.1947    0.9824 C.3     1  LIG1       -0.0348
     48 H          -9.1317    6.7945    0.8441 H       1  LIG1        0.0279
     49 H          -7.4235    6.6774    0.4199 H       1  LIG1        0.0279
     50 H          -7.9671    6.2546    2.0458 H       1  LIG1        0.0279
@<TRIPOS>BOND
     1    36    34    1
     2     7     1    1
     3    35    34    1
     4     1     2   ar
     5     1     5   ar
     6     6     5    1
     7     8     9    1
     8     8     2    1
     9    34    28    1
    10    34    37    1
    11    19    18    1
    12    12    10    1
    13    33    32    1
    14    32    27    1
    15     2     3   ar
    16     5     4   ar
    17    43    42    1
    18    28    27   ar
    19    28    29   ar
    20    27    26   ar
    21     3     4   ar
    22     3    10    1
    23     4    14    1
    24    18    14   ar
    25    18    17   ar
    26    42    38   ar
    27    42    41   ar
    28    29    38    1
    29    29    30   ar
    30    44    41    1
    31    14    15   ar
    32    10    11    1
    33    10    13    1
    34    26    17    1
    35    26    30   ar
    36    38    39   ar
    37    41    40   ar
    38    17    16   ar
    39    30    31    1
    40    49    47    1
    41    39    40   ar
    42    39    45    1
    43    15    16   ar
    44    15    20    1
    45    40    47    1
    46    16    22    1
    47    24    22    1
    48    48    47    1
    49    45    46    1
    50    20    21    1
    51    47    50    1
    52    22    25    1
    53    22    23    1
