@<TRIPOS>MOLECULE
mol_data/opt/cam/geoms/mol2/13fi13ad4dd12ii-.out
 48 51 0 0 0
SMALL
GASTEIGER

@<TRIPOS>ATOM
      1 C           1.2008   -0.1362    0.6252 C.ar    1  LIG1        0.0444
      2 C           0.6634    1.0791    0.9565 C.ar    1  LIG1        0.1376
      3 C          -0.7183    1.0804    0.6138 C.ar    1  LIG1        0.0177
      4 C          -0.9793   -0.1613    0.0666 C.ar    1  LIG1        0.0694
      5 N           0.1796   -0.9025    0.1094 N.ar    1  LIG1       -0.3562
      6 H           0.3263   -1.7416   -0.4271 H       1  LIG1        0.1655
      7 H           2.2071   -0.5077    0.7274 H       1  LIG1        0.0844
      8 O           1.3563    2.0852    1.5584 O.3     1  LIG1       -0.5050
      9 H           0.8085    2.8777    1.5676 H       1  LIG1        0.2922
     10 C          -1.6806    2.1963    0.8691 C.3     1  LIG1       -0.0342
     11 H          -2.7126    1.8448    0.8102 H       1  LIG1        0.0279
     12 H          -1.5734    3.0135    0.1464 H       1  LIG1        0.0279
     13 H          -1.5393    2.6217    1.8692 H       1  LIG1        0.0279
     14 C          -2.2159   -0.7290   -0.4339 C.ar    1  LIG1        0.0649
     15 C          -3.2381   -0.1845   -1.1737 C.ar    1  LIG1       -0.0169
     16 C          -4.2230   -1.1955   -1.3523 C.ar    1  LIG1        0.0776
     17 C          -3.7748   -2.3443   -0.7183 C.ar    1  LIG1        0.0658
     18 N          -2.5484   -2.0448   -0.1872 N.ar    1  LIG1       -0.3519
     19 H          -2.0647   -2.6278    0.4789 H       1  LIG1        0.1660
     20 H          -3.2682    0.8123   -1.5848 H       1  LIG1        0.0652
     21 N          -6.3393   -0.9992   -2.8141 N.1     1  LIG1       -0.1908
     22 C          -5.3977   -1.0882   -2.1474 C.1     1  LIG1        0.1013
     23 C          -5.6658   -3.9382   -0.2232 C.ar    1  LIG1        0.0616
     24 C          -6.1670   -5.2373   -0.1863 C.ar    1  LIG1       -0.0318
     25 C          -4.3399   -3.6921   -0.6254 C.ar    1  LIG1        0.0182
     26 C          -5.3748   -6.3441   -0.4928 C.ar    1  LIG1        0.0361
     27 H          -7.2053   -5.3832    0.0810 H       1  LIG1        0.0638
     28 C          -3.5474   -4.7952   -0.9328 C.ar    1  LIG1       -0.0333
     29 C          -4.0348   -6.0990   -0.8589 C.ar    1  LIG1        0.0631
     30 H          -2.5238   -4.6409   -1.2542 H       1  LIG1        0.0637
     31 N          -7.2384   -2.0570    0.6144 N.1     1  LIG1       -0.1908
     32 C          -6.5270   -2.8748    0.2123 C.1     1  LIG1        0.0998
     33 N          -2.2790   -7.9397   -1.3492 N.1     1  LIG1       -0.1908
     34 C          -3.1010   -7.1541   -1.1397 C.1     1  LIG1        0.0999
     35 C          -5.9407   -7.6848   -0.4274 C.ar    1  LIG1        0.1392
     36 C          -6.8920   -8.2645    0.3677 C.ar    1  LIG1       -0.0018
     37 C          -6.9949   -9.6285   -0.0731 C.ar    1  LIG1       -0.0092
     38 C          -6.1030   -9.7584   -1.0866 C.ar    1  LIG1        0.0957
     39 O          -5.4545   -8.5957   -1.3156 O.2     1  LIG1       -0.4624
     40 H          -5.8273  -10.5867   -1.7206 H       1  LIG1        0.1032
     41 C          -7.6619   -7.6652    1.5014 C.3     1  LIG1       -0.0359
     42 H          -7.8109   -8.4029    2.2940 H       1  LIG1        0.0279
     43 H          -8.6559   -7.3295    1.1860 H       1  LIG1        0.0279
     44 H          -7.1447   -6.8094    1.9395 H       1  LIG1        0.0279
     45 C          -7.8951  -10.6819    0.4869 C.3     1  LIG1       -0.0365
     46 H          -7.7528  -11.6333   -0.0295 H       1  LIG1        0.0279
     47 H          -8.9486  -10.4029    0.3892 H       1  LIG1        0.0279
     48 H          -7.7005  -10.8498    1.5508 H       1  LIG1        0.0279
@<TRIPOS>BOND
     1    21    22    3
     2    22    16    1
     3    40    38    1
     4    20    15    1
     5    16    15   ar
     6    16    17   ar
     7    33    34    3
     8    39    38   ar
     9    39    35   ar
    10    30    28    1
    11    15    14   ar
    12    34    29    1
    13    38    37   ar
    14    28    29   ar
    15    28    25   ar
    16    29    26   ar
    17    17    25    1
    18    17    18   ar
    19    25    23   ar
    20    26    35    1
    21    26    24   ar
    22    14    18   ar
    23    14     4    1
    24    35    36   ar
    25     6     5    1
    26    23    24   ar
    27    23    32    1
    28    18    19    1
    29    24    27    1
    30    37    36   ar
    31    37    45    1
    32    46    45    1
    33     4     5   ar
    34     4     3   ar
    35     5     1   ar
    36    12    10    1
    37    32    31    3
    38    36    41    1
    39    47    45    1
    40    45    48    1
    41     3    10    1
    42     3     2   ar
    43     1     7    1
    44     1     2   ar
    45    11    10    1
    46    10    13    1
    47     2     8    1
    48    43    41    1
    49    41    44    1
    50    41    42    1
    51     8     9    1
