@<TRIPOS>MOLECULE
mol_data/opt/cam/geoms/mol2/13fi13hf6ae-4el-.out
 54 57 0 0 0
SMALL
GASTEIGER

@<TRIPOS>ATOM
      1 C           0.9215    0.0485    1.6875 C.ar    1  LIG1        0.0455
      2 C           0.8539    1.0952    0.8004 C.ar    1  LIG1        0.1521
      3 C          -0.4205    1.0294    0.1413 C.ar    1  LIG1        0.1197
      4 C          -1.1084   -0.0771    0.6640 C.ar    1  LIG1        0.0845
      5 N          -0.2684   -0.6558    1.5770 N.ar    1  LIG1       -0.3554
      6 H          -0.5634   -1.3785    2.2148 H       1  LIG1        0.1655
      7 H           1.7045   -0.2459    2.3664 H       1  LIG1        0.0845
      8 O           1.8373    2.0040    0.5859 O.3     1  LIG1       -0.5040
      9 H           1.5472    2.6232   -0.0991 H       1  LIG1        0.2923
     10 N          -1.0592    2.6330   -1.7737 N.1     1  LIG1       -0.1907
     11 C          -0.8087    1.8877   -0.9117 C.1     1  LIG1        0.1050
     12 C          -2.4128   -0.6254    0.3671 C.ar    1  LIG1        0.0712
     13 C          -3.6374   -0.0027    0.1188 C.ar    1  LIG1        0.0186
     14 C          -4.5778   -1.0508   -0.0503 C.ar    1  LIG1        0.1489
     15 C          -3.9363   -2.2863    0.1055 C.ar    1  LIG1        0.0946
     16 N          -2.6171   -1.9882    0.3816 N.ar    1  LIG1       -0.3497
     17 H          -1.8989   -2.6968    0.3547 H       1  LIG1        0.1661
     18 C          -3.9512    1.4627    0.1328 C.3     1  LIG1       -0.0341
     19 H          -4.9912    1.6182    0.4341 H       1  LIG1        0.0279
     20 H          -3.8071    1.9327   -0.8465 H       1  LIG1        0.0279
     21 H          -3.3079    1.9967    0.8383 H       1  LIG1        0.0279
     22 O          -5.9239   -0.8830   -0.2534 O.3     1  LIG1       -0.4927
     23 C          -6.2787   -0.4443   -1.5721 C.3     1  LIG1        0.0789
     24 H          -7.3661   -0.3513   -1.5825 H       1  LIG1        0.0660
     25 H          -5.8284    0.5263   -1.8053 H       1  LIG1        0.0660
     26 H          -5.9646   -1.1750   -2.3269 H       1  LIG1        0.0660
     27 C          -3.6398   -4.8131    0.0023 C.ar    1  LIG1        0.2246
     28 C          -4.4542   -3.6440    0.0276 C.ar    1  LIG1        0.0646
     29 C          -5.8276   -3.8938   -0.0484 C.ar    1  LIG1       -0.0279
     30 C          -6.3281   -5.2025   -0.1335 C.ar    1  LIG1        0.0786
     31 C          -5.4216   -6.2799   -0.1258 C.ar    1  LIG1        0.0934
     32 N          -4.0990   -6.0481   -0.0776 N.ar    1  LIG1       -0.2110
     33 H          -6.5133   -3.0563   -0.0426 H       1  LIG1        0.0639
     34 O          -2.2900   -4.6437    0.0665 O.3     1  LIG1       -0.4792
     35 C          -1.4731   -5.8245    0.0287 C.3     1  LIG1        0.0804
     36 H          -0.4465   -5.4643    0.1024 H       1  LIG1        0.0660
     37 H          -1.7107   -6.4891    0.8621 H       1  LIG1        0.0660
     38 H          -1.6192   -6.3679   -0.9074 H       1  LIG1        0.0660
     39 N          -8.8863   -5.4887   -0.4589 N.1     1  LIG1       -0.1908
     40 C          -7.7393   -5.3881   -0.2933 C.1     1  LIG1        0.1013
     41 C          -6.6834   -8.3129    0.7392 C.ar    1  LIG1        0.0341
     42 C          -7.0168   -9.6730    0.5750 C.ar    1  LIG1       -0.0423
     43 C          -5.8365   -7.7072   -0.2188 C.ar    1  LIG1        0.0205
     44 C          -6.5319  -10.4177   -0.4882 C.ar    1  LIG1       -0.0190
     45 H          -7.6640  -10.1392    1.3099 H       1  LIG1        0.0631
     46 C          -5.3303   -8.4715   -1.2750 C.ar    1  LIG1       -0.0098
     47 C          -5.6776   -9.8154   -1.4196 C.ar    1  LIG1        0.1176
     48 H          -4.6628   -7.9996   -1.9914 H       1  LIG1        0.0661
     49 H          -6.7959  -11.4623   -0.6120 H       1  LIG1        0.0654
     50 C          -7.1614   -7.6137    1.8892 C.1     1  LIG1       -0.0690
     51 C          -7.5672   -7.0630    2.8876 C.1     1  LIG1       -0.1139
     52 H          -7.9415   -6.5601    3.7489 H       1  LIG1        0.1232
     53 O          -5.2183  -10.5895   -2.4435 O.3     1  LIG1       -0.5067
     54 H          -4.6583  -10.0554   -3.0224 H       1  LIG1        0.2921
@<TRIPOS>BOND
     1    54    53    1
     2    53    47    1
     3    26    23    1
     4    48    46    1
     5    25    23    1
     6    10    11    3
     7    24    23    1
     8    23    22    1
     9    47    46   ar
    10    47    44   ar
    11    46    43   ar
    12    11     3    1
    13    38    35    1
    14    20    18    1
    15    49    44    1
    16    44    42   ar
    17    39    40    3
    18    40    30    1
    19    22    14    1
    20    43    31    1
    21    43    41   ar
    22    30    31   ar
    23    30    29   ar
    24    31    32   ar
    25     9     8    1
    26    32    27   ar
    27    14    15   ar
    28    14    13   ar
    29    29    33    1
    30    29    28   ar
    31    27    28   ar
    32    27    34    1
    33    28    15    1
    34    35    34    1
    35    35    36    1
    36    35    37    1
    37    15    16   ar
    38    13    18    1
    39    13    12   ar
    40    18    19    1
    41    18    21    1
    42     3     4   ar
    43     3     2   ar
    44    17    16    1
    45    12    16   ar
    46    12     4    1
    47    42    41   ar
    48    42    45    1
    49     8     2    1
    50     4     5   ar
    51    41    50    1
    52     2     1   ar
    53     5     1   ar
    54     5     6    1
    55     1     7    1
    56    50    51    3
    57    51    52    1
