@<TRIPOS>MOLECULE
mol_data/opt/cam/geoms/mol2/13fi13fi13fi-13fi-.out
 50 53 0 0 0
SMALL
GASTEIGER

@<TRIPOS>ATOM
      1 C           1.0814    0.1078   -1.1964 C.ar    1  LIG1        0.0445
      2 C           0.8239    1.1469   -0.3427 C.ar    1  LIG1        0.1376
      3 C          -0.5098    1.0253    0.1410 C.ar    1  LIG1        0.0178
      4 C          -1.0388   -0.1084   -0.4566 C.ar    1  LIG1        0.0730
      5 N          -0.0624   -0.6581   -1.2487 N.ar    1  LIG1       -0.3561
      6 H          -0.2278   -1.4076   -1.8990 H       1  LIG1        0.1655
      7 H           1.9746   -0.1450   -1.7434 H       1  LIG1        0.0844
      8 O           1.7309    2.1090   -0.0037 O.3     1  LIG1       -0.5050
      9 H           1.3113    2.7201    0.6116 H       1  LIG1        0.2922
     10 C          -1.1545    1.9034    1.1692 C.3     1  LIG1       -0.0342
     11 H          -2.1107    1.4857    1.4895 H       1  LIG1        0.0279
     12 H          -1.3495    2.9186    0.8016 H       1  LIG1        0.0279
     13 H          -0.5266    2.0003    2.0633 H       1  LIG1        0.0279
     14 C          -2.3630   -0.6899   -0.3532 C.ar    1  LIG1        0.1060
     15 C          -3.5995   -0.0863   -0.4565 C.ar    1  LIG1        0.1470
     16 C          -4.6133   -1.0659   -0.3367 C.ar    1  LIG1        0.0185
     17 C          -3.9536   -2.2762   -0.1661 C.ar    1  LIG1        0.0735
     18 N          -2.6055   -2.0408   -0.1964 N.ar    1  LIG1       -0.3486
     19 H          -1.9231   -2.7505    0.0255 H       1  LIG1        0.1661
     20 O          -3.8563    1.2361   -0.6699 O.3     1  LIG1       -0.5043
     21 H          -3.0229    1.6633   -0.9083 H       1  LIG1        0.2922
     22 C          -6.0842   -0.7976   -0.4075 C.3     1  LIG1       -0.0342
     23 H          -6.6097   -1.1074    0.5035 H       1  LIG1        0.0279
     24 H          -6.5612   -1.2974   -1.2599 H       1  LIG1        0.0279
     25 H          -6.2562    0.2730   -0.5315 H       1  LIG1        0.0279
     26 C          -4.4441   -3.6175    0.0380 C.ar    1  LIG1        0.1060
     27 C          -3.7461   -4.7853    0.2623 C.ar    1  LIG1        0.1470
     28 C          -4.6549   -5.8616    0.4187 C.ar    1  LIG1        0.0185
     29 C          -5.9218   -5.3161    0.2757 C.ar    1  LIG1        0.0735
     30 N          -5.7775   -3.9659    0.0551 N.ar    1  LIG1       -0.3486
     31 H          -6.5276   -3.3605   -0.2332 H       1  LIG1        0.1661
     32 O          -2.3723   -4.8427    0.3050 O.3     1  LIG1       -0.5043
     33 H          -2.1060   -5.5727    0.8752 H       1  LIG1        0.2922
     34 C          -4.2866   -7.2716    0.7649 C.3     1  LIG1       -0.0342
     35 H          -3.9475   -7.3628    1.8040 H       1  LIG1        0.0279
     36 H          -3.4778   -7.6417    0.1248 H       1  LIG1        0.0279
     37 H          -5.1353   -7.9462    0.6434 H       1  LIG1        0.0279
     38 C          -7.2296   -5.9420    0.3238 C.ar    1  LIG1        0.1055
     39 C          -7.6947   -7.0747   -0.3063 C.ar    1  LIG1        0.1463
     40 C          -9.0607   -7.2707    0.0288 C.ar    1  LIG1        0.0090
     41 C          -9.3949   -6.2290    0.8601 C.ar    1  LIG1        0.0087
     42 N          -8.3070   -5.4151    1.0187 N.ar    1  LIG1       -0.3563
     43 H          -8.2256   -4.6844    1.7052 H       1  LIG1        0.1655
     44 H         -10.3353   -6.0071    1.3422 H       1  LIG1        0.0811
     45 O          -7.0040   -7.8992   -1.1464 O.3     1  LIG1       -0.5043
     46 H          -6.1891   -7.4478   -1.4037 H       1  LIG1        0.2922
     47 C          -9.9359   -8.3774   -0.4640 C.3     1  LIG1       -0.0348
     48 H          -9.5597   -9.3559   -0.1502 H       1  LIG1        0.0279
     49 H          -9.9842   -8.3908   -1.5571 H       1  LIG1        0.0279
     50 H         -10.9543   -8.2711   -0.0831 H       1  LIG1        0.0279
@<TRIPOS>BOND
     1     6     5    1
     2     7     1    1
     3    49    47    1
     4    46    45    1
     5    24    22    1
     6     5     1   ar
     7     5     4   ar
     8     1     2   ar
     9    45    39    1
    10    21    20    1
    11    20    15    1
    12    25    22    1
    13    47    48    1
    14    47    50    1
    15    47    40    1
    16     4    14    1
    17     4     3   ar
    18    15    14   ar
    19    15    16   ar
    20    22    16    1
    21    22    23    1
    22    14    18   ar
    23     2     8    1
    24     2     3   ar
    25    16    17   ar
    26    39    40   ar
    27    39    38   ar
    28    31    30    1
    29    18    17   ar
    30    18    19    1
    31    17    26    1
    32     8     9    1
    33    40    41   ar
    34    26    30   ar
    35    26    27   ar
    36    30    29   ar
    37    36    34    1
    38     3    10    1
    39    27    32    1
    40    27    28   ar
    41    29    38    1
    42    29    28   ar
    43    32    33    1
    44    38    42   ar
    45    28    34    1
    46    37    34    1
    47    34    35    1
    48    12    10    1
    49    41    42   ar
    50    41    44    1
    51    42    43    1
    52    10    11    1
    53    10    13    1
