@<TRIPOS>MOLECULE
mol_data/opt/cam/geoms/mol2/13fi13fi-.out
 26 27 0 0 0
SMALL
GASTEIGER

@<TRIPOS>ATOM
      1 C           1.1787   -0.3028   -0.4773 C.ar    1  LIG1        0.0445
      2 C           0.8292    0.9621   -0.0887 C.ar    1  LIG1        0.1376
      3 C          -0.5840    1.0195    0.0839 C.ar    1  LIG1        0.0178
      4 C          -1.0641   -0.2404   -0.2254 C.ar    1  LIG1        0.0730
      5 N           0.0130   -1.0378   -0.5351 N.ar    1  LIG1       -0.3561
      6 H          -0.0807   -1.9394   -0.9738 H       1  LIG1        0.1655
      7 H           2.1447   -0.7297   -0.6900 H       1  LIG1        0.0844
      8 O           1.7189    1.9729    0.1306 O.3     1  LIG1       -0.5050
      9 H           1.2271    2.7751    0.3365 H       1  LIG1        0.2922
     10 C          -1.3588    2.2037    0.5721 C.3     1  LIG1       -0.0342
     11 H          -2.3561    1.9061    0.9038 H       1  LIG1        0.0279
     12 H          -1.4829    2.9787   -0.1947 H       1  LIG1        0.0279
     13 H          -0.8687    2.6766    1.4317 H       1  LIG1        0.0279
     14 C          -2.4009   -0.8011   -0.2273 C.ar    1  LIG1        0.1055
     15 C          -2.8160   -2.0627    0.1450 C.ar    1  LIG1        0.1463
     16 C          -4.2177   -2.1696   -0.0464 C.ar    1  LIG1        0.0090
     17 C          -4.6223   -0.9495   -0.5344 C.ar    1  LIG1        0.0087
     18 N          -3.5362   -0.1235   -0.6266 N.ar    1  LIG1       -0.3563
     19 H          -3.5272    0.7860   -1.0546 H       1  LIG1        0.1655
     20 H          -5.6090   -0.6103   -0.8119 H       1  LIG1        0.0811
     21 O          -2.0371   -3.0787    0.6310 O.3     1  LIG1       -0.5043
     22 H          -1.2457   -2.6887    1.0251 H       1  LIG1        0.2922
     23 C          -5.0577   -3.3695    0.2504 C.3     1  LIG1       -0.0348
     24 H          -4.9405   -3.6892    1.2902 H       1  LIG1        0.0279
     25 H          -4.7792   -4.2215   -0.3776 H       1  LIG1        0.0279
     26 H          -6.1161   -3.1593    0.0793 H       1  LIG1        0.0279
@<TRIPOS>BOND
     1    19    18    1
     2     6     5    1
     3    20    17    1
     4     7     1    1
     5    18    17   ar
     6    18    14   ar
     7     5     1   ar
     8     5     4   ar
     9    17    16   ar
    10     1     2   ar
    11    25    23    1
    12    14     4    1
    13    14    15   ar
    14     4     3   ar
    15    12    10    1
    16     2     3   ar
    17     2     8    1
    18    16    15   ar
    19    16    23    1
    20    26    23    1
    21     3    10    1
    22     8     9    1
    23    15    21    1
    24    23    24    1
    25    10    11    1
    26    10    13    1
    27    21    22    1
