@<TRIPOS>MOLECULE
mol_data/opt/cam/geoms/mol2/13fi13fi-13fi13fi-.out
 50 53 0 0 0
SMALL
GASTEIGER

@<TRIPOS>ATOM
      1 C           1.3426   -0.2495   -0.1040 C.ar    1  LIG1        0.0445
      2 C           0.9684    1.0336    0.2041 C.ar    1  LIG1        0.1376
      3 C          -0.4501    1.0942    0.2831 C.ar    1  LIG1        0.0178
      4 C          -0.9024   -0.1878    0.0032 C.ar    1  LIG1        0.0730
      5 N           0.1892   -0.9827   -0.2178 N.ar    1  LIG1       -0.3561
      6 H           0.1034   -1.9653   -0.4286 H       1  LIG1        0.1655
      7 H           2.3212   -0.6793   -0.2402 H       1  LIG1        0.0844
      8 O           1.8464    2.0577    0.4464 O.3     1  LIG1       -0.5050
      9 H           1.4388    2.8815    0.1580 H       1  LIG1        0.2922
     10 C          -1.2533    2.3076    0.6366 C.3     1  LIG1       -0.0342
     11 H          -2.0397    2.0804    1.3632 H       1  LIG1        0.0279
     12 H          -1.7320    2.7802   -0.2305 H       1  LIG1        0.0279
     13 H          -0.6144    3.0644    1.1027 H       1  LIG1        0.0279
     14 C          -2.2295   -0.7545   -0.0704 C.ar    1  LIG1        0.1060
     15 C          -2.6158   -2.0755   -0.1943 C.ar    1  LIG1        0.1470
     16 C          -4.0282   -2.1575   -0.2441 C.ar    1  LIG1        0.0185
     17 C          -4.4836   -0.8514   -0.1387 C.ar    1  LIG1        0.0735
     18 N          -3.3910   -0.0257   -0.0402 N.ar    1  LIG1       -0.3486
     19 H          -3.4789    0.9783    0.0042 H       1  LIG1        0.1661
     20 O          -1.7280   -3.1302   -0.3175 O.3     1  LIG1       -0.5043
     21 H          -1.8464   -3.7226    0.4348 H       1  LIG1        0.2922
     22 C          -4.8195   -3.4172   -0.4051 C.3     1  LIG1       -0.0342
     23 H          -4.1573   -4.2333   -0.7052 H       1  LIG1        0.0279
     24 H          -5.5861   -3.3240   -1.1809 H       1  LIG1        0.0279
     25 H          -5.3218   -3.7277    0.5195 H       1  LIG1        0.0279
     26 C          -5.8104   -0.2850   -0.1353 C.ar    1  LIG1        0.1060
     27 C          -6.2021    1.0392   -0.1847 C.ar    1  LIG1        0.1470
     28 C          -7.6152    1.1193   -0.1457 C.ar    1  LIG1        0.0185
     29 C          -8.0648   -0.1915   -0.0811 C.ar    1  LIG1        0.0735
     30 N          -6.9689   -1.0173   -0.0724 N.ar    1  LIG1       -0.3486
     31 H          -7.0463   -2.0192    0.0175 H       1  LIG1        0.1661
     32 O          -5.3202    2.1058   -0.2100 O.3     1  LIG1       -0.5043
     33 H          -5.4227    2.5707   -1.0495 H       1  LIG1        0.2922
     34 C          -8.4108    2.3867   -0.1509 C.3     1  LIG1       -0.0342
     35 H          -9.1070    2.4399    0.6938 H       1  LIG1        0.0279
     36 H          -8.9877    2.5263   -1.0738 H       1  LIG1        0.0279
     37 H          -7.7401    3.2442   -0.0564 H       1  LIG1        0.0279
     38 C          -9.3892   -0.7621   -0.0145 C.ar    1  LIG1        0.1055
     39 C          -9.7710   -2.0817    0.1104 C.ar    1  LIG1        0.1463
     40 C         -11.1870   -2.1646    0.1360 C.ar    1  LIG1        0.0090
     41 C         -11.6373   -0.8700    0.0253 C.ar    1  LIG1        0.0087
     42 N         -10.5587   -0.0351   -0.0693 N.ar    1  LIG1       -0.3563
     43 H         -10.6027    0.9620   -0.1847 H       1  LIG1        0.1655
     44 H         -12.6466   -0.4882    0.0032 H       1  LIG1        0.0811
     45 O          -8.8707   -3.1232    0.1540 O.3     1  LIG1       -0.5043
     46 H          -9.2513   -3.8459    0.6654 H       1  LIG1        0.2922
     47 C         -11.9989   -3.4151    0.2564 C.3     1  LIG1       -0.0348
     48 H         -11.8246   -3.9336    1.2073 H       1  LIG1        0.0279
     49 H         -11.7729   -4.1234   -0.5478 H       1  LIG1        0.0279
     50 H         -13.0669   -3.1929    0.2073 H       1  LIG1        0.0279
@<TRIPOS>BOND
     1    24    22    1
     2    36    34    1
     3    33    32    1
     4    23    22    1
     5    49    47    1
     6     6     5    1
     7    22    16    1
     8    22    25    1
     9    20    15    1
    10    20    21    1
    11    16    15   ar
    12    16    17   ar
    13     7     1    1
    14    12    10    1
    15     5     1   ar
    16     5     4   ar
    17    32    27    1
    18    15    14   ar
    19    27    28   ar
    20    27    26   ar
    21    43    42    1
    22    34    28    1
    23    34    37    1
    24    34    35    1
    25    28    29   ar
    26    17    26    1
    27    17    18   ar
    28    26    30   ar
    29     1     2   ar
    30    29    30   ar
    31    29    38    1
    32    30    31    1
    33    14    18   ar
    34    14     4    1
    35    42    38   ar
    36    42    41   ar
    37    18    19    1
    38    38    39   ar
    39    44    41    1
    40     4     3   ar
    41    41    40   ar
    42    39    40   ar
    43    39    45    1
    44    40    47    1
    45    45    46    1
    46     9     8    1
    47     2     3   ar
    48     2     8    1
    49    50    47    1
    50    47    48    1
    51     3    10    1
    52    10    13    1
    53    10    11    1
