@<TRIPOS>MOLECULE
mol_data/opt/cam/geoms/mol2/13fi13fi13fi-13fi.out
 50 53 0 0 0
SMALL
GASTEIGER

@<TRIPOS>ATOM
      1 C           1.0557   -0.0620   -1.1722 C.ar    1  LIG1        0.0445
      2 C           0.8732    1.0240   -0.3589 C.ar    1  LIG1        0.1376
      3 C          -0.4538    0.9999    0.1570 C.ar    1  LIG1        0.0178
      4 C          -1.0569   -0.1210   -0.3815 C.ar    1  LIG1        0.0730
      5 N          -0.1272   -0.7704   -1.1596 N.ar    1  LIG1       -0.3561
      6 H          -0.3602   -1.5043   -1.8070 H       1  LIG1        0.1655
      7 H           1.9196   -0.3861   -1.7285 H       1  LIG1        0.0844
      8 O           1.8418    1.9428   -0.0688 O.3     1  LIG1       -0.5050
      9 H           1.4341    2.6609    0.4274 H       1  LIG1        0.2922
     10 C          -1.0316    1.9772    1.1304 C.3     1  LIG1       -0.0342
     11 H          -1.8933    1.5493    1.6445 H       1  LIG1        0.0279
     12 H          -1.3805    2.8957    0.6463 H       1  LIG1        0.0279
     13 H          -0.2955    2.2580    1.8939 H       1  LIG1        0.0279
     14 C          -2.3911   -0.6616   -0.2176 C.ar    1  LIG1        0.1060
     15 C          -3.6298   -0.0584   -0.1374 C.ar    1  LIG1        0.1470
     16 C          -4.6333   -1.0563   -0.0243 C.ar    1  LIG1        0.0185
     17 C          -3.9683   -2.2728   -0.0546 C.ar    1  LIG1        0.0735
     18 N          -2.6270   -2.0187   -0.1735 N.ar    1  LIG1       -0.3486
     19 H          -1.9330   -2.7474   -0.0896 H       1  LIG1        0.1661
     20 O          -3.8349    1.2990   -0.1367 O.3     1  LIG1       -0.5043
     21 H          -4.5348    1.5040   -0.7670 H       1  LIG1        0.2922
     22 C          -6.1008   -0.7962    0.1146 C.3     1  LIG1       -0.0342
     23 H          -6.5535   -1.4114    0.8985 H       1  LIG1        0.0279
     24 H          -6.6605   -0.9782   -0.8115 H       1  LIG1        0.0279
     25 H          -6.2687    0.2473    0.3955 H       1  LIG1        0.0279
     26 C          -4.4311   -3.6363    0.0445 C.ar    1  LIG1        0.1060
     27 C          -3.7041   -4.8006    0.2015 C.ar    1  LIG1        0.1470
     28 C          -4.5836   -5.9096    0.2392 C.ar    1  LIG1        0.0185
     29 C          -5.8602   -5.3819    0.1097 C.ar    1  LIG1        0.0735
     30 N          -5.7476   -4.0195   -0.0087 N.ar    1  LIG1       -0.3486
     31 H          -6.5448   -3.4220   -0.1680 H       1  LIG1        0.1661
     32 O          -2.3219   -4.8465    0.2546 O.3     1  LIG1       -0.5043
     33 H          -2.0564   -5.1835    1.1192 H       1  LIG1        0.2922
     34 C          -4.1669   -7.3409    0.3698 C.3     1  LIG1       -0.0342
     35 H          -3.0795   -7.4179    0.2927 H       1  LIG1        0.0279
     36 H          -4.5816   -7.9656   -0.4294 H       1  LIG1        0.0279
     37 H          -4.4559   -7.7852    1.3305 H       1  LIG1        0.0279
     38 C          -7.1659   -5.9965    0.0690 C.ar    1  LIG1        0.1055
     39 C          -8.4017   -5.4182   -0.1329 C.ar    1  LIG1        0.1463
     40 C          -9.4055   -6.4199   -0.0927 C.ar    1  LIG1        0.0090
     41 C          -8.7417   -7.6024    0.1357 C.ar    1  LIG1        0.0087
     42 N          -7.4029   -7.3439    0.2361 N.ar    1  LIG1       -0.3563
     43 H          -6.6915   -8.0263    0.4302 H       1  LIG1        0.1655
     44 H          -9.1293   -8.6046    0.2374 H       1  LIG1        0.0811
     45 O          -8.5783   -4.0626   -0.2984 O.3     1  LIG1       -0.5043
     46 H          -9.3632   -3.9113   -0.8366 H       1  LIG1        0.2922
     47 C         -10.8762   -6.2073   -0.2636 C.3     1  LIG1       -0.0348
     48 H         -11.4225   -7.1450   -0.1423 H       1  LIG1        0.0279
     49 H         -11.1270   -5.8187   -1.2583 H       1  LIG1        0.0279
     50 H         -11.2711   -5.4992    0.4727 H       1  LIG1        0.0279
@<TRIPOS>BOND
     1     6     5    1
     2     7     1    1
     3    49    47    1
     4     1     5   ar
     5     1     2   ar
     6     5     4   ar
     7    46    45    1
     8    24    22    1
     9    21    20    1
    10    36    34    1
    11     4    14    1
    12     4     3   ar
    13     2     8    1
    14     2     3   ar
    15    45    39    1
    16    47    48    1
    17    47    40    1
    18    47    50    1
    19    14    18   ar
    20    14    15   ar
    21    18    19    1
    22    18    17   ar
    23    31    30    1
    24    15    20    1
    25    15    16   ar
    26    39    40   ar
    27    39    38   ar
    28    40    41   ar
    29     8     9    1
    30    17    16   ar
    31    17    26    1
    32    16    22    1
    33    30    26   ar
    34    30    29   ar
    35    26    27   ar
    36    38    29    1
    37    38    42   ar
    38    29    28   ar
    39    22    25    1
    40    22    23    1
    41    41    42   ar
    42    41    44    1
    43     3    10    1
    44    27    28   ar
    45    27    32    1
    46    42    43    1
    47    28    34    1
    48    32    33    1
    49    35    34    1
    50    34    37    1
    51    12    10    1
    52    10    11    1
    53    10    13    1
