@<TRIPOS>MOLECULE
mol_data/opt/cam/geoms/mol2/13fi6el13ef4al-.out
 54 57 0 0 0
SMALL
GASTEIGER

@<TRIPOS>ATOM
      1 C           1.3441   -0.3431   -0.6208 C.ar    1  LIG1        0.0444
      2 C           1.0095    0.8859   -0.1083 C.ar    1  LIG1        0.1375
      3 C          -0.3828    0.9055    0.1561 C.ar    1  LIG1        0.0163
      4 C          -0.8694   -0.3455   -0.2190 C.ar    1  LIG1        0.0558
      5 N           0.1942   -1.0779   -0.6777 N.ar    1  LIG1       -0.3573
      6 H           0.1313   -2.0452   -0.9503 H       1  LIG1        0.1655
      7 H           2.2983   -0.7341   -0.9337 H       1  LIG1        0.0844
      8 O           1.9094    1.8829    0.1423 O.3     1  LIG1       -0.5050
      9 H           1.4427    2.7254    0.1516 H       1  LIG1        0.2922
     10 C          -1.1013    2.0546    0.7940 C.3     1  LIG1       -0.0342
     11 H          -1.9318    1.7164    1.4176 H       1  LIG1        0.0279
     12 H          -1.5058    2.7709    0.0677 H       1  LIG1        0.0279
     13 H          -0.4195    2.6088    1.4479 H       1  LIG1        0.0279
     14 C          -2.5687   -2.2279   -0.0404 C.ar    1  LIG1        0.1232
     15 C          -2.2339   -0.8674   -0.1889 C.ar    1  LIG1        0.0360
     16 C          -3.3117    0.0166   -0.3391 C.ar    1  LIG1       -0.0060
     17 C          -4.6186   -0.4344   -0.2933 C.ar    1  LIG1        0.1481
     18 C          -4.8565   -1.8084   -0.0721 C.ar    1  LIG1        0.1313
     19 N          -3.8355   -2.6548    0.0138 N.ar    1  LIG1       -0.2326
     20 H          -3.1093    1.0589   -0.5386 H       1  LIG1        0.0662
     21 C          -1.5839   -3.2698    0.0785 C.1     1  LIG1       -0.0491
     22 C          -0.7838   -4.1665    0.1637 C.1     1  LIG1       -0.1124
     23 H          -0.0873   -4.9665    0.2701 H       1  LIG1        0.1232
     24 O          -5.6997    0.3354   -0.4896 O.3     1  LIG1       -0.4929
     25 C          -5.5467    1.7322   -0.6192 C.3     1  LIG1        0.0789
     26 H          -6.5579    2.1330   -0.6714 H       1  LIG1        0.0660
     27 H          -5.0301    2.1596    0.2476 H       1  LIG1        0.0660
     28 H          -5.0002    1.9925   -1.5328 H       1  LIG1        0.0660
     29 C          -6.1827   -2.4246    0.0134 C.ar    1  LIG1        0.0883
     30 C          -7.4974   -1.9930    0.2442 C.ar    1  LIG1        0.0935
     31 C          -8.3067   -3.1609    0.2012 C.ar    1  LIG1        0.1581
     32 C          -7.5030   -4.2593   -0.0416 C.ar    1  LIG1        0.0903
     33 N          -6.2226   -3.7766   -0.1317 N.ar    1  LIG1       -0.3489
     34 H          -5.3778   -4.3036   -0.2981 H       1  LIG1        0.1661
     35 C          -8.0313   -0.7203    0.5816 C.1     1  LIG1       -0.0638
     36 C          -8.5760    0.3054    0.9023 C.1     1  LIG1       -0.1137
     37 H          -9.0602    1.2066    1.1978 H       1  LIG1        0.1232
     38 O          -9.6492   -3.1358    0.4061 O.3     1  LIG1       -0.5035
     39 H          -9.9364   -4.0199    0.6664 H       1  LIG1        0.2923
     40 C          -9.1007   -6.0641   -0.6439 C.ar    1  LIG1       -0.0523
     41 C          -9.4208   -7.4084   -0.7303 C.ar    1  LIG1       -0.0577
     42 C          -7.8432   -5.6740   -0.1520 C.ar    1  LIG1        0.0054
     43 C          -8.5147   -8.3952   -0.3517 C.ar    1  LIG1       -0.0199
     44 H         -10.3912   -7.7036   -1.1166 H       1  LIG1        0.0619
     45 C          -6.9356   -6.6597    0.2307 C.ar    1  LIG1       -0.0107
     46 C          -7.2618   -8.0109    0.1238 C.ar    1  LIG1        0.1207
     47 H          -5.9664   -6.4041    0.6450 H       1  LIG1        0.0661
     48 H          -8.7883   -9.4388   -0.4343 H       1  LIG1        0.0654
     49 H          -9.7971   -5.3143   -1.0026 H       1  LIG1        0.0624
     50 O          -6.2942   -8.8772    0.5224 O.3     1  LIG1       -0.4951
     51 C          -6.5676  -10.2602    0.4554 C.3     1  LIG1        0.0788
     52 H          -5.6725  -10.7645    0.8188 H       1  LIG1        0.0660
     53 H          -7.4178  -10.5354    1.0903 H       1  LIG1        0.0660
     54 H          -6.7695  -10.5831   -0.5725 H       1  LIG1        0.0660
@<TRIPOS>BOND
     1    28    25    1
     2    44    41    1
     3    49    40    1
     4     6     5    1
     5     7     1    1
     6    41    40   ar
     7    41    43   ar
     8     5     1   ar
     9     5     4   ar
    10    26    25    1
    11    40    42   ar
    12     1     2   ar
    13    25    24    1
    14    25    27    1
    15    54    51    1
    16    20    16    1
    17    24    17    1
    18    48    43    1
    19    43    46   ar
    20    16    17   ar
    21    16    15   ar
    22    34    33    1
    23    17    18   ar
    24     4    15    1
    25     4     3   ar
    26    15    14   ar
    27    42    32    1
    28    42    45   ar
    29    33    32   ar
    30    33    29   ar
    31     2     8    1
    32     2     3   ar
    33    18    29    1
    34    18    19   ar
    35    32    31   ar
    36    14    19   ar
    37    14    21    1
    38    29    30   ar
    39    12    10    1
    40    21    22    3
    41    46    45   ar
    42    46    50    1
    43     8     9    1
    44     3    10    1
    45    22    23    1
    46    31    30   ar
    47    31    38    1
    48    45    47    1
    49    30    35    1
    50    38    39    1
    51    51    50    1
    52    51    52    1
    53    51    53    1
    54    35    36    3
    55    10    11    1
    56    10    13    1
    57    36    37    1
