@<TRIPOS>MOLECULE
mol_data/opt/cam/geoms/mol2/13fi13fi.out
 26 27 0 0 0
SMALL
GASTEIGER

@<TRIPOS>ATOM
      1 C           1.1845   -0.3352   -0.5435 C.ar    1  LIG1        0.0445
      2 C           0.8398    0.9409   -0.1889 C.ar    1  LIG1        0.1376
      3 C          -0.5523    0.9782    0.1109 C.ar    1  LIG1        0.0178
      4 C          -1.0247   -0.3037   -0.0879 C.ar    1  LIG1        0.0730
      5 N           0.0383   -1.0978   -0.4521 N.ar    1  LIG1       -0.3561
      6 H          -0.0698   -2.0105   -0.8614 H       1  LIG1        0.1655
      7 H           2.1373   -0.7524   -0.8247 H       1  LIG1        0.0844
      8 O           1.7205    1.9804   -0.0962 O.3     1  LIG1       -0.5050
      9 H           1.2167    2.7917    0.0304 H       1  LIG1        0.2922
     10 C          -1.3197    2.1699    0.5872 C.3     1  LIG1       -0.0342
     11 H          -2.2299    1.8611    1.1041 H       1  LIG1        0.0279
     12 H          -1.6307    2.8231   -0.2352 H       1  LIG1        0.0279
     13 H          -0.7280    2.7696    1.2894 H       1  LIG1        0.0279
     14 C          -2.3554   -0.8593    0.0632 C.ar    1  LIG1        0.1055
     15 C          -3.5962   -0.3880   -0.3028 C.ar    1  LIG1        0.1463
     16 C          -4.5836   -1.3500    0.0525 C.ar    1  LIG1        0.0090
     17 C          -3.9051   -2.3965    0.6293 C.ar    1  LIG1        0.0087
     18 N          -2.5698   -2.1104    0.6194 N.ar    1  LIG1       -0.3563
     19 H          -1.8647   -2.6147    1.1301 H       1  LIG1        0.1655
     20 H          -4.2816   -3.3203    1.0423 H       1  LIG1        0.0811
     21 O          -3.8044    0.8083   -0.9288 O.3     1  LIG1       -0.5043
     22 H          -4.7331    0.8654   -1.1783 H       1  LIG1        0.2922
     23 C          -6.0555   -1.2311   -0.1887 C.3     1  LIG1       -0.0348
     24 H          -6.5846   -2.1074    0.1918 H       1  LIG1        0.0279
     25 H          -6.2958   -1.1511   -1.2559 H       1  LIG1        0.0279
     26 H          -6.4831   -0.3538    0.3104 H       1  LIG1        0.0279
@<TRIPOS>BOND
     1    25    23    1
     2    22    21    1
     3    21    15    1
     4     6     5    1
     5     7     1    1
     6     1     5   ar
     7     1     2   ar
     8     5     4   ar
     9    15    16   ar
    10    15    14   ar
    11    12    10    1
    12     2     8    1
    13     2     3   ar
    14    23    16    1
    15    23    24    1
    16    23    26    1
    17     8     9    1
    18     4    14    1
    19     4     3   ar
    20    16    17   ar
    21    14    18   ar
    22     3    10    1
    23    10    11    1
    24    10    13    1
    25    18    17   ar
    26    18    19    1
    27    17    20    1
