@<TRIPOS>MOLECULE
mol_data/opt/cam/geoms/mol2/13fi13fi13fi13fi-.out
 50 53 0 0 0
SMALL
GASTEIGER

@<TRIPOS>ATOM
      1 C           0.4863    0.4615   -2.1517 C.ar    1  LIG1        0.0445
      2 C           0.5880    1.2520   -1.0391 C.ar    1  LIG1        0.1376
      3 C          -0.5079    0.9748   -0.1726 C.ar    1  LIG1        0.0178
      4 C          -1.2674    0.0110   -0.8058 C.ar    1  LIG1        0.0730
      5 N          -0.6409   -0.3166   -1.9869 N.ar    1  LIG1       -0.3561
      6 H          -1.0924   -0.8209   -2.7313 H       1  LIG1        0.1655
      7 H           1.1256    0.3795   -3.0152 H       1  LIG1        0.0844
      8 O           1.6155    2.1193   -0.8008 O.3     1  LIG1       -0.5050
      9 H           1.3827    2.6599   -0.0381 H       1  LIG1        0.2922
     10 C          -0.7431    1.5837    1.1727 C.3     1  LIG1       -0.0342
     11 H          -1.3754    0.9372    1.7836 H       1  LIG1        0.0279
     12 H          -1.2501    2.5525    1.1102 H       1  LIG1        0.0279
     13 H           0.2000    1.7298    1.7131 H       1  LIG1        0.0279
     14 C          -2.4905   -0.6513   -0.3982 C.ar    1  LIG1        0.1060
     15 C          -3.6481   -0.1733    0.1763 C.ar    1  LIG1        0.1470
     16 C          -4.5635   -1.2454    0.3501 C.ar    1  LIG1        0.0185
     17 C          -3.9385   -2.3796   -0.1483 C.ar    1  LIG1        0.0735
     18 N          -2.6978   -2.0055   -0.5974 N.ar    1  LIG1       -0.3486
     19 H          -2.0116   -2.6370   -0.9763 H       1  LIG1        0.1661
     20 O          -3.8460    1.1343    0.5167 O.3     1  LIG1       -0.5043
     21 H          -4.7514    1.2341    0.8308 H       1  LIG1        0.2922
     22 C          -5.9045   -1.1569    1.0112 C.3     1  LIG1       -0.0342
     23 H          -6.3137   -2.1530    1.1893 H       1  LIG1        0.0279
     24 H          -6.6415   -0.6047    0.4142 H       1  LIG1        0.0279
     25 H          -5.8364   -0.6540    1.9831 H       1  LIG1        0.0279
     26 C          -4.4090   -3.7475   -0.2347 C.ar    1  LIG1        0.1060
     27 C          -5.6070   -4.2402   -0.7102 C.ar    1  LIG1        0.1470
     28 C          -5.5915   -5.6540   -0.6530 C.ar    1  LIG1        0.0185
     29 C          -4.3493   -5.9995   -0.1376 C.ar    1  LIG1        0.0735
     30 N          -3.6420   -4.8508    0.0908 N.ar    1  LIG1       -0.3486
     31 H          -2.7584   -4.8466    0.5790 H       1  LIG1        0.1661
     32 O          -6.6581   -3.5225   -1.2012 O.3     1  LIG1       -0.5043
     33 H          -6.3609   -2.6118   -1.3265 H       1  LIG1        0.2922
     34 C          -6.7088   -6.5467   -1.0944 C.3     1  LIG1       -0.0342
     35 H          -7.1143   -7.1492   -0.2724 H       1  LIG1        0.0279
     36 H          -6.4058   -7.2289   -1.8981 H       1  LIG1        0.0279
     37 H          -7.5300   -5.9417   -1.4829 H       1  LIG1        0.0279
     38 C          -3.7589   -7.2780    0.1818 C.ar    1  LIG1        0.1055
     39 C          -2.5298   -7.5626    0.7391 C.ar    1  LIG1        0.1463
     40 C          -2.3875   -8.9669    0.8787 C.ar    1  LIG1        0.0090
     41 C          -3.5564   -9.5083    0.3957 C.ar    1  LIG1        0.0087
     42 N          -4.3707   -8.4953   -0.0250 N.ar    1  LIG1       -0.3563
     43 H          -5.2850   -8.6091   -0.4264 H       1  LIG1        0.1655
     44 H          -3.8596  -10.5414    0.3196 H       1  LIG1        0.0811
     45 O          -1.6082   -6.5910    1.0587 O.3     1  LIG1       -0.5043
     46 H          -1.0347   -6.9218    1.7590 H       1  LIG1        0.2922
     47 C          -1.2007   -9.6868    1.4365 C.3     1  LIG1       -0.0348
     48 H          -1.0148   -9.4298    2.4866 H       1  LIG1        0.0279
     49 H          -0.2871   -9.4582    0.8772 H       1  LIG1        0.0279
     50 H          -1.3469  -10.7682    1.3960 H       1  LIG1        0.0279
@<TRIPOS>BOND
     1     7     1    1
     2     6     5    1
     3     1     5   ar
     4     1     2   ar
     5     5     4   ar
     6    36    34    1
     7    37    34    1
     8    33    32    1
     9    32    27    1
    10    34    28    1
    11    34    35    1
    12     2     8    1
    13     2     3   ar
    14    19    18    1
    15     4    14    1
    16     4     3   ar
    17     8     9    1
    18    27    28   ar
    19    27    26   ar
    20    28    29   ar
    21    18    14   ar
    22    18    17   ar
    23    43    42    1
    24    14    15   ar
    25    26    17    1
    26    26    30   ar
    27     3    10    1
    28    17    16   ar
    29    29    30   ar
    30    29    38    1
    31    42    38   ar
    32    42    41   ar
    33    30    31    1
    34    15    16   ar
    35    15    20    1
    36    38    39   ar
    37    44    41    1
    38    16    22    1
    39    41    40   ar
    40    24    22    1
    41    20    21    1
    42    39    40   ar
    43    39    45    1
    44    49    47    1
    45    40    47    1
    46    22    23    1
    47    22    25    1
    48    45    46    1
    49    12    10    1
    50    10    13    1
    51    10    11    1
    52    50    47    1
    53    47    48    1
