@<TRIPOS>MOLECULE
mol_data/opt/cam/geoms/mol2/13fi13fi-13fi-13fi-.out
 50 53 0 0 0
SMALL
GASTEIGER

@<TRIPOS>ATOM
      1 C           1.2218   -0.6193   -1.2173 C.ar    1  LIG1        0.0445
      2 C           1.0504    0.6974   -0.8873 C.ar    1  LIG1        0.1376
      3 C          -0.2750    0.8836   -0.3974 C.ar    1  LIG1        0.0178
      4 C          -0.8875   -0.3551   -0.4567 C.ar    1  LIG1        0.0730
      5 N           0.0367   -1.2623   -0.9239 N.ar    1  LIG1       -0.3561
      6 H          -0.2160   -2.1780   -1.2588 H       1  LIG1        0.1655
      7 H           2.0815   -1.1386   -1.6072 H       1  LIG1        0.0844
      8 O           2.0249    1.6466   -0.9807 O.3     1  LIG1       -0.5050
      9 H           1.6402    2.5051   -0.7739 H       1  LIG1        0.2922
     10 C          -0.8365    2.1645    0.1361 C.3     1  LIG1       -0.0342
     11 H          -1.7528    1.9813    0.7014 H       1  LIG1        0.0279
     12 H          -1.0760    2.8861   -0.6548 H       1  LIG1        0.0279
     13 H          -0.1334    2.6552    0.8196 H       1  LIG1        0.0279
     14 C          -2.2148   -0.8041   -0.0905 C.ar    1  LIG1        0.1060
     15 C          -2.6031   -1.9992    0.4736 C.ar    1  LIG1        0.1470
     16 C          -4.0116   -2.0029    0.6470 C.ar    1  LIG1        0.0185
     17 C          -4.4611   -0.7850    0.1661 C.ar    1  LIG1        0.0735
     18 N          -3.3671   -0.0540   -0.2465 N.ar    1  LIG1       -0.3486
     19 H          -3.4309    0.7332   -0.8715 H       1  LIG1        0.1661
     20 O          -1.7965   -3.0313    0.8636 O.3     1  LIG1       -0.5043
     21 H          -0.9044   -2.6840    0.9972 H       1  LIG1        0.2922
     22 C          -4.8047   -3.0801    1.3161 C.3     1  LIG1       -0.0342
     23 H          -4.3062   -3.4086    2.2322 H       1  LIG1        0.0279
     24 H          -4.9142   -3.9704    0.6868 H       1  LIG1        0.0279
     25 H          -5.8048   -2.7260    1.5743 H       1  LIG1        0.0279
     26 C          -5.8085   -0.2617    0.0621 C.ar    1  LIG1        0.1060
     27 C          -6.9512   -0.8580   -0.4279 C.ar    1  LIG1        0.1470
     28 C          -8.0311    0.0566   -0.3447 C.ar    1  LIG1        0.0185
     29 C          -7.5092    1.2246    0.1902 C.ar    1  LIG1        0.0735
     30 N          -6.1711    1.0235    0.4266 N.ar    1  LIG1       -0.3486
     31 H          -5.5468    1.7140    0.8081 H       1  LIG1        0.1661
     32 O          -7.0829   -2.1181   -0.9258 O.3     1  LIG1       -0.5043
     33 H          -6.2042   -2.5166   -0.9749 H       1  LIG1        0.2922
     34 C          -9.4507   -0.2312   -0.7187 C.3     1  LIG1       -0.0342
     35 H          -9.7973   -1.1533   -0.2436 H       1  LIG1        0.0279
     36 H          -9.5722   -0.3736   -1.7982 H       1  LIG1        0.0279
     37 H         -10.1101    0.5817   -0.4076 H       1  LIG1        0.0279
     38 C          -8.1531    2.4931    0.4766 C.ar    1  LIG1        0.1055
     39 C          -8.9546    3.2753   -0.3243 C.ar    1  LIG1        0.1463
     40 C          -9.3142    4.4546    0.3829 C.ar    1  LIG1        0.0090
     41 C          -8.7074    4.3545    1.6108 C.ar    1  LIG1        0.0087
     42 N          -7.9837    3.1939    1.6623 N.ar    1  LIG1       -0.3563
     43 H          -7.6282    2.7778    2.5067 H       1  LIG1        0.1655
     44 H          -8.7364    5.0336    2.4499 H       1  LIG1        0.0811
     45 O          -9.3408    3.0313   -1.6070 O.3     1  LIG1       -0.5043
     46 H          -8.9017    2.2237   -1.9045 H       1  LIG1        0.2922
     47 C         -10.1588    5.5693   -0.1436 C.3     1  LIG1       -0.0348
     48 H         -11.1547    5.2154   -0.4265 H       1  LIG1        0.0279
     49 H          -9.7158    6.0198   -1.0373 H       1  LIG1        0.0279
     50 H         -10.2809    6.3562    0.6044 H       1  LIG1        0.0279
@<TRIPOS>BOND
     1    46    45    1
     2    36    34    1
     3     7     1    1
     4    45    39    1
     5     6     5    1
     6     1     5   ar
     7     1     2   ar
     8    49    47    1
     9     8     2    1
    10     8     9    1
    11    33    32    1
    12    32    27    1
    13     5     4   ar
    14     2     3   ar
    15    19    18    1
    16    34    37    1
    17    34    28    1
    18    34    35    1
    19    12    10    1
    20     4     3   ar
    21     4    14    1
    22    27    28   ar
    23    27    26   ar
    24    48    47    1
    25     3    10    1
    26    28    29   ar
    27    39    40   ar
    28    39    38   ar
    29    18    14   ar
    30    18    17   ar
    31    47    40    1
    32    47    50    1
    33    14    15   ar
    34    26    17    1
    35    26    30   ar
    36    10    11    1
    37    10    13    1
    38    17    16   ar
    39    29    30   ar
    40    29    38    1
    41    40    41   ar
    42    30    31    1
    43    15    16   ar
    44    15    20    1
    45    38    42   ar
    46    16    22    1
    47    24    22    1
    48    20    21    1
    49    22    25    1
    50    22    23    1
    51    41    42   ar
    52    41    44    1
    53    42    43    1
