@<TRIPOS>MOLECULE
mol_data/opt/cam/geoms/mol2/13fi13fi13fi.out
 38 40 0 0 0
SMALL
GASTEIGER

@<TRIPOS>ATOM
      1 C           1.0836   -0.1482   -1.1611 C.ar    1  LIG1        0.0445
      2 C           0.8748    0.9661   -0.3952 C.ar    1  LIG1        0.1376
      3 C          -0.4607    0.9437    0.1011 C.ar    1  LIG1        0.0178
      4 C          -1.0405   -0.2042   -0.4002 C.ar    1  LIG1        0.0730
      5 N          -0.0888   -0.8768   -1.1342 N.ar    1  LIG1       -0.3561
      6 H          -0.3162   -1.5998   -1.7963 H       1  LIG1        0.1655
      7 H           1.9610   -0.4821   -1.6899 H       1  LIG1        0.0844
      8 O           1.8277    1.9057   -0.1224 O.3     1  LIG1       -0.5050
      9 H           1.3985    2.6520    0.3101 H       1  LIG1        0.2922
     10 C          -1.0748    1.9511    1.0195 C.3     1  LIG1       -0.0342
     11 H          -1.9443    1.5304    1.5271 H       1  LIG1        0.0279
     12 H          -1.4229    2.8433    0.4876 H       1  LIG1        0.0279
     13 H          -0.3638    2.2738    1.7898 H       1  LIG1        0.0279
     14 C          -2.3742   -0.7459   -0.2308 C.ar    1  LIG1        0.1060
     15 C          -3.6200   -0.1578   -0.2715 C.ar    1  LIG1        0.1470
     16 C          -4.6165   -1.1504   -0.0786 C.ar    1  LIG1        0.0185
     17 C          -3.9467   -2.3526    0.0608 C.ar    1  LIG1        0.0735
     18 N          -2.6009   -2.0958   -0.0248 N.ar    1  LIG1       -0.3486
     19 H          -1.8754   -2.7906    0.0313 H       1  LIG1        0.1661
     20 O          -3.8237    1.1811   -0.4507 O.3     1  LIG1       -0.5043
     21 H          -4.7539    1.3201   -0.6602 H       1  LIG1        0.2922
     22 C          -6.0932   -0.9222   -0.0251 C.3     1  LIG1       -0.0342
     23 H          -6.5849   -1.7150    0.5416 H       1  LIG1        0.0279
     24 H          -6.5522   -0.9151   -1.0194 H       1  LIG1        0.0279
     25 H          -6.3288    0.0299    0.4647 H       1  LIG1        0.0279
     26 C          -4.4487   -3.6916    0.2973 C.ar    1  LIG1        0.1055
     27 C          -5.4918   -4.3905   -0.2677 C.ar    1  LIG1        0.1463
     28 C          -5.5401   -5.6956    0.2990 C.ar    1  LIG1        0.0090
     29 C          -4.5079   -5.7554    1.2038 C.ar    1  LIG1        0.0087
     30 N          -3.8413   -4.5634    1.1886 N.ar    1  LIG1       -0.3563
     31 H          -3.1725   -4.2697    1.8808 H       1  LIG1        0.1655
     32 H          -4.2042   -6.5631    1.8527 H       1  LIG1        0.0811
     33 O          -6.3084   -3.8876   -1.2397 O.3     1  LIG1       -0.5043
     34 H          -6.9114   -4.5833   -1.5234 H       1  LIG1        0.2922
     35 C          -6.5132   -6.7745   -0.0580 C.3     1  LIG1       -0.0348
     36 H          -6.3258   -7.6774    0.5270 H       1  LIG1        0.0279
     37 H          -6.4464   -7.0588   -1.1153 H       1  LIG1        0.0279
     38 H          -7.5493   -6.4737    0.1362 H       1  LIG1        0.0279
@<TRIPOS>BOND
     1     6     5    1
     2     7     1    1
     3    34    33    1
     4    33    27    1
     5     1     5   ar
     6     1     2   ar
     7     5     4   ar
     8    37    35    1
     9    24    22    1
    10    21    20    1
    11    20    15    1
    12     4    14    1
    13     4     3   ar
    14     2     8    1
    15     2     3   ar
    16    15    14   ar
    17    15    16   ar
    18    27    26   ar
    19    27    28   ar
    20    14    18   ar
    21     8     9    1
    22    16    22    1
    23    16    17   ar
    24    35    38    1
    25    35    28    1
    26    35    36    1
    27    22    25    1
    28    22    23    1
    29    18    19    1
    30    18    17   ar
    31    17    26    1
    32     3    10    1
    33    26    30   ar
    34    28    29   ar
    35    12    10    1
    36    10    11    1
    37    10    13    1
    38    30    29   ar
    39    30    31    1
    40    29    32    1
