@<TRIPOS>MOLECULE
mol_data/opt/cam/geoms/mol2/13fi13he13ie-12el-.out
 52 55 0 0 0
SMALL
GASTEIGER

@<TRIPOS>ATOM
      1 C           1.2150   -0.1328   -0.2410 C.ar    1  LIG1        0.0444
      2 C           0.7998    1.0292    0.3523 C.ar    1  LIG1        0.1376
      3 C          -0.6214    1.0177    0.4483 C.ar    1  LIG1        0.0177
      4 C          -1.0373   -0.1789   -0.1100 C.ar    1  LIG1        0.0713
      5 N           0.0831   -0.8738   -0.5016 N.ar    1  LIG1       -0.3562
      6 H           0.0541   -1.6832   -1.0982 H       1  LIG1        0.1655
      7 H           2.2058   -0.4845   -0.4770 H       1  LIG1        0.0844
      8 O           1.6379    2.0136    0.7872 O.3     1  LIG1       -0.5050
      9 H           1.1131    2.6834    1.2390 H       1  LIG1        0.2922
     10 C          -1.4554    2.0663    1.1179 C.3     1  LIG1       -0.0342
     11 H          -2.5056    1.9843    0.8327 H       1  LIG1        0.0279
     12 H          -1.1278    3.0753    0.8382 H       1  LIG1        0.0279
     13 H          -1.4003    1.9978    2.2107 H       1  LIG1        0.0279
     14 C          -2.3644   -0.7384   -0.2904 C.ar    1  LIG1        0.0859
     15 C          -3.5258   -0.1789   -0.7716 C.ar    1  LIG1        0.0679
     16 C          -4.5365   -1.1942   -0.7624 C.ar    1  LIG1        0.0726
     17 C          -3.9565   -2.3537   -0.2655 C.ar    1  LIG1        0.0811
     18 N          -2.6382   -2.0773   -0.0201 N.ar    1  LIG1       -0.3494
     19 H          -2.0694   -2.6299    0.6029 H       1  LIG1        0.1661
     20 N          -3.7236    1.1335   -1.1930 N.pl3   1  LIG1       -0.3553
     21 H          -2.8948    1.5554   -1.5918 H       1  LIG1        0.1424
     22 H          -4.5228    1.2288   -1.8067 H       1  LIG1        0.1424
     23 C          -5.8407   -1.0252   -1.2940 C.1     1  LIG1       -0.0656
     24 C          -6.9291   -0.8242   -1.7727 C.1     1  LIG1       -0.1138
     25 H          -7.8967   -0.6670   -2.1901 H       1  LIG1        0.1232
     26 C          -4.4999   -3.6765   -0.0348 C.ar    1  LIG1        0.0688
     27 C          -5.6967   -4.0954    0.5110 C.ar    1  LIG1       -0.0076
     28 C          -5.6629   -5.5242    0.5379 C.ar    1  LIG1        0.0565
     29 C          -4.4452   -5.9297    0.0010 C.ar    1  LIG1        0.0997
     30 N          -3.7498   -4.7964   -0.3178 N.ar    1  LIG1       -0.3494
     31 H          -2.8808   -4.7990   -0.8268 H       1  LIG1        0.1661
     32 C          -6.8019   -3.2463    1.0461 C.3     1  LIG1       -0.0365
     33 H          -7.2847   -3.7420    1.8915 H       1  LIG1        0.0279
     34 H          -7.5677   -3.0577    0.2881 H       1  LIG1        0.0279
     35 H          -6.4280   -2.2740    1.3729 H       1  LIG1        0.0279
     36 C          -6.6591   -6.3433    1.1310 C.1     1  LIG1       -0.0672
     37 C          -7.5155   -6.9971    1.6694 C.1     1  LIG1       -0.1138
     38 H          -8.2626   -7.5941    2.1382 H       1  LIG1        0.1232
     39 C          -3.8425   -7.2194   -0.2257 C.ar    1  LIG1        0.1711
     40 C          -4.3131   -8.4749   -0.5233 C.ar    1  LIG1        0.1134
     41 C          -3.1350   -9.3036   -0.6533 C.ar    1  LIG1        0.1736
     42 C          -2.0641   -8.5037   -0.4467 C.ar    1  LIG1        0.1354
     43 O          -2.4812   -7.2299   -0.1942 O.2     1  LIG1       -0.4564
     44 H          -1.0019   -8.6799   -0.4618 H       1  LIG1        0.1068
     45 C          -5.6460   -8.8702   -0.7984 C.1     1  LIG1       -0.0621
     46 C          -6.7650   -9.2289   -1.0604 C.1     1  LIG1       -0.1137
     47 H          -7.7613   -9.5199   -1.3005 H       1  LIG1        0.1232
     48 O          -3.0817  -10.6120   -0.9938 O.3     1  LIG1       -0.4907
     49 C          -3.7540  -11.4952   -0.1011 C.3     1  LIG1        0.0790
     50 H          -3.6244  -12.4978   -0.5088 H       1  LIG1        0.0660
     51 H          -3.3093  -11.4477    0.8992 H       1  LIG1        0.0660
     52 H          -4.8200  -11.2626   -0.0377 H       1  LIG1        0.0660
@<TRIPOS>BOND
     1    25    24    1
     2    22    20    1
     3    24    23    3
     4    21    20    1
     5    47    46    1
     6    23    16    1
     7    20    15    1
     8     6     5    1
     9    46    45    3
    10    48    41    1
    11    48    49    1
    12    31    30    1
    13    45    40    1
    14    15    16   ar
    15    15    14   ar
    16    16    17   ar
    17    41    40   ar
    18    41    42   ar
    19    40    39   ar
    20    50    49    1
    21     5     1   ar
    22     5     4   ar
    23     7     1    1
    24    44    42    1
    25    42    43   ar
    26    30    26   ar
    27    30    29   ar
    28    14     4    1
    29    14    18   ar
    30    17    26    1
    31    17    18   ar
    32     1     2   ar
    33    39    43   ar
    34    39    29    1
    35     4     3   ar
    36    49    52    1
    37    49    51    1
    38    26    27   ar
    39    18    19    1
    40    29    28   ar
    41    34    32    1
    42     2     3   ar
    43     2     8    1
    44     3    10    1
    45    27    28   ar
    46    27    32    1
    47    28    36    1
    48     8     9    1
    49    11    10    1
    50    12    10    1
    51    32    35    1
    52    32    33    1
    53    10    13    1
    54    36    37    3
    55    37    38    1
