@<TRIPOS>MOLECULE
mol_data/opt/cam/geoms/mol2/13fi13fi-13fi.out
 38 40 0 0 0
SMALL
GASTEIGER

@<TRIPOS>ATOM
      1 C           1.2531   -0.2730   -0.2472 C.ar    1  LIG1        0.0445
      2 C           0.8739    1.0258   -0.0227 C.ar    1  LIG1        0.1376
      3 C          -0.5407    1.0767    0.1134 C.ar    1  LIG1        0.0178
      4 C          -0.9858   -0.2280   -0.0471 C.ar    1  LIG1        0.0730
      5 N           0.1067   -1.0258   -0.2532 N.ar    1  LIG1       -0.3561
      6 H           0.0264   -2.0221   -0.3879 H       1  LIG1        0.1655
      7 H           2.2311   -0.7013   -0.3921 H       1  LIG1        0.0844
      8 O           1.7465    2.0749    0.1025 O.3     1  LIG1       -0.5050
      9 H           1.3136    2.8710   -0.2243 H       1  LIG1        0.2922
     10 C          -1.3450    2.3054    0.4060 C.3     1  LIG1       -0.0342
     11 H          -2.1200    2.1174    1.1553 H       1  LIG1        0.0279
     12 H          -1.8383    2.7229   -0.4810 H       1  LIG1        0.0279
     13 H          -0.7033    3.0912    0.8172 H       1  LIG1        0.0279
     14 C          -2.3067   -0.8135   -0.0194 C.ar    1  LIG1        0.1060
     15 C          -2.6788   -2.1439   -0.0030 C.ar    1  LIG1        0.1470
     16 C          -4.0915   -2.2432    0.0041 C.ar    1  LIG1        0.0185
     17 C          -4.5604   -0.9382   -0.0008 C.ar    1  LIG1        0.0735
     18 N          -3.4758   -0.0968   -0.0170 N.ar    1  LIG1       -0.3486
     19 H          -3.5707    0.9058   -0.0791 H       1  LIG1        0.1661
     20 O          -1.7859   -3.2012   -0.0484 O.3     1  LIG1       -0.5043
     21 H          -1.7988   -3.6522    0.8048 H       1  LIG1        0.2922
     22 C          -4.8683   -3.5221   -0.0054 C.3     1  LIG1       -0.0342
     23 H          -4.1885   -4.3642   -0.1560 H       1  LIG1        0.0279
     24 H          -5.5974   -3.5557   -0.8229 H       1  LIG1        0.0279
     25 H          -5.4057   -3.7028    0.9341 H       1  LIG1        0.0279
     26 C          -5.8942   -0.3850   -0.0050 C.ar    1  LIG1        0.1055
     27 C          -6.2993    0.9309   -0.0849 C.ar    1  LIG1        0.1463
     28 C          -7.7166    0.9929   -0.0539 C.ar    1  LIG1        0.0090
     29 C          -8.1436   -0.3103    0.0438 C.ar    1  LIG1        0.0087
     30 N          -7.0495   -1.1307    0.0781 N.ar    1  LIG1       -0.3563
     31 H          -7.0742   -2.1305    0.1742 H       1  LIG1        0.1655
     32 H          -9.1455   -0.7084    0.0958 H       1  LIG1        0.0811
     33 O          -5.4178    1.9896   -0.1336 O.3     1  LIG1       -0.5043
     34 H          -5.7933    2.6843   -0.6863 H       1  LIG1        0.2922
     35 C          -8.5496    2.2337   -0.1131 C.3     1  LIG1       -0.0348
     36 H          -9.6106    1.9970   -0.0092 H       1  LIG1        0.0279
     37 H          -8.4331    2.7675   -1.0642 H       1  LIG1        0.0279
     38 H          -8.2872    2.9334    0.6873 H       1  LIG1        0.0279
@<TRIPOS>BOND
     1    37    35    1
     2    24    22    1
     3    34    33    1
     4    12    10    1
     5     7     1    1
     6     6     5    1
     7     5     1   ar
     8     5     4   ar
     9     1     2   ar
    10     9     8    1
    11    23    22    1
    12    33    27    1
    13    35    28    1
    14    35    36    1
    15    35    38    1
    16    27    28   ar
    17    27    26   ar
    18    19    18    1
    19    28    29   ar
    20    20    15    1
    21    20    21    1
    22     4    14    1
    23     4     3   ar
    24     2     8    1
    25     2     3   ar
    26    14    18   ar
    27    14    15   ar
    28    18    17   ar
    29    22    16    1
    30    22    25    1
    31    26    17    1
    32    26    30   ar
    33    15    16   ar
    34    17    16   ar
    35    29    30   ar
    36    29    32    1
    37    30    31    1
    38     3    10    1
    39    10    13    1
    40    10    11    1
