@<TRIPOS>MOLECULE
mol_data/opt/cam/geoms/mol2/13fl13fl13fl13fl-.out
 54 57 0 0 0
SMALL
GASTEIGER

@<TRIPOS>ATOM
      1 C           1.1696    0.4185   -1.6329 C.ar    1  LIG1        0.0480
      2 C           1.1646    1.1098   -0.4511 C.ar    1  LIG1        0.1769
      3 C          -0.1011    0.9173    0.1603 C.ar    1  LIG1        0.1882
      4 C          -0.8588    0.1087   -0.6621 C.ar    1  LIG1        0.1126
      5 N          -0.0581   -0.1993   -1.7418 N.ar    1  LIG1       -0.3534
      6 H          -0.4134   -0.6144   -2.5866 H       1  LIG1        0.1656
      7 H           1.9373    0.3092   -2.3810 H       1  LIG1        0.0845
      8 O           2.1817    1.8319    0.0911 O.3     1  LIG1       -0.5023
      9 H           1.9228    2.0126    1.0055 H       1  LIG1        0.2923
     10 O          -0.3939    1.4080    1.4042 O.3     1  LIG1       -0.4895
     11 C          -1.0725    2.6636    1.3894 C.3     1  LIG1        0.0791
     12 H          -1.1978    2.9599    2.4325 H       1  LIG1        0.0660
     13 H          -0.4797    3.4234    0.8662 H       1  LIG1        0.0660
     14 H          -2.0497    2.5738    0.9085 H       1  LIG1        0.0660
     15 C          -2.1911   -0.4513   -0.5231 C.ar    1  LIG1        0.1129
     16 C          -3.4315    0.1251   -0.3710 C.ar    1  LIG1        0.1866
     17 C          -4.3878   -0.9131   -0.3097 C.ar    1  LIG1        0.1889
     18 C          -3.7375   -2.1255   -0.4423 C.ar    1  LIG1        0.1131
     19 N          -2.4084   -1.8261   -0.5612 N.ar    1  LIG1       -0.3458
     20 H          -1.6739   -2.4990   -0.7052 H       1  LIG1        0.1662
     21 O          -3.7075    1.4564   -0.2974 O.3     1  LIG1       -0.5019
     22 H          -4.6648    1.5519   -0.3872 H       1  LIG1        0.2924
     23 O          -5.7492   -0.7121   -0.1748 O.3     1  LIG1       -0.4895
     24 C          -6.2122   -0.8362    1.1753 C.3     1  LIG1        0.0791
     25 H          -7.2834   -0.6317    1.1603 H       1  LIG1        0.0660
     26 H          -6.0327   -1.8471    1.5519 H       1  LIG1        0.0660
     27 H          -5.7040   -0.1132    1.8197 H       1  LIG1        0.0660
     28 C          -4.2856   -3.4577   -0.4790 C.ar    1  LIG1        0.1129
     29 C          -5.5511   -3.8677   -0.8701 C.ar    1  LIG1        0.1866
     30 C          -5.5809   -5.2834   -0.7848 C.ar    1  LIG1        0.1889
     31 C          -4.3395   -5.7077   -0.3555 C.ar    1  LIG1        0.1131
     32 N          -3.5522   -4.5978   -0.1981 N.ar    1  LIG1       -0.3458
     33 H          -2.6692   -4.6371    0.2887 H       1  LIG1        0.1662
     34 O          -6.5899   -3.1089   -1.3005 O.3     1  LIG1       -0.5019
     35 H          -6.4133   -2.1742   -1.0827 H       1  LIG1        0.2924
     36 O          -6.5954   -6.1426   -1.1216 O.3     1  LIG1       -0.4895
     37 C          -7.8478   -5.8384   -0.5160 C.3     1  LIG1        0.0791
     38 H          -8.5555   -6.5891   -0.8706 H       1  LIG1        0.0660
     39 H          -7.7757   -5.8916    0.5769 H       1  LIG1        0.0660
     40 H          -8.1890   -4.8426   -0.8076 H       1  LIG1        0.0660
     41 C          -3.8554   -7.0334   -0.0851 C.ar    1  LIG1        0.1124
     42 C          -2.6455   -7.4451    0.4257 C.ar    1  LIG1        0.1859
     43 C          -2.6691   -8.8552    0.5105 C.ar    1  LIG1        0.1793
     44 C          -3.8946   -9.2836    0.0479 C.ar    1  LIG1        0.0482
     45 N          -4.6035   -8.1632   -0.3079 N.ar    1  LIG1       -0.3534
     46 H          -5.5271   -8.1213   -0.7092 H       1  LIG1        0.1656
     47 H          -4.3059  -10.2737   -0.0557 H       1  LIG1        0.0845
     48 O          -1.6196   -6.6113    0.7852 O.3     1  LIG1       -0.5019
     49 H          -0.9144   -7.1590    1.1527 H       1  LIG1        0.2924
     50 O          -1.5952   -9.5407    0.9936 O.3     1  LIG1       -0.4900
     51 C          -1.7495  -10.9418    1.0321 C.3     1  LIG1        0.0790
     52 H          -0.8258  -11.3542    1.4379 H       1  LIG1        0.0660
     53 H          -2.5903  -11.2284    1.6762 H       1  LIG1        0.0660
     54 H          -1.9185  -11.3477    0.0268 H       1  LIG1        0.0660
@<TRIPOS>BOND
     1     6     5    1
     2     7     1    1
     3     5     1   ar
     4     5     4   ar
     5     1     2   ar
     6    34    35    1
     7    34    29    1
     8    36    30    1
     9    36    37    1
    10    38    37    1
    11    29    30   ar
    12    29    28   ar
    13    40    37    1
    14    30    31   ar
    15    46    45    1
    16    20    19    1
    17     4    15    1
    18     4     3   ar
    19    19    15   ar
    20    19    18   ar
    21    15    16   ar
    22    37    39    1
    23    28    18    1
    24    28    32   ar
    25     2     8    1
    26     2     3   ar
    27    18    17   ar
    28    22    21    1
    29    16    17   ar
    30    16    21    1
    31    31    32   ar
    32    31    41    1
    33    17    23    1
    34    45    41   ar
    35    45    44   ar
    36    32    33    1
    37    23    24    1
    38    41    42   ar
    39    47    44    1
    40    54    51    1
    41    44    43   ar
    42     8     9    1
    43     3    10    1
    44    42    43   ar
    45    42    48    1
    46    43    50    1
    47    48    49    1
    48    13    11    1
    49    14    11    1
    50    50    51    1
    51    51    52    1
    52    51    53    1
    53    25    24    1
    54    24    26    1
    55    24    27    1
    56    11    10    1
    57    11    12    1
