@<TRIPOS>MOLECULE
mol_data/opt/cam/geoms/mol2/13fl13fl-.out
 28 29 0 0 0
SMALL
GASTEIGER

@<TRIPOS>ATOM
      1 C           1.3976   -0.3164   -0.1281 C.ar    1  LIG1        0.0480
      2 C           1.0524    0.9898   -0.3659 C.ar    1  LIG1        0.1769
      3 C          -0.3630    1.0598   -0.3838 C.ar    1  LIG1        0.1882
      4 C          -0.8552   -0.2099   -0.1622 C.ar    1  LIG1        0.1126
      5 N           0.2264   -1.0310   -0.0040 N.ar    1  LIG1       -0.3534
      6 H           0.1406   -2.0199    0.1711 H       1  LIG1        0.1656
      7 H           2.3667   -0.7777   -0.0371 H       1  LIG1        0.0845
      8 O           1.9056    2.0450   -0.5281 O.3     1  LIG1       -0.5023
      9 H           1.4461    2.6995   -1.0690 H       1  LIG1        0.2923
     10 O          -1.1116    2.1966   -0.6062 O.3     1  LIG1       -0.4895
     11 C          -1.1623    3.0528    0.5340 C.3     1  LIG1        0.0791
     12 H          -1.7290    3.9390    0.2422 H       1  LIG1        0.0660
     13 H          -1.6602    2.5563    1.3739 H       1  LIG1        0.0660
     14 H          -0.1553    3.3491    0.8454 H       1  LIG1        0.0660
     15 C          -2.2123   -0.6881   -0.1167 C.ar    1  LIG1        0.1124
     16 C          -2.7056   -1.9421    0.1549 C.ar    1  LIG1        0.1859
     17 C          -4.1152   -1.8839    0.0548 C.ar    1  LIG1        0.1793
     18 C          -4.4614   -0.5938   -0.2795 C.ar    1  LIG1        0.0482
     19 N          -3.2925    0.1239   -0.3690 N.ar    1  LIG1       -0.3534
     20 H          -3.1872    1.0756   -0.6823 H       1  LIG1        0.1656
     21 H          -5.4226   -0.1391   -0.4512 H       1  LIG1        0.0845
     22 O          -1.9454   -3.0370    0.4668 O.3     1  LIG1       -0.5019
     23 H          -2.5473   -3.7798    0.6018 H       1  LIG1        0.2924
     24 O          -4.8733   -2.9923    0.2852 O.3     1  LIG1       -0.4900
     25 C          -6.2635   -2.8045    0.1439 C.3     1  LIG1        0.0790
     26 H          -6.7386   -3.7631    0.3524 H       1  LIG1        0.0660
     27 H          -6.6337   -2.0530    0.8525 H       1  LIG1        0.0660
     28 H          -6.5170   -2.4863   -0.8751 H       1  LIG1        0.0660
@<TRIPOS>BOND
     1     9     8    1
     2    28    25    1
     3    20    19    1
     4    10     3    1
     5    10    11    1
     6     8     2    1
     7    21    18    1
     8     3     2   ar
     9     3     4   ar
    10    19    18   ar
    11    19    15   ar
    12     2     1   ar
    13    18    17   ar
    14     4    15    1
    15     4     5   ar
    16     1     7    1
    17     1     5   ar
    18    15    16   ar
    19     5     6    1
    20    17    16   ar
    21    17    24    1
    22    25    24    1
    23    25    26    1
    24    25    27    1
    25    16    22    1
    26    12    11    1
    27    22    23    1
    28    11    14    1
    29    11    13    1
