@<TRIPOS>MOLECULE
mol_data/opt/cam/geoms/mol2/13fl13fl13fl-13fl.out
 54 57 0 0 0
SMALL
GASTEIGER

@<TRIPOS>ATOM
      1 C           1.4386   -0.3493    0.3419 C.ar    1  LIG1        0.0480
      2 C           1.1867    0.8819   -0.2011 C.ar    1  LIG1        0.1769
      3 C          -0.2097    0.9631   -0.4580 C.ar    1  LIG1        0.1882
      4 C          -0.7852   -0.2334   -0.0761 C.ar    1  LIG1        0.1126
      5 N           0.2368   -1.0335    0.3786 N.ar    1  LIG1       -0.3534
      6 H           0.0792   -1.8501    0.9445 H       1  LIG1        0.1656
      7 H           2.3606   -0.8004    0.6729 H       1  LIG1        0.0845
      8 O           2.0518    1.8957   -0.4963 O.3     1  LIG1       -0.5023
      9 H           2.9446    1.6279   -0.2526 H       1  LIG1        0.2923
     10 O          -0.8778    2.0107   -1.0539 O.3     1  LIG1       -0.4895
     11 C          -0.7145    3.2622   -0.3801 C.3     1  LIG1        0.0791
     12 H          -1.2713    3.9989   -0.9604 H       1  LIG1        0.0660
     13 H          -1.1219    3.2067    0.6351 H       1  LIG1        0.0660
     14 H           0.3399    3.5411   -0.3417 H       1  LIG1        0.0660
     15 C          -2.1518   -0.6930   -0.1328 C.ar    1  LIG1        0.1129
     16 C          -3.3293    0.0149   -0.3074 C.ar    1  LIG1        0.1866
     17 C          -4.4006   -0.9085   -0.2043 C.ar    1  LIG1        0.1889
     18 C          -3.8617   -2.1597    0.0196 C.ar    1  LIG1        0.1131
     19 N          -2.4978   -2.0189    0.0753 N.ar    1  LIG1       -0.3458
     20 H          -1.8818   -2.8123   -0.0130 H       1  LIG1        0.1662
     21 O          -3.4835    1.3462   -0.5103 O.3     1  LIG1       -0.5019
     22 H          -2.6342    1.6908   -0.8501 H       1  LIG1        0.2924
     23 O          -5.7425   -0.6757   -0.3394 O.3     1  LIG1       -0.4895
     24 C          -6.2516    0.3526    0.5029 C.3     1  LIG1        0.0791
     25 H          -7.3197    0.4240    0.2931 H       1  LIG1        0.0660
     26 H          -6.1042    0.1001    1.5597 H       1  LIG1        0.0660
     27 H          -5.7668    1.3080    0.2887 H       1  LIG1        0.0660
     28 C          -4.5068   -3.4379    0.1286 C.ar    1  LIG1        0.1129
     29 C          -3.9676   -4.6948    0.3117 C.ar    1  LIG1        0.1866
     30 C          -5.0323   -5.6209    0.3457 C.ar    1  LIG1        0.1889
     31 C          -6.2114   -4.9140    0.1877 C.ar    1  LIG1        0.1131
     32 N          -5.8719   -3.5961    0.0546 N.ar    1  LIG1       -0.3458
     33 H          -6.5178   -2.8352   -0.1101 H       1  LIG1        0.1662
     34 O          -2.6226   -4.9694    0.3985 O.3     1  LIG1       -0.5019
     35 H          -2.5174   -5.7311    0.9822 H       1  LIG1        0.2924
     36 O          -4.9188   -6.9824    0.5285 O.3     1  LIG1       -0.4895
     37 C          -4.4690   -7.6590   -0.6442 C.3     1  LIG1        0.0791
     38 H          -4.3740   -8.7153   -0.3857 H       1  LIG1        0.0660
     39 H          -5.1874   -7.5420   -1.4626 H       1  LIG1        0.0660
     40 H          -3.4970   -7.2737   -0.9695 H       1  LIG1        0.0660
     41 C          -7.5708   -5.3827    0.1801 C.ar    1  LIG1        0.1124
     42 C          -8.7495   -4.7047   -0.0282 C.ar    1  LIG1        0.1859
     43 C          -9.8086   -5.6358    0.0827 C.ar    1  LIG1        0.1793
     44 C          -9.2614   -6.8684    0.3598 C.ar    1  LIG1        0.0482
     45 N          -7.8982   -6.7004    0.4050 N.ar    1  LIG1       -0.3534
     46 H          -7.2118   -7.3851    0.6781 H       1  LIG1        0.1656
     47 H          -9.7215   -7.8292    0.5187 H       1  LIG1        0.0845
     48 O          -8.8530   -3.3686   -0.2935 O.3     1  LIG1       -0.5019
     49 H          -9.7868   -3.1707   -0.4380 H       1  LIG1        0.2924
     50 O         -11.1008   -5.2407   -0.0923 O.3     1  LIG1       -0.4900
     51 C         -12.0609   -6.2636    0.0449 C.3     1  LIG1        0.0790
     52 H         -13.0383   -5.8093   -0.1174 H       1  LIG1        0.0660
     53 H         -11.9006   -7.0571   -0.6960 H       1  LIG1        0.0660
     54 H         -12.0265   -6.7046    1.0492 H       1  LIG1        0.0660
@<TRIPOS>BOND
     1    39    37    1
     2    10     3    1
     3    10    11    1
     4    40    37    1
     5    12    11    1
     6    22    21    1
     7    53    51    1
     8    37    38    1
     9    37    36    1
    10    21    16    1
    11     8     9    1
    12     8     2    1
    13     3     2   ar
    14     3     4   ar
    15    49    48    1
    16    11    14    1
    17    11    13    1
    18    23    17    1
    19    23    24    1
    20    16    17   ar
    21    16    15   ar
    22    48    42    1
    23    17    18   ar
    24     2     1   ar
    25    15     4    1
    26    15    19   ar
    27    52    51    1
    28    33    32    1
    29    50    51    1
    30    50    43    1
    31     4     5   ar
    32    42    43   ar
    33    42    41   ar
    34    20    19    1
    35    18    19   ar
    36    18    28    1
    37    51    54    1
    38    32    28   ar
    39    32    31   ar
    40    43    44   ar
    41    28    29   ar
    42    41    31    1
    43    41    45   ar
    44    31    30   ar
    45    27    24    1
    46    25    24    1
    47    29    30   ar
    48    29    34    1
    49     1     5   ar
    50     1     7    1
    51    30    36    1
    52    44    45   ar
    53    44    47    1
    54     5     6    1
    55    34    35    1
    56    45    46    1
    57    24    26    1
