@<TRIPOS>MOLECULE
mol_data/opt/cam/geoms/mol2/13fl13fl-13fl13fl-.out
 54 57 0 0 0
SMALL
GASTEIGER

@<TRIPOS>ATOM
      1 C           1.4269   -0.3311   -0.5485 C.ar    1  LIG1        0.0480
      2 C           1.0615    0.9909   -0.5673 C.ar    1  LIG1        0.1769
      3 C          -0.3491    1.0459   -0.4479 C.ar    1  LIG1        0.1882
      4 C          -0.8213   -0.2487   -0.3636 C.ar    1  LIG1        0.1126
      5 N           0.2702   -1.0705   -0.4201 N.ar    1  LIG1       -0.3534
      6 H           0.1986   -2.0747   -0.3788 H       1  LIG1        0.1656
      7 H           2.3995   -0.7898   -0.6121 H       1  LIG1        0.0845
      8 O           1.8915    2.0705   -0.6625 O.3     1  LIG1       -0.5023
      9 H           1.3523    2.8091   -0.9730 H       1  LIG1        0.2923
     10 O          -1.1044    2.1987   -0.4414 O.3     1  LIG1       -0.4895
     11 C          -1.1561    2.8209    0.8412 C.3     1  LIG1        0.0791
     12 H          -1.7495    3.7300    0.7294 H       1  LIG1        0.0660
     13 H          -1.6313    2.1627    1.5762 H       1  LIG1        0.0660
     14 H          -0.1510    3.0782    1.1927 H       1  LIG1        0.0660
     15 C          -2.1676   -0.7434   -0.2606 C.ar    1  LIG1        0.1129
     16 C          -2.6405   -2.0296   -0.1132 C.ar    1  LIG1        0.1866
     17 C          -4.0505   -1.9699   -0.0619 C.ar    1  LIG1        0.1889
     18 C          -4.4213   -0.6425   -0.1874 C.ar    1  LIG1        0.1131
     19 N          -3.2673    0.0852   -0.2948 N.ar    1  LIG1       -0.3458
     20 H          -3.2274    1.0821   -0.4536 H       1  LIG1        0.1662
     21 O          -1.8533   -3.1489   -0.0121 O.3     1  LIG1       -0.5019
     22 H          -2.3782   -3.9000   -0.3167 H       1  LIG1        0.2924
     23 O          -4.8967   -3.0475    0.0618 O.3     1  LIG1       -0.4895
     24 C          -5.0456   -3.4902    1.4098 C.3     1  LIG1        0.0791
     25 H          -5.7124   -4.3535    1.3869 H       1  LIG1        0.0660
     26 H          -4.0795   -3.7820    1.8358 H       1  LIG1        0.0660
     27 H          -5.4860   -2.7046    2.0327 H       1  LIG1        0.0660
     28 C          -5.7277   -0.0470   -0.2368 C.ar    1  LIG1        0.1129
     29 C          -6.1025    1.2778   -0.3216 C.ar    1  LIG1        0.1866
     30 C          -7.5157    1.3264   -0.3335 C.ar    1  LIG1        0.1889
     31 C          -7.9820    0.0267   -0.2663 C.ar    1  LIG1        0.1131
     32 N          -6.8855   -0.7902   -0.1983 N.ar    1  LIG1       -0.3458
     33 H          -6.9157   -1.8004   -0.2087 H       1  LIG1        0.1662
     34 O          -5.2283    2.3397   -0.3401 O.3     1  LIG1       -0.5019
     35 H          -5.5512    2.9782   -0.9883 H       1  LIG1        0.2924
     36 O          -8.2994    2.4542   -0.4270 O.3     1  LIG1       -0.4895
     37 C          -8.2676    3.2515    0.7553 C.3     1  LIG1        0.0791
     38 H          -8.8812    4.1328    0.5607 H       1  LIG1        0.0660
     39 H          -8.6745    2.6996    1.6095 H       1  LIG1        0.0660
     40 H          -7.2444    3.5625    0.9889 H       1  LIG1        0.0660
     41 C          -9.3292   -0.4750   -0.2860 C.ar    1  LIG1        0.1124
     42 C          -9.8027   -1.7611   -0.1655 C.ar    1  LIG1        0.1859
     43 C         -11.2124   -1.7135   -0.2666 C.ar    1  LIG1        0.1793
     44 C         -11.5787   -0.3985   -0.4493 C.ar    1  LIG1        0.0482
     45 N         -10.4223    0.3432   -0.4485 N.ar    1  LIG1       -0.3534
     46 H         -10.3324    1.3308   -0.6250 H       1  LIG1        0.1656
     47 H         -12.5467    0.0573   -0.5732 H       1  LIG1        0.0845
     48 O          -9.0278   -2.8722    0.0245 O.3     1  LIG1       -0.5019
     49 H          -9.6121   -3.6404   -0.0005 H       1  LIG1        0.2924
     50 O         -11.9535   -2.8535   -0.1789 O.3     1  LIG1       -0.4900
     51 C         -13.3442   -2.6737   -0.3261 C.3     1  LIG1        0.0790
     52 H         -13.8049   -3.6578   -0.2405 H       1  LIG1        0.0660
     53 H         -13.7417   -2.0167    0.4577 H       1  LIG1        0.0660
     54 H         -13.5848   -2.2423   -1.3059 H       1  LIG1        0.0660
@<TRIPOS>BOND
     1    54    51    1
     2    35    34    1
     3     9     8    1
     4     8     2    1
     5    46    45    1
     6     7     1    1
     7    47    44    1
     8     2     1   ar
     9     2     3   ar
    10     1     5   ar
    11    20    19    1
    12    44    45   ar
    13    44    43   ar
    14    45    41   ar
    15     3    10    1
    16     3     4   ar
    17    10    11    1
    18    36    30    1
    19    36    37    1
    20     5     6    1
    21     5     4   ar
    22     4    15    1
    23    34    29    1
    24    30    29   ar
    25    30    31   ar
    26    51    52    1
    27    51    50    1
    28    51    53    1
    29    29    28   ar
    30    22    21    1
    31    19    15   ar
    32    19    18   ar
    33    41    31    1
    34    41    42   ar
    35    43    50    1
    36    43    42   ar
    37    31    32   ar
    38    15    16   ar
    39    28    32   ar
    40    28    18    1
    41    33    32    1
    42    18    17   ar
    43    42    48    1
    44    16    17   ar
    45    16    21    1
    46    17    23    1
    47    49    48    1
    48    23    24    1
    49    38    37    1
    50    12    11    1
    51    37    40    1
    52    37    39    1
    53    11    14    1
    54    11    13    1
    55    25    24    1
    56    24    26    1
    57    24    27    1
