@<TRIPOS>MOLECULE
mol_data/opt/cam/geoms/mol2/13fl13fl-13fl.out
 41 43 0 0 0
SMALL
GASTEIGER

@<TRIPOS>ATOM
      1 C           1.4041   -0.6954   -0.5395 C.ar    1  LIG1        0.0480
      2 C           1.1730    0.6568   -0.5518 C.ar    1  LIG1        0.1769
      3 C          -0.2247    0.8521   -0.4293 C.ar    1  LIG1        0.1882
      4 C          -0.8238   -0.3891   -0.3508 C.ar    1  LIG1        0.1126
      5 N           0.1797   -1.3159   -0.4134 N.ar    1  LIG1       -0.3534
      6 H           0.0075   -2.3076   -0.3672 H       1  LIG1        0.1656
      7 H           2.3260   -1.2487   -0.6063 H       1  LIG1        0.0845
      8 O           2.1066    1.6478   -0.6451 O.3     1  LIG1       -0.5023
      9 H           1.6439    2.4380   -0.9525 H       1  LIG1        0.2923
     10 O          -0.8608    2.0738   -0.4186 O.3     1  LIG1       -0.4895
     11 C          -0.8526    2.6945    0.8658 C.3     1  LIG1        0.0791
     12 H          -1.3525    3.6581    0.7550 H       1  LIG1        0.0660
     13 H          -1.3927    2.0849    1.5980 H       1  LIG1        0.0660
     14 H           0.1723    2.8494    1.2198 H       1  LIG1        0.0660
     15 C          -2.2133   -0.7472   -0.2480 C.ar    1  LIG1        0.1129
     16 C          -2.8112   -1.9821   -0.1177 C.ar    1  LIG1        0.1866
     17 C          -4.2091   -1.7811   -0.0503 C.ar    1  LIG1        0.1889
     18 C          -4.4441   -0.4226   -0.1517 C.ar    1  LIG1        0.1131
     19 N          -3.2235    0.1877   -0.2603 N.ar    1  LIG1       -0.3458
     20 H          -3.0830    1.1763   -0.4178 H       1  LIG1        0.1662
     21 O          -2.1343   -3.1763   -0.0291 O.3     1  LIG1       -0.5019
     22 H          -2.6591   -3.8453   -0.4865 H       1  LIG1        0.2924
     23 O          -5.1706   -2.7600    0.0667 O.3     1  LIG1       -0.4895
     24 C          -5.2174   -3.3358    1.3711 C.3     1  LIG1        0.0791
     25 H          -5.9742   -4.1218    1.3447 H       1  LIG1        0.0660
     26 H          -4.2493   -3.7695    1.6418 H       1  LIG1        0.0660
     27 H          -5.4909   -2.5849    2.1200 H       1  LIG1        0.0660
     28 C          -5.6852    0.3029   -0.1789 C.ar    1  LIG1        0.1124
     29 C          -5.9240    1.6567   -0.2277 C.ar    1  LIG1        0.1859
     30 C          -7.3251    1.8475   -0.2544 C.ar    1  LIG1        0.1793
     31 C          -7.9212    0.6066   -0.2233 C.ar    1  LIG1        0.0482
     32 N          -6.9102   -0.3222   -0.1658 N.ar    1  LIG1       -0.3534
     33 H          -7.0031   -1.3243   -0.2073 H       1  LIG1        0.1656
     34 H          -8.9588    0.3178   -0.2324 H       1  LIG1        0.0845
     35 O          -4.9601    2.6269   -0.2407 O.3     1  LIG1       -0.5019
     36 H          -5.4048    3.4766   -0.3521 H       1  LIG1        0.2924
     37 O          -7.8540    3.1023   -0.3016 O.3     1  LIG1       -0.4900
     38 C          -9.2616    3.1545   -0.3612 C.3     1  LIG1        0.0790
     39 H          -9.5413    4.2071   -0.4045 H       1  LIG1        0.0660
     40 H          -9.6379    2.6401   -1.2544 H       1  LIG1        0.0660
     41 H          -9.7112    2.6952    0.5282 H       1  LIG1        0.0660
@<TRIPOS>BOND
     1    40    38    1
     2     9     8    1
     3     8     2    1
     4     7     1    1
     5     2     1   ar
     6     2     3   ar
     7     1     5   ar
     8    22    21    1
     9     3    10    1
    10     3     4   ar
    11    10    11    1
    12    20    19    1
    13     5     6    1
    14     5     4   ar
    15    39    38    1
    16    38    37    1
    17    38    41    1
    18    36    35    1
    19     4    15    1
    20    37    30    1
    21    19    15   ar
    22    19    18   ar
    23    30    29   ar
    24    30    31   ar
    25    15    16   ar
    26    35    29    1
    27    34    31    1
    28    29    28   ar
    29    31    32   ar
    30    33    32    1
    31    28    32   ar
    32    28    18    1
    33    18    17   ar
    34    16    17   ar
    35    16    21    1
    36    17    23    1
    37    23    24    1
    38    12    11    1
    39    11    14    1
    40    11    13    1
    41    25    24    1
    42    24    26    1
    43    24    27    1
