@<TRIPOS>MOLECULE
mol_data/opt/cam/geoms/mol2/13fl13fl13fl13fl.out
 54 57 0 0 0
SMALL
GASTEIGER

@<TRIPOS>ATOM
      1 C           0.5610    0.6203   -2.7217 C.ar    1  LIG1        0.0480
      2 C           1.1250    0.9628   -1.5224 C.ar    1  LIG1        0.1769
      3 C           0.1802    0.6854   -0.5005 C.ar    1  LIG1        0.1882
      4 C          -0.9570    0.1761   -1.0934 C.ar    1  LIG1        0.1126
      5 N          -0.6971    0.1271   -2.4457 N.ar    1  LIG1       -0.3534
      6 H          -1.4142   -0.0268   -3.1345 H       1  LIG1        0.1656
      7 H           0.9506    0.6746   -3.7248 H       1  LIG1        0.0845
      8 O           2.3763    1.4485   -1.3014 O.3     1  LIG1       -0.5023
      9 H           2.5152    1.3961   -0.3453 H       1  LIG1        0.2923
     10 O           0.4811    0.8341    0.8269 O.3     1  LIG1       -0.4895
     11 C           0.0541    2.0766    1.3865 C.3     1  LIG1        0.0791
     12 H           0.4047    2.0863    2.4203 H       1  LIG1        0.0660
     13 H           0.4975    2.9216    0.8461 H       1  LIG1        0.0660
     14 H          -1.0348    2.1613    1.3621 H       1  LIG1        0.0660
     15 C          -2.2077   -0.3275   -0.5518 C.ar    1  LIG1        0.1129
     16 C          -3.1630    0.2370    0.2617 C.ar    1  LIG1        0.1866
     17 C          -4.2062   -0.7016    0.4390 C.ar    1  LIG1        0.1889
     18 C          -3.8937   -1.8419   -0.2770 C.ar    1  LIG1        0.1131
     19 N          -2.6764   -1.5834   -0.8782 N.ar    1  LIG1       -0.3458
     20 H          -2.1612   -2.2561   -1.4205 H       1  LIG1        0.1662
     21 O          -3.1608    1.4905    0.7950 O.3     1  LIG1       -0.5019
     22 H          -4.0006    1.5857    1.2654 H       1  LIG1        0.2924
     23 O          -5.2711   -0.3551    1.2144 O.3     1  LIG1       -0.4895
     24 C          -6.4849   -1.0591    1.0064 C.3     1  LIG1        0.0791
     25 H          -7.2590   -0.4980    1.5321 H       1  LIG1        0.0660
     26 H          -6.7262   -1.1251   -0.0591 H       1  LIG1        0.0660
     27 H          -6.4305   -2.0716    1.4189 H       1  LIG1        0.0660
     28 C          -4.5540   -3.1319   -0.4393 C.ar    1  LIG1        0.1129
     29 C          -5.6083   -3.5284   -1.2250 C.ar    1  LIG1        0.1866
     30 C          -5.8335   -4.9121   -1.0202 C.ar    1  LIG1        0.1889
     31 C          -4.8953   -5.3677   -0.1116 C.ar    1  LIG1        0.1131
     32 N          -4.1497   -4.2634    0.2530 N.ar    1  LIG1       -0.3458
     33 H          -3.2800   -4.3268    0.7562 H       1  LIG1        0.1662
     34 O          -6.3741   -2.7390   -2.0238 O.3     1  LIG1       -0.5019
     35 H          -7.0565   -3.3149   -2.3971 H       1  LIG1        0.2924
     36 O          -6.8653   -5.5002   -1.6860 O.3     1  LIG1       -0.4895
     37 C          -7.4389   -6.6675   -1.1194 C.3     1  LIG1        0.0791
     38 H          -8.3713   -6.8416   -1.6583 H       1  LIG1        0.0660
     39 H          -6.7782   -7.5280   -1.2454 H       1  LIG1        0.0660
     40 H          -7.6558   -6.5198   -0.0555 H       1  LIG1        0.0660
     41 C          -4.5987   -6.6587    0.4848 C.ar    1  LIG1        0.1124
     42 C          -4.4253   -7.9127   -0.0506 C.ar    1  LIG1        0.1859
     43 C          -4.0676   -8.7935    1.0019 C.ar    1  LIG1        0.1793
     44 C          -4.0079   -8.0675    2.1649 C.ar    1  LIG1        0.0482
     45 N          -4.3069   -6.7652    1.8362 N.ar    1  LIG1       -0.3534
     46 H          -4.5572   -6.0547    2.5031 H       1  LIG1        0.1656
     47 H          -3.7737   -8.3593    3.1752 H       1  LIG1        0.0845
     48 O          -4.5543   -8.2660   -1.3596 O.3     1  LIG1       -0.5019
     49 H          -4.3119   -9.1993   -1.4256 H       1  LIG1        0.2924
     50 O          -3.8145  -10.1040    0.7372 O.3     1  LIG1       -0.4900
     51 C          -3.4232  -10.8771    1.8510 C.3     1  LIG1        0.0790
     52 H          -3.2487  -11.8906    1.4907 H       1  LIG1        0.0660
     53 H          -2.5013  -10.4845    2.2977 H       1  LIG1        0.0660
     54 H          -4.2103  -10.8929    2.6150 H       1  LIG1        0.0660
@<TRIPOS>BOND
     1     7     1    1
     2     6     5    1
     3     1     5   ar
     4     1     2   ar
     5     5     4   ar
     6    35    34    1
     7    34    29    1
     8    36    37    1
     9    36    30    1
    10    38    37    1
    11     2     8    1
    12     2     3   ar
    13    49    48    1
    14    20    19    1
    15    48    42    1
    16     8     9    1
    17    39    37    1
    18    29    30   ar
    19    29    28   ar
    20    37    40    1
    21     4    15    1
    22     4     3   ar
    23    30    31   ar
    24    19    15   ar
    25    19    18   ar
    26    15    16   ar
    27     3    10    1
    28    28    18    1
    29    28    32   ar
    30    18    17   ar
    31    31    32   ar
    32    31    41    1
    33    26    24    1
    34    42    41   ar
    35    42    43   ar
    36    32    33    1
    37    16    17   ar
    38    16    21    1
    39    17    23    1
    40    41    45   ar
    41    50    43    1
    42    50    51    1
    43    21    22    1
    44    10    11    1
    45    13    11    1
    46    43    44   ar
    47    24    23    1
    48    24    27    1
    49    24    25    1
    50    14    11    1
    51    11    12    1
    52    52    51    1
    53    45    44   ar
    54    45    46    1
    55    51    53    1
    56    51    54    1
    57    44    47    1
