@<TRIPOS>MOLECULE
mol_data/opt/cam/geoms/mol2/13fl13fl13fl.out
 41 43 0 0 0
SMALL
GASTEIGER

@<TRIPOS>ATOM
      1 C           1.2779   -0.4593   -0.3312 C.ar    1  LIG1        0.0480
      2 C           1.0444    0.8526   -0.0219 C.ar    1  LIG1        0.1769
      3 C          -0.3630    1.0203    0.1162 C.ar    1  LIG1        0.1882
      4 C          -0.9608   -0.2041   -0.0995 C.ar    1  LIG1        0.1126
      5 N           0.0535   -1.1067   -0.3340 N.ar    1  LIG1       -0.3534
      6 H          -0.1031   -1.9703   -0.8271 H       1  LIG1        0.1656
      7 H           2.2002   -0.9876   -0.5148 H       1  LIG1        0.0845
      8 O           1.9321    1.8708    0.1699 O.3     1  LIG1       -0.5023
      9 H           2.8249    1.5444    0.0121 H       1  LIG1        0.2923
     10 O          -1.0273    2.1693    0.4821 O.3     1  LIG1       -0.4895
     11 C          -0.7389    3.2998   -0.3479 C.3     1  LIG1        0.0791
     12 H          -1.3129    4.1328    0.0594 H       1  LIG1        0.0660
     13 H           0.3262    3.5345   -0.3198 H       1  LIG1        0.0660
     14 H          -1.0510    3.1055   -1.3795 H       1  LIG1        0.0660
     15 C          -2.3491   -0.5994   -0.0691 C.ar    1  LIG1        0.1129
     16 C          -3.4980    0.1612   -0.1944 C.ar    1  LIG1        0.1866
     17 C          -4.6089   -0.7245   -0.1770 C.ar    1  LIG1        0.1889
     18 C          -4.1224   -2.0098   -0.0406 C.ar    1  LIG1        0.1131
     19 N          -2.7484   -1.9203    0.0076 N.ar    1  LIG1       -0.3458
     20 H          -2.1487   -2.7026    0.2065 H       1  LIG1        0.1662
     21 O          -3.5877    1.5098   -0.3158 O.3     1  LIG1       -0.5019
     22 H          -2.7761    1.8880    0.0736 H       1  LIG1        0.2924
     23 O          -5.9251   -0.4105   -0.3068 O.3     1  LIG1       -0.4895
     24 C          -6.3968    0.5576    0.6188 C.3     1  LIG1        0.0791
     25 H          -7.4557    0.7026    0.4000 H       1  LIG1        0.0660
     26 H          -6.2882    0.1998    1.6504 H       1  LIG1        0.0660
     27 H          -5.8637    1.5056    0.5098 H       1  LIG1        0.0660
     28 C          -4.8035   -3.2805    0.0856 C.ar    1  LIG1        0.1124
     29 C          -5.8469   -3.8325   -0.6125 C.ar    1  LIG1        0.1859
     30 C          -6.0925   -5.1255   -0.0707 C.ar    1  LIG1        0.1793
     31 C          -5.1972   -5.3476    0.9408 C.ar    1  LIG1        0.0482
     32 N          -4.3766   -4.2366    1.0051 N.ar    1  LIG1       -0.3534
     33 H          -3.9214   -3.9610    1.8611 H       1  LIG1        0.1656
     34 H          -5.0586   -6.1917    1.5961 H       1  LIG1        0.0845
     35 O          -6.4971   -3.2973   -1.6744 O.3     1  LIG1       -0.5019
     36 H          -7.1684   -3.9360   -1.9475 H       1  LIG1        0.2924
     37 O          -7.0592   -5.9148   -0.6125 O.3     1  LIG1       -0.4900
     38 C          -7.2197   -7.1735    0.0023 C.3     1  LIG1        0.0790
     39 H          -8.0212   -7.6885   -0.5272 H       1  LIG1        0.0660
     40 H          -6.2983   -7.7653   -0.0666 H       1  LIG1        0.0660
     41 H          -7.4928   -7.0638    1.0592 H       1  LIG1        0.0660
@<TRIPOS>BOND
     1    36    35    1
     2    35    29    1
     3    14    11    1
     4     6     5    1
     5    29    30   ar
     6    29    28   ar
     7    37    30    1
     8    37    38    1
     9    39    38    1
    10     7     1    1
    11    11    13    1
    12    11    12    1
    13    11    10    1
    14     5     1   ar
    15     5     4   ar
    16     1     2   ar
    17    21    16    1
    18    21    22    1
    19    23    17    1
    20    23    24    1
    21    16    17   ar
    22    16    15   ar
    23    17    18   ar
    24     4    15    1
    25     4     3   ar
    26    30    31   ar
    27    15    19   ar
    28    40    38    1
    29    18    19   ar
    30    18    28    1
    31     2     3   ar
    32     2     8    1
    33    38    41    1
    34    19    20    1
    35     9     8    1
    36    28    32   ar
    37     3    10    1
    38    25    24    1
    39    27    24    1
    40    24    26    1
    41    31    32   ar
    42    31    34    1
    43    32    33    1
