@<TRIPOS>MOLECULE
mol_data/opt/cam/geoms/mol2/13fl13fl.out
 28 29 0 0 0
SMALL
GASTEIGER

@<TRIPOS>ATOM
      1 C           1.3516   -0.6395   -0.3209 C.ar    1  LIG1        0.0480
      2 C           1.3030    0.6661    0.0863 C.ar    1  LIG1        0.1769
      3 C          -0.0587    1.0093    0.2953 C.ar    1  LIG1        0.1882
      4 C          -0.8286   -0.0993    0.0089 C.ar    1  LIG1        0.1126
      5 N           0.0508   -1.0993   -0.3452 N.ar    1  LIG1       -0.3534
      6 H          -0.2453   -1.9531   -0.7873 H       1  LIG1        0.1656
      7 H           2.1893   -1.2680   -0.5743 H       1  LIG1        0.0845
      8 O           2.3498    1.5080    0.3011 O.3     1  LIG1       -0.5023
      9 H           1.9910    2.2595    0.7935 H       1  LIG1        0.2923
     10 O          -0.4379    2.2241    0.7988 O.3     1  LIG1       -0.4895
     11 C          -0.7125    3.2056   -0.2017 C.3     1  LIG1        0.0791
     12 H          -0.9418    4.1317    0.3287 H       1  LIG1        0.0660
     13 H           0.1613    3.3638   -0.8450 H       1  LIG1        0.0660
     14 H          -1.5681    2.9065   -0.8109 H       1  LIG1        0.0660
     15 C          -2.2540   -0.3576    0.0940 C.ar    1  LIG1        0.1124
     16 C          -3.3529    0.3266   -0.3638 C.ar    1  LIG1        0.1859
     17 C          -4.5095   -0.4113   -0.0009 C.ar    1  LIG1        0.1793
     18 C          -4.1066   -1.5391    0.6671 C.ar    1  LIG1        0.0482
     19 N          -2.7297   -1.5170    0.6902 N.ar    1  LIG1       -0.3534
     20 H          -2.1727   -2.0470    1.3399 H       1  LIG1        0.1656
     21 H          -4.6694   -2.3464    1.1056 H       1  LIG1        0.0845
     22 O          -3.3657    1.4771   -1.0925 O.3     1  LIG1       -0.5019
     23 H          -4.2921    1.6926   -1.2628 H       1  LIG1        0.2924
     24 O          -5.7425    0.0344   -0.3669 O.3     1  LIG1       -0.4900
     25 C          -6.8199   -0.7776    0.0446 C.3     1  LIG1        0.0790
     26 H          -7.7334   -0.3017   -0.3115 H       1  LIG1        0.0660
     27 H          -6.7411   -1.7836   -0.3863 H       1  LIG1        0.0660
     28 H          -6.8547   -0.8611    1.1379 H       1  LIG1        0.0660
@<TRIPOS>BOND
     1    23    22    1
     2    22    16    1
     3    13    11    1
     4    14    11    1
     5     6     5    1
     6     7     1    1
     7    27    25    1
     8    24    17    1
     9    24    25    1
    10    16    17   ar
    11    16    15   ar
    12     5     1   ar
    13     5     4   ar
    14     1     2   ar
    15    26    25    1
    16    11    12    1
    17    11    10    1
    18    17    18   ar
    19     4    15    1
    20     4     3   ar
    21    25    28    1
    22     2     3   ar
    23     2     8    1
    24    15    19   ar
    25     3    10    1
    26     8     9    1
    27    18    19   ar
    28    18    21    1
    29    19    20    1
