@<TRIPOS>MOLECULE
mol_data/opt/cam/geoms/mol2/13ga13ga-13ga-13ga.out
 38 41 0 0 0
SMALL
GASTEIGER

@<TRIPOS>ATOM
      1 C           1.0283   -0.2453    0.5694 C.ar    1  LIG1        0.0154
      2 C           0.5527    0.9814    0.9658 C.ar    1  LIG1        0.0227
      3 C          -0.8553    0.9797    0.7696 C.ar    1  LIG1       -0.0218
      4 C          -1.1987   -0.2446    0.2467 C.ar    1  LIG1        0.0650
      5 N          -0.0377   -0.9888    0.1503 N.ar    1  LIG1       -0.3585
      6 H           0.0274   -1.8763   -0.3203 H       1  LIG1        0.1654
      7 H           2.0355   -0.6317    0.5608 H       1  LIG1        0.0818
      8 S           1.5371    2.2610    1.6923 S.3     1  LIG1       -0.1412
      9 H           1.5800    3.0915    0.6338 H       1  LIG1        0.1072
     10 H          -1.5382    1.7797    1.0088 H       1  LIG1        0.0650
     11 C          -2.4779   -0.8131   -0.1333 C.ar    1  LIG1        0.0767
     12 C          -3.6036   -0.2691   -0.7207 C.ar    1  LIG1        0.0321
     13 C          -4.5754   -1.3017   -0.8391 C.ar    1  LIG1       -0.0211
     14 C          -4.0278   -2.4535   -0.3363 C.ar    1  LIG1        0.0655
     15 N          -2.7353   -2.1544    0.0696 N.ar    1  LIG1       -0.3510
     16 H          -2.2477   -2.6926    0.7705 H       1  LIG1        0.1660
     17 S          -3.8071    1.4190   -1.2085 S.3     1  LIG1       -0.1405
     18 H          -3.8098    1.2261   -2.5407 H       1  LIG1        0.1072
     19 H          -5.5600   -1.2052   -1.2690 H       1  LIG1        0.0650
     20 C          -4.5457   -3.8028   -0.2112 C.ar    1  LIG1        0.0767
     21 C          -5.8056   -4.3007    0.0818 C.ar    1  LIG1        0.0321
     22 C          -5.7171   -5.7167    0.1076 C.ar    1  LIG1       -0.0211
     23 C          -4.4146   -6.0636   -0.1571 C.ar    1  LIG1        0.0655
     24 N          -3.7167   -4.8887   -0.3527 N.ar    1  LIG1       -0.3510
     25 H          -2.7368   -4.8326   -0.5783 H       1  LIG1        0.1660
     26 S          -7.2778   -3.3470    0.3151 S.3     1  LIG1       -0.1405
     27 H          -7.3048   -3.3648    1.6611 H       1  LIG1        0.1072
     28 H          -6.5290   -6.4029    0.2912 H       1  LIG1        0.0650
     29 C          -3.7583   -7.3539   -0.2851 C.ar    1  LIG1        0.0762
     30 C          -3.8194   -8.5091    0.4731 C.ar    1  LIG1        0.0315
     31 C          -2.9495   -9.4645   -0.1245 C.ar    1  LIG1       -0.0305
     32 C          -2.3765   -8.8722   -1.2149 C.ar    1  LIG1        0.0033
     33 N          -2.8605   -7.5910   -1.3011 N.ar    1  LIG1       -0.3586
     34 H          -2.7461   -6.9869   -2.0990 H       1  LIG1        0.1654
     35 H          -1.6711   -9.2524   -1.9376 H       1  LIG1        0.0807
     36 S          -4.8329   -8.7637    1.9009 S.3     1  LIG1       -0.1405
     37 H          -3.8765   -8.6334    2.8398 H       1  LIG1        0.1072
     38 H          -2.7749  -10.4697    0.2288 H       1  LIG1        0.0644
@<TRIPOS>BOND
     1    18    17    1
     2    34    33    1
     3    35    32    1
     4    33    32   ar
     5    33    29   ar
     6    19    13    1
     7    32    31   ar
     8    17    12    1
     9    13    12   ar
    10    13    14   ar
    11    12    11   ar
    12    25    24    1
    13    24    20   ar
    14    24    23   ar
    15    14    20    1
    16    14    15   ar
    17     6     5    1
    18    29    23    1
    19    29    30   ar
    20    20    21   ar
    21    23    22   ar
    22    11    15   ar
    23    11     4    1
    24    31    38    1
    25    31    30   ar
    26    15    16    1
    27    21    22   ar
    28    21    26    1
    29    22    28    1
    30     5     4   ar
    31     5     1   ar
    32     4     3   ar
    33    26    27    1
    34    30    36    1
    35     7     1    1
    36     1     2   ar
    37     9     8    1
    38     3     2   ar
    39     3    10    1
    40     2     8    1
    41    36    37    1
