@<TRIPOS>MOLECULE
mol_data/opt/cam/geoms/mol2/13ga13ga13ga-13ga-.out
 38 41 0 0 0
SMALL
GASTEIGER

@<TRIPOS>ATOM
      1 C           0.8029    0.2131    0.9856 C.ar    1  LIG1        0.0154
      2 C           0.7841    0.9253   -0.1891 C.ar    1  LIG1        0.0227
      3 C          -0.4571    0.6603   -0.8311 C.ar    1  LIG1       -0.0218
      4 C          -1.1651   -0.1973   -0.0251 C.ar    1  LIG1        0.0650
      5 N          -0.3714   -0.4788    1.0722 N.ar    1  LIG1       -0.3585
      6 H          -0.6960   -0.9571    1.8971 H       1  LIG1        0.1654
      7 H           1.5613    0.1527    1.7507 H       1  LIG1        0.0818
      8 S           2.1307    1.8947   -0.8068 S.3     1  LIG1       -0.1412
      9 H           1.6240    3.1134   -0.5426 H       1  LIG1        0.1072
     10 H          -0.7806    1.0409   -1.7874 H       1  LIG1        0.0650
     11 C          -2.4718   -0.8151   -0.1764 C.ar    1  LIG1        0.0767
     12 C          -3.7010   -0.3183   -0.5760 C.ar    1  LIG1        0.0321
     13 C          -4.6411   -1.3795   -0.5080 C.ar    1  LIG1       -0.0211
     14 C          -3.9817   -2.4985   -0.0579 C.ar    1  LIG1        0.0655
     15 N          -2.6628   -2.1401    0.1320 N.ar    1  LIG1       -0.3510
     16 H          -1.9354   -2.7654    0.4390 H       1  LIG1        0.1660
     17 S          -4.0215    1.3305   -1.1319 S.3     1  LIG1       -0.1405
     18 H          -4.6753    1.7701   -0.0404 H       1  LIG1        0.1072
     19 H          -5.6847   -1.3251   -0.7764 H       1  LIG1        0.0650
     20 C          -4.4287   -3.8583    0.1758 C.ar    1  LIG1        0.0767
     21 C          -5.5818   -4.3736    0.7330 C.ar    1  LIG1        0.0321
     22 C          -5.4907   -5.7928    0.6903 C.ar    1  LIG1       -0.0211
     23 C          -4.2865   -6.1182    0.1203 C.ar    1  LIG1        0.0655
     24 N          -3.6306   -4.9325   -0.1697 N.ar    1  LIG1       -0.3510
     25 H          -2.9193   -4.8670   -0.8826 H       1  LIG1        0.1660
     26 S          -6.9354   -3.4245    1.3613 S.3     1  LIG1       -0.1405
     27 H          -6.8668   -3.8425    2.6386 H       1  LIG1        0.1072
     28 H          -6.2235   -6.4934    1.0585 H       1  LIG1        0.0650
     29 C          -3.6602   -7.3953   -0.1674 C.ar    1  LIG1        0.0762
     30 C          -4.1723   -8.6291   -0.5323 C.ar    1  LIG1        0.0315
     31 C          -3.0746   -9.5181   -0.7031 C.ar    1  LIG1       -0.0305
     32 C          -1.9308   -8.8135   -0.4498 C.ar    1  LIG1        0.0033
     33 N          -2.2920   -7.5270   -0.1379 N.ar    1  LIG1       -0.3586
     34 H          -1.6697   -6.8272    0.2319 H       1  LIG1        0.1654
     35 H          -0.8950   -9.1154   -0.4626 H       1  LIG1        0.0807
     36 S          -5.8821   -9.0511   -0.7069 S.3     1  LIG1       -0.1405
     37 H          -6.0043   -8.8333   -2.0301 H       1  LIG1        0.1072
     38 H          -3.1428  -10.5574   -0.9870 H       1  LIG1        0.0644
@<TRIPOS>BOND
     1    37    36    1
     2    10     3    1
     3    17    12    1
     4    17    18    1
     5    38    31    1
     6    25    24    1
     7     3     2   ar
     8     3     4   ar
     9     8     9    1
    10     8     2    1
    11    19    13    1
    12    36    30    1
    13    31    30   ar
    14    31    32   ar
    15    12    13   ar
    16    12    11   ar
    17    30    29   ar
    18    13    14   ar
    19    35    32    1
    20    32    33   ar
    21     2     1   ar
    22    11     4    1
    23    11    15   ar
    24    24    23   ar
    25    24    20   ar
    26    29    33   ar
    27    29    23    1
    28    33    34    1
    29    14    15   ar
    30    14    20    1
    31     4     5   ar
    32    23    22   ar
    33    15    16    1
    34    20    21   ar
    35    22    21   ar
    36    22    28    1
    37    21    26    1
    38     1     5   ar
    39     1     7    1
    40     5     6    1
    41    26    27    1
