@<TRIPOS>MOLECULE
mol_data/opt/cam/geoms/mol2/13ga13ga13ga-13ga.out
 38 41 0 0 0
SMALL
GASTEIGER

@<TRIPOS>ATOM
      1 C           1.0611   -0.2072   -0.1838 C.ar    1  LIG1        0.0154
      2 C           0.6724    0.9951    0.3559 C.ar    1  LIG1        0.0227
      3 C          -0.7449    0.9770    0.4681 C.ar    1  LIG1       -0.0218
      4 C          -1.1828   -0.2319   -0.0178 C.ar    1  LIG1        0.0650
      5 N          -0.0639   -0.9529   -0.3919 N.ar    1  LIG1       -0.3585
      6 H          -0.0967   -1.8147   -0.9114 H       1  LIG1        0.1654
      7 H           2.0458   -0.5750   -0.4265 H       1  LIG1        0.0818
      8 S           1.7795    2.2628    0.9052 S.3     1  LIG1       -0.1412
      9 H           1.5969    3.1276   -0.1100 H       1  LIG1        0.1072
     10 H          -1.3667    1.7556    0.8815 H       1  LIG1        0.0650
     11 C          -2.5091   -0.8073   -0.1375 C.ar    1  LIG1        0.0767
     12 C          -3.7338   -0.2679   -0.4807 C.ar    1  LIG1        0.0321
     13 C          -4.7014   -1.3083   -0.4182 C.ar    1  LIG1       -0.0211
     14 C          -4.0549   -2.4615   -0.0492 C.ar    1  LIG1        0.0655
     15 N          -2.7115   -2.1526    0.0951 N.ar    1  LIG1       -0.3510
     16 H          -2.0829   -2.7015    0.6617 H       1  LIG1        0.1660
     17 S          -4.0414    1.4241   -0.8949 S.3     1  LIG1       -0.1405
     18 H          -4.3200    1.2449   -2.1995 H       1  LIG1        0.1072
     19 H          -5.7523   -1.2170   -0.6425 H       1  LIG1        0.0650
     20 C          -4.5227   -3.8167    0.1578 C.ar    1  LIG1        0.0767
     21 C          -5.7392   -4.3388    0.5596 C.ar    1  LIG1        0.0321
     22 C          -5.6203   -5.7556    0.5776 C.ar    1  LIG1       -0.0211
     23 C          -4.3420   -6.0757    0.1988 C.ar    1  LIG1        0.0655
     24 N          -3.6704   -4.8847   -0.0296 N.ar    1  LIG1       -0.3510
     25 H          -2.8456   -4.8259   -0.6070 H       1  LIG1        0.1660
     26 S          -7.1993   -3.4171    0.9459 S.3     1  LIG1       -0.1405
     27 H          -7.1096   -3.4710    2.2883 H       1  LIG1        0.1072
     28 H          -6.3910   -6.4557    0.8595 H       1  LIG1        0.0650
     29 C          -3.6574   -7.3465    0.0489 C.ar    1  LIG1        0.0762
     30 C          -4.0731   -8.5873   -0.4027 C.ar    1  LIG1        0.0315
     31 C          -2.9541   -9.4649   -0.3431 C.ar    1  LIG1       -0.0305
     32 C          -1.8918   -8.7460    0.1293 C.ar    1  LIG1        0.0033
     33 N          -2.3207   -7.4614    0.3521 N.ar    1  LIG1       -0.3586
     34 H          -1.7989   -6.7576    0.8484 H       1  LIG1        0.1654
     35 H          -0.8720   -9.0370    0.3284 H       1  LIG1        0.0807
     36 S          -5.7100   -9.0246   -0.9132 S.3     1  LIG1       -0.1405
     37 H          -5.5513   -8.8616   -2.2405 H       1  LIG1        0.1072
     38 H          -2.9531  -10.5065   -0.6269 H       1  LIG1        0.0644
@<TRIPOS>BOND
     1    37    36    1
     2    18    17    1
     3    36    30    1
     4     6     5    1
     5    17    12    1
     6    19    13    1
     7    38    31    1
     8    25    24    1
     9    12    13   ar
    10    12    11   ar
    11     7     1    1
    12    13    14   ar
    13    30    31   ar
    14    30    29   ar
    15     5     1   ar
    16     5     4   ar
    17    31    32   ar
    18     1     2   ar
    19    11     4    1
    20    11    15   ar
    21     9     8    1
    22    14    15   ar
    23    14    20    1
    24    24    20   ar
    25    24    23   ar
    26     4     3   ar
    27    29    23    1
    28    29    33   ar
    29    15    16    1
    30    32    35    1
    31    32    33   ar
    32    20    21   ar
    33    23    22   ar
    34    33    34    1
    35     2     3   ar
    36     2     8    1
    37     3    10    1
    38    21    22   ar
    39    21    26    1
    40    22    28    1
    41    26    27    1
