@<TRIPOS>MOLECULE
mol_data/opt/cam/geoms/mol2/13ga13ga13ga13ga-.out
 38 41 0 0 0
SMALL
GASTEIGER

@<TRIPOS>ATOM
      1 C           1.0638   -0.2125    0.1604 C.ar    1  LIG1        0.0154
      2 C           0.6714    1.0013   -0.3500 C.ar    1  LIG1        0.0227
      3 C          -0.7468    0.9861   -0.4511 C.ar    1  LIG1       -0.0218
      4 C          -1.1814   -0.2330    0.0120 C.ar    1  LIG1        0.0650
      5 N          -0.0599   -0.9622    0.3614 N.ar    1  LIG1       -0.3585
      6 H          -0.0889   -1.8351    0.8623 H       1  LIG1        0.1654
      7 H           2.0503   -0.5859    0.3872 H       1  LIG1        0.0818
      8 S           1.7746    2.2803   -0.8806 S.3     1  LIG1       -0.1412
      9 H           1.6006    3.1229    0.1546 H       1  LIG1        0.1072
     10 H          -1.3716    1.7736   -0.8425 H       1  LIG1        0.0650
     11 C          -2.5070   -0.8104    0.1299 C.ar    1  LIG1        0.0767
     12 C          -3.7286   -0.2782    0.4946 C.ar    1  LIG1        0.0321
     13 C          -4.6971   -1.3166    0.4173 C.ar    1  LIG1       -0.0211
     14 C          -4.0543   -2.4618    0.0183 C.ar    1  LIG1        0.0655
     15 N          -2.7119   -2.1502   -0.1302 N.ar    1  LIG1       -0.3510
     16 H          -2.0882   -2.6869   -0.7136 H       1  LIG1        0.1660
     17 S          -4.0320    1.4046    0.9478 S.3     1  LIG1       -0.1405
     18 H          -4.3003    1.1972    2.2504 H       1  LIG1        0.1072
     19 H          -5.7462   -1.2299    0.6520 H       1  LIG1        0.0650
     20 C          -4.5244   -3.8121   -0.2143 C.ar    1  LIG1        0.0767
     21 C          -5.7443   -4.3249   -0.6175 C.ar    1  LIG1        0.0321
     22 C          -5.6263   -5.7410   -0.6672 C.ar    1  LIG1       -0.0211
     23 C          -4.3451   -6.0696   -0.3058 C.ar    1  LIG1        0.0655
     24 N          -3.6711   -4.8841   -0.0570 N.ar    1  LIG1       -0.3510
     25 H          -2.8416   -4.8381    0.5149 H       1  LIG1        0.1660
     26 S          -7.2071   -3.3946   -0.9720 S.3     1  LIG1       -0.1405
     27 H          -7.1282   -3.4194   -2.3158 H       1  LIG1        0.1072
     28 H          -6.3995   -6.4345   -0.9579 H       1  LIG1        0.0650
     29 C          -3.6600   -7.3436   -0.1889 C.ar    1  LIG1        0.0762
     30 C          -4.0726   -8.5938    0.2390 C.ar    1  LIG1        0.0315
     31 C          -2.9546   -9.4702    0.1514 C.ar    1  LIG1       -0.0305
     32 C          -1.8958   -8.7416   -0.3139 C.ar    1  LIG1        0.0033
     33 N          -2.3258   -7.4523   -0.5053 N.ar    1  LIG1       -0.3586
     34 H          -1.8077   -6.7381   -0.9905 H       1  LIG1        0.1654
     35 H          -0.8778   -9.0285   -0.5275 H       1  LIG1        0.0807
     36 S          -5.7055   -9.0415    0.7531 S.3     1  LIG1       -0.1405
     37 H          -5.5360   -8.9074    2.0823 H       1  LIG1        0.1072
     38 H          -2.9518  -10.5177    0.4125 H       1  LIG1        0.0644
@<TRIPOS>BOND
     1    27    26    1
     2    34    33    1
     3    26    21    1
     4    28    22    1
     5     8     2    1
     6     8     9    1
     7    10     3    1
     8    16    15    1
     9    22    21   ar
    10    22    23   ar
    11    21    20   ar
    12    35    32    1
    13    33    32   ar
    14    33    29   ar
    15     3     2   ar
    16     3     4   ar
    17     2     1   ar
    18    32    31   ar
    19    23    29    1
    20    23    24   ar
    21    20    24   ar
    22    20    14    1
    23    29    30   ar
    24    15    14   ar
    25    15    11   ar
    26    24    25    1
    27     4    11    1
    28     4     5   ar
    29    14    13   ar
    30    11    12   ar
    31    31    30   ar
    32    31    38    1
    33     1     5   ar
    34     1     7    1
    35    30    36    1
    36     5     6    1
    37    13    12   ar
    38    13    19    1
    39    12    17    1
    40    36    37    1
    41    17    18    1
