@<TRIPOS>MOLECULE
mol_data/opt/cam/geoms/mol2/13ga13ga-13ga.out
 29 31 0 0 0
SMALL
GASTEIGER

@<TRIPOS>ATOM
      1 C           1.0025   -0.1265    0.1243 C.ar    1  LIG1        0.0154
      2 C           0.5583    1.0679   -0.3899 C.ar    1  LIG1        0.0227
      3 C          -0.8619    1.0154   -0.4321 C.ar    1  LIG1       -0.0218
      4 C          -1.2448   -0.2141    0.0498 C.ar    1  LIG1        0.0650
      5 N          -0.0914   -0.9043    0.3742 N.ar    1  LIG1       -0.3585
      6 H          -0.0769   -1.7692    0.8895 H       1  LIG1        0.1654
      7 H           2.0059   -0.4665    0.3280 H       1  LIG1        0.0818
      8 S           1.5987    2.4313   -0.8288 S.3     1  LIG1       -0.1412
      9 H           1.5751    2.2706   -2.1652 H       1  LIG1        0.1072
     10 H          -1.5237    1.7887   -0.7889 H       1  LIG1        0.0650
     11 C          -2.5472   -0.8332    0.2120 C.ar    1  LIG1        0.0767
     12 C          -3.7871   -0.3284    0.5546 C.ar    1  LIG1        0.0321
     13 C          -4.7115   -1.4106    0.5557 C.ar    1  LIG1       -0.0211
     14 C          -4.0247   -2.5528    0.2236 C.ar    1  LIG1        0.0655
     15 N          -2.7015   -2.1928    0.0366 N.ar    1  LIG1       -0.3510
     16 H          -2.0517   -2.7546   -0.4923 H       1  LIG1        0.1660
     17 S          -4.1687    1.3647    0.8977 S.3     1  LIG1       -0.1405
     18 H          -4.2367    1.2759    2.2394 H       1  LIG1        0.1072
     19 H          -5.7569   -1.3522    0.8187 H       1  LIG1        0.0650
     20 C          -4.4540   -3.9290    0.0662 C.ar    1  LIG1        0.0762
     21 C          -5.5910   -4.4771   -0.4943 C.ar    1  LIG1        0.0315
     22 C          -5.4741   -5.8916   -0.4144 C.ar    1  LIG1       -0.0305
     23 C          -4.2764   -6.1698    0.1883 C.ar    1  LIG1        0.0033
     24 N          -3.6510   -4.9840    0.4560 N.ar    1  LIG1       -0.3586
     25 H          -2.8292   -4.8794    1.0275 H       1  LIG1        0.1654
     26 H          -3.8193   -7.1143    0.4397 H       1  LIG1        0.0807
     27 S          -6.9700   -3.6410   -1.2174 S.3     1  LIG1       -0.1405
     28 H          -6.3367   -2.4783   -1.4527 H       1  LIG1        0.1072
     29 H          -6.1894   -6.6131   -0.7798 H       1  LIG1        0.0644
@<TRIPOS>BOND
     1     9     8    1
     2    28    27    1
     3    27    21    1
     4     8     2    1
     5    10     3    1
     6    29    22    1
     7    21    22   ar
     8    21    20   ar
     9    16    15    1
    10     3     2   ar
    11     3     4   ar
    12    22    23   ar
    13     2     1   ar
    14    15    11   ar
    15    15    14   ar
    16     4    11    1
    17     4     5   ar
    18    20    14    1
    19    20    24   ar
    20     1     7    1
    21     1     5   ar
    22    23    26    1
    23    23    24   ar
    24    11    12   ar
    25    14    13   ar
    26     5     6    1
    27    24    25    1
    28    12    13   ar
    29    12    17    1
    30    13    19    1
    31    17    18    1
