@<TRIPOS>MOLECULE
mol_data/opt/cam/geoms/mol2/13ga13ga.out
 20 21 0 0 0
SMALL
GASTEIGER

@<TRIPOS>ATOM
      1 C           1.0153   -0.1848    0.4049 C.ar    1  LIG1        0.0154
      2 C           0.6859    0.9628   -0.2751 C.ar    1  LIG1        0.0227
      3 C          -0.6977    0.8896   -0.5957 C.ar    1  LIG1       -0.0218
      4 C          -1.1766   -0.2954   -0.0921 C.ar    1  LIG1        0.0650
      5 N          -0.1121   -0.9493    0.4999 N.ar    1  LIG1       -0.3585
      6 H          -0.2004   -1.7788    1.0641 H       1  LIG1        0.1654
      7 H           1.9600   -0.5029    0.8175 H       1  LIG1        0.0818
      8 S           1.8347    2.2254   -0.7449 S.3     1  LIG1       -0.1412
      9 H           1.4831    3.1524    0.1657 H       1  LIG1        0.1072
     10 H          -1.2694    1.6169   -1.1506 H       1  LIG1        0.0650
     11 C          -2.4947   -0.9074   -0.1317 C.ar    1  LIG1        0.0762
     12 C          -3.7691   -0.3964    0.0395 C.ar    1  LIG1        0.0315
     13 C          -4.6888   -1.4741   -0.1003 C.ar    1  LIG1       -0.0305
     14 C          -3.9613   -2.6061   -0.3405 C.ar    1  LIG1        0.0033
     15 N          -2.6340   -2.2581   -0.3475 N.ar    1  LIG1       -0.3586
     16 H          -1.8825   -2.8559   -0.6514 H       1  LIG1        0.1654
     17 H          -4.2725   -3.6254   -0.5096 H       1  LIG1        0.0807
     18 S          -4.1866    1.2980    0.3328 S.3     1  LIG1       -0.1405
     19 H          -4.3341    1.2336    1.6699 H       1  LIG1        0.1072
     20 H          -5.7632   -1.4022   -0.0228 H       1  LIG1        0.0644
@<TRIPOS>BOND
     1    10     3    1
     2     8     2    1
     3     8     9    1
     4    16    15    1
     5     3     2   ar
     6     3     4   ar
     7    17    14    1
     8    15    14   ar
     9    15    11   ar
    10    14    13   ar
    11     2     1   ar
    12    11     4    1
    13    11    12   ar
    14    13    20    1
    15    13    12   ar
    16     4     5   ar
    17    12    18    1
    18    18    19    1
    19     1     5   ar
    20     1     7    1
    21     5     6    1
