@<TRIPOS>MOLECULE
mol_data/opt/cam/geoms/mol2/13ga13ga-.out
 20 21 0 0 0
SMALL
GASTEIGER

@<TRIPOS>ATOM
      1 C           1.0157   -0.1839   -0.3998 C.ar    1  LIG1        0.0154
      2 C           0.6855    0.9624    0.2822 C.ar    1  LIG1        0.0227
      3 C          -0.6984    0.8885    0.6012 C.ar    1  LIG1       -0.0218
      4 C          -1.1767   -0.2956    0.0948 C.ar    1  LIG1        0.0650
      5 N          -0.1116   -0.9482   -0.4975 N.ar    1  LIG1       -0.3585
      6 H          -0.1992   -1.7766   -1.0633 H       1  LIG1        0.1654
      7 H           1.9609   -0.5011   -0.8118 H       1  LIG1        0.0818
      8 S           1.8338    2.2241    0.7556 S.3     1  LIG1       -0.1412
      9 H           1.4833    3.1527   -0.1538 H       1  LIG1        0.1072
     10 H          -1.2707    1.6147    1.1568 H       1  LIG1        0.0650
     11 C          -2.4948   -0.9077    0.1318 C.ar    1  LIG1        0.0762
     12 C          -3.7690   -0.3964   -0.0399 C.ar    1  LIG1        0.0315
     13 C          -4.6889   -1.4744    0.0969 C.ar    1  LIG1       -0.0305
     14 C          -3.9617   -2.6069    0.3358 C.ar    1  LIG1        0.0033
     15 N          -2.6344   -2.2589    0.3448 N.ar    1  LIG1       -0.3586
     16 H          -1.8831   -2.8573    0.6482 H       1  LIG1        0.1654
     17 H          -4.2730   -3.6265    0.5024 H       1  LIG1        0.0807
     18 S          -4.1864    1.2985   -0.3303 S.3     1  LIG1       -0.1405
     19 H          -4.3323    1.2368   -1.6677 H       1  LIG1        0.1072
     20 H          -5.7632   -1.4023    0.0185 H       1  LIG1        0.0644
@<TRIPOS>BOND
     1    19    18    1
     2     6     5    1
     3     7     1    1
     4     5     1   ar
     5     5     4   ar
     6     1     2   ar
     7    18    12    1
     8     9     8    1
     9    12    13   ar
    10    12    11   ar
    11    20    13    1
    12     4    11    1
    13     4     3   ar
    14    13    14   ar
    15    11    15   ar
    16     2     3   ar
    17     2     8    1
    18    14    15   ar
    19    14    17    1
    20    15    16    1
    21     3    10    1
