@<TRIPOS>MOLECULE
mol_data/opt/cam/geoms/mol2/13ga13ga13ga13ga.out
 38 41 0 0 0
SMALL
GASTEIGER

@<TRIPOS>ATOM
      1 C           1.0608   -0.2097    0.1725 C.ar    1  LIG1        0.0154
      2 C           0.6692    1.0038   -0.3394 C.ar    1  LIG1        0.0227
      3 C          -0.7487    0.9875   -0.4449 C.ar    1  LIG1       -0.0218
      4 C          -1.1838   -0.2318    0.0171 C.ar    1  LIG1        0.0650
      5 N          -0.0629   -0.9601    0.3702 N.ar    1  LIG1       -0.3585
      6 H          -0.0929   -1.8328    0.8713 H       1  LIG1        0.1654
      7 H           2.0469   -0.5822    0.4025 H       1  LIG1        0.0818
      8 S           1.7732    2.2833   -0.8669 S.3     1  LIG1       -0.1412
      9 H           1.5953    3.1261    0.1675 H       1  LIG1        0.1072
     10 H          -1.3727    1.7745   -0.8385 H       1  LIG1        0.0650
     11 C          -2.5094   -0.8100    0.1310 C.ar    1  LIG1        0.0767
     12 C          -3.7325   -0.2786    0.4918 C.ar    1  LIG1        0.0321
     13 C          -4.7000   -1.3178    0.4118 C.ar    1  LIG1       -0.0211
     14 C          -4.0551   -2.4626    0.0150 C.ar    1  LIG1        0.0655
     15 N          -2.7125   -2.1501   -0.1293 N.ar    1  LIG1       -0.3510
     16 H          -2.0866   -2.6866   -0.7106 H       1  LIG1        0.1660
     17 S          -4.0385    1.4040    0.9435 S.3     1  LIG1       -0.1405
     18 H          -4.3107    1.1968    2.2454 H       1  LIG1        0.1072
     19 H          -5.7499   -1.2317    0.6431 H       1  LIG1        0.0650
     20 C          -4.5235   -3.8133   -0.2187 C.ar    1  LIG1        0.0767
     21 C          -5.7418   -4.3271   -0.6255 C.ar    1  LIG1        0.0321
     22 C          -5.6227   -5.7431   -0.6744 C.ar    1  LIG1       -0.0211
     23 C          -4.3423   -6.0708   -0.3089 C.ar    1  LIG1        0.0655
     24 N          -3.6700   -4.8847   -0.0584 N.ar    1  LIG1       -0.3510
     25 H          -2.8423   -4.8379    0.5161 H       1  LIG1        0.1660
     26 S          -7.2041   -3.3979   -0.9848 S.3     1  LIG1       -0.1405
     27 H          -7.1210   -3.4230   -2.3284 H       1  LIG1        0.1072
     28 H          -6.3945   -6.4373   -0.9674 H       1  LIG1        0.0650
     29 C          -3.6567   -7.3442   -0.1896 C.ar    1  LIG1        0.0762
     30 C          -4.0698   -8.5946    0.2375 C.ar    1  LIG1        0.0315
     31 C          -2.9509   -9.4702    0.1536 C.ar    1  LIG1       -0.0305
     32 C          -1.8911   -8.7410   -0.3086 C.ar    1  LIG1        0.0033
     33 N          -2.3215   -7.4521   -0.5017 N.ar    1  LIG1       -0.3586
     34 H          -1.8024   -6.7376   -0.9855 H       1  LIG1        0.1654
     35 H          -0.8723   -9.0273   -0.5189 H       1  LIG1        0.0807
     36 S          -5.7040   -9.0433    0.7466 S.3     1  LIG1       -0.1405
     37 H          -5.5388   -8.9087    2.0762 H       1  LIG1        0.1072
     38 H          -2.9481  -10.5177    0.4150 H       1  LIG1        0.0644
@<TRIPOS>BOND
     1    27    26    1
     2    34    33    1
     3    26    21    1
     4    28    22    1
     5     8     2    1
     6     8     9    1
     7    10     3    1
     8    16    15    1
     9    22    21   ar
    10    22    23   ar
    11    21    20   ar
    12    35    32    1
    13    33    32   ar
    14    33    29   ar
    15     3     2   ar
    16     3     4   ar
    17     2     1   ar
    18    23    29    1
    19    23    24   ar
    20    32    31   ar
    21    20    24   ar
    22    20    14    1
    23    29    30   ar
    24    15    14   ar
    25    15    11   ar
    26    24    25    1
    27    14    13   ar
    28     4    11    1
    29     4     5   ar
    30    11    12   ar
    31    31    30   ar
    32    31    38    1
    33     1     5   ar
    34     1     7    1
    35    30    36    1
    36     5     6    1
    37    13    12   ar
    38    13    19    1
    39    12    17    1
    40    36    37    1
    41    17    18    1
