@<TRIPOS>MOLECULE
mol_data/opt/cam/geoms/mol2/13ga.out
 11 11 0 0 0
SMALL
GASTEIGER

@<TRIPOS>ATOM
      1 C           1.0738   -0.3799   -0.0000 C.ar    1  LIG1        0.0149
      2 C           0.6622    0.9297    0.0000 C.ar    1  LIG1        0.0220
      3 C          -0.7603    0.9309    0.0004 C.ar    1  LIG1       -0.0312
      4 C          -1.1660   -0.3793   -0.0002 C.ar    1  LIG1        0.0027
      5 N          -0.0505   -1.1661    0.0002 N.ar    1  LIG1       -0.3660
      6 H          -0.0488   -2.1717    0.0003 H       1  LIG1        0.1648
      7 H          -2.1566   -0.8074   -0.0004 H       1  LIG1        0.0807
      8 H           2.0640   -0.8076   -0.0001 H       1  LIG1        0.0818
      9 S           1.7545    2.3258    0.0001 S.3     1  LIG1       -0.1412
     10 H           0.7936    3.2622   -0.0005 H       1  LIG1        0.1072
     11 H          -1.4049    1.7977    0.0007 H       1  LIG1        0.0643
@<TRIPOS>BOND
     1    10     9    1
     2     7     4    1
     3     4     5   ar
     4     4     3   ar
     5     8     1    1
     6     1     2   ar
     7     1     5   ar
     8     2     9    1
     9     2     3   ar
    10     5     6    1
    11     3    11    1
