@<TRIPOS>MOLECULE
mol_data/opt/cam/geoms/mol2/13ga13ga-13ga-13ga-.out
 38 41 0 0 0
SMALL
GASTEIGER

@<TRIPOS>ATOM
      1 C           1.0628   -0.2113   -0.1912 C.ar    1  LIG1        0.0154
      2 C           0.6758    0.9960    0.3385 C.ar    1  LIG1        0.0227
      3 C          -0.7414    0.9797    0.4531 C.ar    1  LIG1       -0.0218
      4 C          -1.1808   -0.2332   -0.0215 C.ar    1  LIG1        0.0650
      5 N          -0.0629   -0.9581   -0.3911 N.ar    1  LIG1       -0.3585
      6 H          -0.0971   -1.8244   -0.9028 H       1  LIG1        0.1654
      7 H           2.0470   -0.5819   -0.4323 H       1  LIG1        0.0818
      8 S           1.7845    2.2677    0.8748 S.3     1  LIG1       -0.1412
      9 H           1.6008    3.1236   -0.1477 H       1  LIG1        0.1072
     10 H          -1.3621    1.7623    0.8606 H       1  LIG1        0.0650
     11 C          -2.5077   -0.8088   -0.1340 C.ar    1  LIG1        0.0767
     12 C          -3.7325   -0.2717   -0.4800 C.ar    1  LIG1        0.0321
     13 C          -4.7006   -1.3109   -0.4068 C.ar    1  LIG1       -0.0211
     14 C          -4.0543   -2.4612   -0.0287 C.ar    1  LIG1        0.0655
     15 N          -2.7104   -2.1518    0.1108 N.ar    1  LIG1       -0.3510
     16 H          -2.0813   -2.6961    0.6812 H       1  LIG1        0.1660
     17 S          -4.0398    1.4168   -0.9086 S.3     1  LIG1       -0.1405
     18 H          -4.3206    1.2263   -2.2111 H       1  LIG1        0.1072
     19 H          -5.7519   -1.2209   -0.6302 H       1  LIG1        0.0650
     20 C          -4.5226   -3.8143    0.1910 C.ar    1  LIG1        0.0767
     21 C          -5.7387   -4.3320    0.5992 C.ar    1  LIG1        0.0321
     22 C          -5.6207   -5.7486    0.6296 C.ar    1  LIG1       -0.0211
     23 C          -4.3431   -6.0729    0.2516 C.ar    1  LIG1        0.0655
     24 N          -3.6712   -4.8844    0.0117 N.ar    1  LIG1       -0.3510
     25 H          -2.8472   -4.8311   -0.5676 H       1  LIG1        0.1660
     26 S          -7.1977   -3.4060    0.9798 S.3     1  LIG1       -0.1405
     27 H          -7.1058   -3.4481    2.3224 H       1  LIG1        0.1072
     28 H          -6.3913   -6.4457    0.9188 H       1  LIG1        0.0650
     29 C          -3.6596   -7.3453    0.1118 C.ar    1  LIG1        0.0762
     30 C          -4.0767   -8.5899   -0.3282 C.ar    1  LIG1        0.0315
     31 C          -2.9582   -9.4675   -0.2626 C.ar    1  LIG1       -0.0305
     32 C          -1.8947   -8.7452    0.2017 C.ar    1  LIG1        0.0033
     33 N          -2.3225   -7.4584    0.4139 N.ar    1  LIG1       -0.3586
     34 H          -1.7995   -6.7506    0.9032 H       1  LIG1        0.1654
     35 H          -0.8748   -9.0351    0.4018 H       1  LIG1        0.0807
     36 S          -5.7147   -9.0306   -0.8323 S.3     1  LIG1       -0.1405
     37 H          -5.5579   -8.8794   -2.1612 H       1  LIG1        0.1072
     38 H          -2.9582  -10.5116   -0.5372 H       1  LIG1        0.0644
@<TRIPOS>BOND
     1    18    17    1
     2    37    36    1
     3    17    12    1
     4     6     5    1
     5    36    30    1
     6    19    13    1
     7    25    24    1
     8    38    31    1
     9    12    13   ar
    10    12    11   ar
    11     7     1    1
    12    13    14   ar
    13     5     1   ar
    14     5     4   ar
    15    30    31   ar
    16    30    29   ar
    17    31    32   ar
    18     1     2   ar
    19     9     8    1
    20    11     4    1
    21    11    15   ar
    22    14    15   ar
    23    14    20    1
    24     4     3   ar
    25    24    20   ar
    26    24    23   ar
    27    15    16    1
    28    29    23    1
    29    29    33   ar
    30    20    21   ar
    31    32    35    1
    32    32    33   ar
    33    23    22   ar
    34     2     3   ar
    35     2     8    1
    36    33    34    1
    37     3    10    1
    38    21    22   ar
    39    21    26    1
    40    22    28    1
    41    26    27    1
