@<TRIPOS>MOLECULE
mol_data/opt/cam/geoms/mol2/13ga13ga13ga-.out
 29 31 0 0 0
SMALL
GASTEIGER

@<TRIPOS>ATOM
      1 C           1.0659   -0.1978   -0.0092 C.ar    1  LIG1        0.0154
      2 C           0.6438    0.9779   -0.5817 C.ar    1  LIG1        0.0227
      3 C          -0.7766    0.9437   -0.6347 C.ar    1  LIG1       -0.0218
      4 C          -1.1826   -0.2474   -0.0814 C.ar    1  LIG1        0.0650
      5 N          -0.0424   -0.9421    0.2770 N.ar    1  LIG1       -0.3585
      6 H          -0.0447   -1.7864    0.8254 H       1  LIG1        0.1654
      7 H           2.0632   -0.5481    0.2067 H       1  LIG1        0.0818
      8 S           1.7151    2.2313   -1.2264 S.3     1  LIG1       -0.1412
      9 H           1.5675    3.1340   -0.2388 H       1  LIG1        0.1072
     10 H          -1.4222    1.6996   -1.0535 H       1  LIG1        0.0650
     11 C          -2.4971   -0.8284    0.1170 C.ar    1  LIG1        0.0767
     12 C          -3.7169   -0.2822    0.4666 C.ar    1  LIG1        0.0321
     13 C          -4.6727   -1.3356    0.5003 C.ar    1  LIG1       -0.0211
     14 C          -4.0239   -2.5013    0.1831 C.ar    1  LIG1        0.0655
     15 N          -2.6899   -2.1877   -0.0257 N.ar    1  LIG1       -0.3510
     16 H          -2.0740   -2.7644   -0.5791 H       1  LIG1        0.1660
     17 S          -4.0352    1.4284    0.7855 S.3     1  LIG1       -0.1405
     18 H          -4.2451    1.3325    2.1118 H       1  LIG1        0.1072
     19 H          -5.7174   -1.2424    0.7521 H       1  LIG1        0.0650
     20 C          -4.4822   -3.8741    0.0770 C.ar    1  LIG1        0.0762
     21 C          -5.6779   -4.4344   -0.3399 C.ar    1  LIG1        0.0315
     22 C          -5.5478   -5.8484   -0.2453 C.ar    1  LIG1       -0.0305
     23 C          -4.2883   -6.1162    0.2133 C.ar    1  LIG1        0.0033
     24 N          -3.6451   -4.9176    0.3948 N.ar    1  LIG1       -0.3586
     25 H          -2.7616   -4.8025    0.8638 H       1  LIG1        0.1654
     26 H          -3.7963   -7.0523    0.4276 H       1  LIG1        0.0807
     27 S          -7.1291   -3.5591   -0.8490 S.3     1  LIG1       -0.1405
     28 H          -6.9125   -3.5747   -2.1781 H       1  LIG1        0.1072
     29 H          -6.3096   -6.5704   -0.4980 H       1  LIG1        0.0644
@<TRIPOS>BOND
     1    28    27    1
     2     8     2    1
     3     8     9    1
     4    10     3    1
     5    27    21    1
     6     3     2   ar
     7     3     4   ar
     8     2     1   ar
     9    16    15    1
    10    29    22    1
    11    21    22   ar
    12    21    20   ar
    13    22    23   ar
    14     4    11    1
    15     4     5   ar
    16    15    11   ar
    17    15    14   ar
    18     1     7    1
    19     1     5   ar
    20    20    14    1
    21    20    24   ar
    22    11    12   ar
    23    14    13   ar
    24    23    24   ar
    25    23    26    1
    26     5     6    1
    27    24    25    1
    28    12    13   ar
    29    12    17    1
    30    13    19    1
    31    17    18    1
