@<TRIPOS>MOLECULE
mol_data/opt/cam/geoms/mol2/13ga13ga13ga.out
 29 31 0 0 0
SMALL
GASTEIGER

@<TRIPOS>ATOM
      1 C           1.0661   -0.1983   -0.0283 C.ar    1  LIG1        0.0154
      2 C           0.6392    0.9827   -0.5860 C.ar    1  LIG1        0.0227
      3 C          -0.7816    0.9492   -0.6268 C.ar    1  LIG1       -0.0218
      4 C          -1.1830   -0.2470   -0.0812 C.ar    1  LIG1        0.0650
      5 N          -0.0398   -0.9452    0.2606 N.ar    1  LIG1       -0.3585
      6 H          -0.0374   -1.7946    0.8010 H       1  LIG1        0.1654
      7 H           2.0652   -0.5508    0.1755 H       1  LIG1        0.0818
      8 S           1.7050    2.2420   -1.2282 S.3     1  LIG1       -0.1412
      9 H           1.5663    3.1354   -0.2308 H       1  LIG1        0.1072
     10 H          -1.4307    1.7091   -1.0328 H       1  LIG1        0.0650
     11 C          -2.4958   -0.8297    0.1233 C.ar    1  LIG1        0.0767
     12 C          -3.7124   -0.2867    0.4887 C.ar    1  LIG1        0.0321
     13 C          -4.6680   -1.3402    0.5209 C.ar    1  LIG1       -0.0211
     14 C          -4.0223   -2.5029    0.1870 C.ar    1  LIG1        0.0655
     15 N          -2.6901   -2.1875   -0.0306 N.ar    1  LIG1       -0.3510
     16 H          -2.0792   -2.7590   -0.5947 H       1  LIG1        0.1660
     17 S          -4.0275    1.4209    0.8266 S.3     1  LIG1       -0.1405
     18 H          -4.2257    1.3125    2.1537 H       1  LIG1        0.1072
     19 H          -5.7104   -1.2493    0.7827 H       1  LIG1        0.0650
     20 C          -4.4818   -3.8746    0.0720 C.ar    1  LIG1        0.0762
     21 C          -5.6812   -4.4308   -0.3397 C.ar    1  LIG1        0.0315
     22 C          -5.5506   -5.8457   -0.2596 C.ar    1  LIG1       -0.0305
     23 C          -4.2871   -6.1180    0.1854 C.ar    1  LIG1        0.0033
     24 N          -3.6421   -4.9211    0.3725 N.ar    1  LIG1       -0.3586
     25 H          -2.7545   -4.8106    0.8348 H       1  LIG1        0.1654
     26 H          -3.7934   -7.0561    0.3865 H       1  LIG1        0.0807
     27 S          -7.1367   -3.5506   -0.8277 S.3     1  LIG1       -0.1405
     28 H          -6.9318   -3.5536   -2.1587 H       1  LIG1        0.1072
     29 H          -6.3147   -6.5651   -0.5123 H       1  LIG1        0.0644
@<TRIPOS>BOND
     1    28    27    1
     2     8     2    1
     3     8     9    1
     4    10     3    1
     5    27    21    1
     6     3     2   ar
     7     3     4   ar
     8    16    15    1
     9     2     1   ar
    10    29    22    1
    11    21    22   ar
    12    21    20   ar
    13    22    23   ar
    14     4    11    1
    15     4     5   ar
    16    15    11   ar
    17    15    14   ar
    18     1     7    1
    19     1     5   ar
    20    20    14    1
    21    20    24   ar
    22    11    12   ar
    23    23    24   ar
    24    23    26    1
    25    14    13   ar
    26     5     6    1
    27    24    25    1
    28    12    13   ar
    29    12    17    1
    30    13    19    1
    31    17    18    1
