@<TRIPOS>MOLECULE
mol_data/opt/cam/geoms/mol2/13ga13ga-13ga13ga-.out
 38 41 0 0 0
SMALL
GASTEIGER

@<TRIPOS>ATOM
      1 C           0.5761    0.1605   -1.5949 C.ar    1  LIG1        0.0154
      2 C           0.7987    0.8569   -0.4317 C.ar    1  LIG1        0.0227
      3 C          -0.3001    0.6054    0.4353 C.ar    1  LIG1       -0.0218
      4 C          -1.1677   -0.2283   -0.2273 C.ar    1  LIG1        0.0650
      5 N          -0.6071   -0.5079   -1.4603 N.ar    1  LIG1       -0.3585
      6 H          -1.0911   -0.9741   -2.2106 H       1  LIG1        0.1654
      7 H           1.1714    0.0965   -2.4925 H       1  LIG1        0.0818
      8 S           2.2581    1.7940   -0.0758 S.3     1  LIG1       -0.1412
      9 H           1.7372    3.0250   -0.2348 H       1  LIG1        0.1072
     10 H          -0.4254    0.9786    1.4398 H       1  LIG1        0.0650
     11 C          -2.4318   -0.8256    0.1696 C.ar    1  LIG1        0.0767
     12 C          -3.5470   -0.3144    0.8117 C.ar    1  LIG1        0.0321
     13 C          -4.5040   -1.3576    0.9163 C.ar    1  LIG1       -0.0211
     14 C          -3.9705   -2.4796    0.3303 C.ar    1  LIG1        0.0655
     15 N          -2.7073   -2.1417   -0.1122 N.ar    1  LIG1       -0.3510
     16 H          -2.0714   -2.7684   -0.5790 H       1  LIG1        0.1660
     17 S          -3.7177    1.3294    1.4440 S.3     1  LIG1       -0.1405
     18 H          -4.5579    1.8032    0.5050 H       1  LIG1        0.1072
     19 H          -5.4743   -1.2896    1.3831 H       1  LIG1        0.0650
     20 C          -4.4854   -3.8294    0.1749 C.ar    1  LIG1        0.0767
     21 C          -5.7125   -4.3161   -0.2420 C.ar    1  LIG1        0.0321
     22 C          -5.6495   -5.7339   -0.2161 C.ar    1  LIG1       -0.0211
     23 C          -4.3901   -6.0916    0.2003 C.ar    1  LIG1        0.0655
     24 N          -3.6961   -4.9235    0.4395 N.ar    1  LIG1       -0.3510
     25 H          -2.7514   -4.8772    0.7866 H       1  LIG1        0.1660
     26 S          -7.1210   -3.3341   -0.6689 S.3     1  LIG1       -0.1405
     27 H          -7.1295   -3.5916   -1.9901 H       1  LIG1        0.1072
     28 H          -6.4477   -6.4147   -0.4674 H       1  LIG1        0.0650
     29 C          -3.7779   -7.3887    0.4361 C.ar    1  LIG1        0.0762
     30 C          -3.7822   -8.5661   -0.2901 C.ar    1  LIG1        0.0315
     31 C          -3.0024   -9.5178    0.4257 C.ar    1  LIG1       -0.0305
     32 C          -2.5371   -8.9014    1.5536 C.ar    1  LIG1        0.0033
     33 N          -3.0010   -7.6105    1.5499 N.ar    1  LIG1       -0.3586
     34 H          -2.9522   -6.9809    2.3348 H       1  LIG1        0.1654
     35 H          -1.9210   -9.2709    2.3588 H       1  LIG1        0.0807
     36 S          -4.6408   -8.8468   -1.8115 S.3     1  LIG1       -0.1405
     37 H          -3.5825   -8.7858   -2.6418 H       1  LIG1        0.1072
     38 H          -2.8126  -10.5368    0.1237 H       1  LIG1        0.0644
@<TRIPOS>BOND
     1    37    36    1
     2     7     1    1
     3     6     5    1
     4    27    26    1
     5    36    30    1
     6     1     5   ar
     7     1     2   ar
     8     5     4   ar
     9    26    21    1
    10    16    15    1
    11    28    22    1
    12     2     8    1
    13     2     3   ar
    14    30    31   ar
    15    30    29   ar
    16    21    22   ar
    17    21    20   ar
    18     9     8    1
    19     4    11    1
    20     4     3   ar
    21    22    23   ar
    22    15    11   ar
    23    15    14   ar
    24    38    31    1
    25    11    12   ar
    26    20    14    1
    27    20    24   ar
    28    23    29    1
    29    23    24   ar
    30    14    13   ar
    31    31    32   ar
    32     3    10    1
    33    29    33   ar
    34    24    25    1
    35    18    17    1
    36    12    13   ar
    37    12    17    1
    38    13    19    1
    39    33    32   ar
    40    33    34    1
    41    32    35    1
