@<TRIPOS>MOLECULE
mol_data/opt/cam/geoms/mol2/13ga13ga-13ga13ga.out
 38 41 0 0 0
SMALL
GASTEIGER

@<TRIPOS>ATOM
      1 C           1.0683   -0.2149    0.1200 C.ar    1  LIG1        0.0154
      2 C           0.6685    0.9984   -0.3859 C.ar    1  LIG1        0.0227
      3 C          -0.7512    0.9839   -0.4640 C.ar    1  LIG1       -0.0218
      4 C          -1.1790   -0.2341    0.0081 C.ar    1  LIG1        0.0650
      5 N          -0.0523   -0.9635    0.3405 N.ar    1  LIG1       -0.3585
      6 H          -0.0738   -1.8355    0.8431 H       1  LIG1        0.1654
      7 H           2.0582   -0.5885    0.3313 H       1  LIG1        0.0818
      8 S           1.7637    2.2758   -0.9365 S.3     1  LIG1       -0.1412
      9 H           1.6070    3.1202    0.1000 H       1  LIG1        0.1072
     10 H          -1.3817    1.7712   -0.8465 H       1  LIG1        0.0650
     11 C          -2.5028   -0.8105    0.1484 C.ar    1  LIG1        0.0767
     12 C          -3.7180   -0.2769    0.5321 C.ar    1  LIG1        0.0321
     13 C          -4.6883   -1.3149    0.4722 C.ar    1  LIG1       -0.0211
     14 C          -4.0527   -2.4611    0.0646 C.ar    1  LIG1        0.0655
     15 N          -2.7127   -2.1506   -0.1061 N.ar    1  LIG1       -0.3510
     16 H          -2.0989   -2.6887   -0.6987 H       1  LIG1        0.1660
     17 S          -4.0130    1.4067    0.9874 S.3     1  LIG1       -0.1405
     18 H          -4.2602    1.2016    2.2945 H       1  LIG1        0.1072
     19 H          -5.7334   -1.2271    0.7237 H       1  LIG1        0.0650
     20 C          -4.5273   -3.8115   -0.1581 C.ar    1  LIG1        0.0767
     21 C          -5.7540   -4.3242   -0.5406 C.ar    1  LIG1        0.0321
     22 C          -5.6376   -5.7404   -0.5899 C.ar    1  LIG1       -0.0211
     23 C          -4.3509   -6.0693   -0.2488 C.ar    1  LIG1        0.0655
     24 N          -3.6722   -4.8838   -0.0129 N.ar    1  LIG1       -0.3510
     25 H          -2.8335   -4.8373    0.5453 H       1  LIG1        0.1660
     26 S          -7.2217   -3.3935   -0.8728 S.3     1  LIG1       -0.1405
     27 H          -7.1647   -3.4206   -2.2177 H       1  LIG1        0.1072
     28 H          -6.4159   -6.4340   -0.8669 H       1  LIG1        0.0650
     29 C          -3.6647   -7.3435   -0.1410 C.ar    1  LIG1        0.0762
     30 C          -4.0711   -8.5928    0.2956 C.ar    1  LIG1        0.0315
     31 C          -2.9552   -9.4700    0.1913 C.ar    1  LIG1       -0.0305
     32 C          -1.9037   -8.7428   -0.2923 C.ar    1  LIG1        0.0033
     33 N          -2.3360   -7.4536   -0.4788 N.ar    1  LIG1       -0.3586
     34 H          -1.8254   -6.7405   -0.9735 H       1  LIG1        0.1654
     35 H          -0.8894   -9.0308   -0.5220 H       1  LIG1        0.0807
     36 S          -5.6958   -9.0386    0.8369 S.3     1  LIG1       -0.1405
     37 H          -5.5046   -8.9024    2.1629 H       1  LIG1        0.1072
     38 H          -2.9488  -10.5171    0.4540 H       1  LIG1        0.0644
@<TRIPOS>BOND
     1    27    26    1
     2    34    33    1
     3     8     2    1
     4     8     9    1
     5    26    21    1
     6    28    22    1
     7    10     3    1
     8    16    15    1
     9    22    21   ar
    10    22    23   ar
    11    21    20   ar
    12    35    32    1
    13    33    32   ar
    14    33    29   ar
    15     3     2   ar
    16     3     4   ar
    17     2     1   ar
    18    32    31   ar
    19    23    29    1
    20    23    24   ar
    21    20    24   ar
    22    20    14    1
    23    29    30   ar
    24    15    14   ar
    25    15    11   ar
    26    24    25    1
    27     4    11    1
    28     4     5   ar
    29    14    13   ar
    30     1     7    1
    31     1     5   ar
    32    11    12   ar
    33    31    30   ar
    34    31    38    1
    35    30    36    1
    36     5     6    1
    37    13    12   ar
    38    13    19    1
    39    12    17    1
    40    36    37    1
    41    17    18    1
