@<TRIPOS>MOLECULE
mol_data/opt/cam/geoms/mol2/13ga13ga-13ga-.out
 29 31 0 0 0
SMALL
GASTEIGER

@<TRIPOS>ATOM
      1 C           1.0657   -0.1971    0.0013 C.ar    1  LIG1        0.0154
      2 C           0.6450    0.9737    0.5845 C.ar    1  LIG1        0.0227
      3 C          -0.7752    0.9389    0.6416 C.ar    1  LIG1       -0.0218
      4 C          -1.1827   -0.2478    0.0798 C.ar    1  LIG1        0.0650
      5 N          -0.0434   -0.9394   -0.2877 N.ar    1  LIG1       -0.3585
      6 H          -0.0472   -1.7791   -0.8428 H       1  LIG1        0.1654
      7 H           2.0624   -0.5455   -0.2204 H       1  LIG1        0.0818
      8 S           1.7180    2.2221    1.2362 S.3     1  LIG1       -0.1412
      9 H           1.5673    3.1327    0.2563 H       1  LIG1        0.1072
     10 H          -1.4197    1.6912    1.0684 H       1  LIG1        0.0650
     11 C          -2.4977   -0.8274   -0.1194 C.ar    1  LIG1        0.0767
     12 C          -3.7186   -0.2787   -0.4608 C.ar    1  LIG1        0.0321
     13 C          -4.6743   -1.3319   -0.5002 C.ar    1  LIG1       -0.0211
     14 C          -4.0243   -2.5000   -0.1945 C.ar    1  LIG1        0.0655
     15 N          -2.6898   -2.1878    0.0129 N.ar    1  LIG1       -0.3510
     16 H          -2.0721   -2.7689    0.5597 H       1  LIG1        0.1660
     17 S          -4.0381    1.4344   -0.7650 S.3     1  LIG1       -0.1405
     18 H          -4.2519    1.3493   -2.0913 H       1  LIG1        0.1072
     19 H          -5.7197   -1.2369   -0.7481 H       1  LIG1        0.0650
     20 C          -4.4821   -3.8737   -0.0981 C.ar    1  LIG1        0.0762
     21 C          -5.6764   -4.4376    0.3178 C.ar    1  LIG1        0.0315
     22 C          -5.5464   -5.8508    0.2114 C.ar    1  LIG1       -0.0305
     23 C          -4.2882   -6.1146   -0.2531 C.ar    1  LIG1        0.0033
     24 N          -3.6457   -4.9144   -0.4268 N.ar    1  LIG1       -0.3586
     25 H          -2.7637   -4.7953   -0.8976 H       1  LIG1        0.1654
     26 H          -3.7967   -7.0488   -0.4765 H       1  LIG1        0.0807
     27 S          -7.1263   -3.5668    0.8384 S.3     1  LIG1       -0.1405
     28 H          -6.9057   -3.5931    2.1666 H       1  LIG1        0.1072
     29 H          -6.3073   -6.5749    0.4605 H       1  LIG1        0.0644
@<TRIPOS>BOND
     1    18    17    1
     2    25    24    1
     3     6     5    1
     4    17    12    1
     5    19    13    1
     6    13    12   ar
     7    13    14   ar
     8    26    23    1
     9    12    11   ar
    10    24    23   ar
    11    24    20   ar
    12     5     1   ar
    13     5     4   ar
    14    23    22   ar
    15     7     1    1
    16    14    20    1
    17    14    15   ar
    18    11    15   ar
    19    11     4    1
    20    20    21   ar
    21     1     2   ar
    22    15    16    1
    23     4     3   ar
    24    22    21   ar
    25    22    29    1
    26     9     8    1
    27    21    27    1
    28     2     3   ar
    29     2     8    1
    30     3    10    1
    31    27    28    1
