@<TRIPOS>MOLECULE
mol_data/opt/cam/geoms/mol2/13gd13gd13gd13gd.out
 42 45 0 0 0
SMALL
GASTEIGER

@<TRIPOS>ATOM
      1 C           1.1629   -0.0085    0.2494 C.ar    1  LIG1        0.0167
      2 C           0.7418    1.1196   -0.4016 C.ar    1  LIG1        0.0401
      3 C          -0.6816    1.0208   -0.5246 C.ar    1  LIG1        0.0915
      4 C          -1.0752   -0.1643    0.0731 C.ar    1  LIG1        0.0827
      5 N           0.0654   -0.7839    0.5137 N.ar    1  LIG1       -0.3574
      6 H           0.0674   -1.6073    1.0942 H       1  LIG1        0.1654
      7 H           2.1574   -0.3087    0.5395 H       1  LIG1        0.0818
      8 S           1.8027    2.3625   -1.0681 S.3     1  LIG1       -0.1399
      9 H           1.2846    3.4073   -0.3984 H       1  LIG1        0.1072
     10 N          -2.2231    2.7078   -1.7175 N.1     1  LIG1       -0.1908
     11 C          -1.5366    1.9463   -1.1809 C.1     1  LIG1        0.1024
     12 C          -2.3864   -0.7635    0.2475 C.ar    1  LIG1        0.0793
     13 C          -3.5501   -0.2690    0.7893 C.ar    1  LIG1        0.0496
     14 C          -4.5180   -1.3228    0.7301 C.ar    1  LIG1        0.0922
     15 C          -3.9183   -2.4263    0.1457 C.ar    1  LIG1        0.0831
     16 N          -2.6210   -2.0814   -0.1185 N.ar    1  LIG1       -0.3499
     17 H          -2.0432   -2.5794   -0.7787 H       1  LIG1        0.1661
     18 S          -3.7846    1.3479    1.4410 S.3     1  LIG1       -0.1393
     19 H          -4.7285    0.9931    2.3303 H       1  LIG1        0.1072
     20 N          -6.8601   -1.1852    1.7942 N.1     1  LIG1       -0.1908
     21 C          -5.8182   -1.2666    1.2963 C.1     1  LIG1        0.1025
     22 C          -4.4291   -3.7439   -0.1702 C.ar    1  LIG1        0.0793
     23 C          -5.6173   -4.1602   -0.7316 C.ar    1  LIG1        0.0496
     24 C          -5.5414   -5.5851   -0.8496 C.ar    1  LIG1        0.0922
     25 C          -4.3151   -5.9962   -0.3578 C.ar    1  LIG1        0.0831
     26 N          -3.6414   -4.8699    0.0276 N.ar    1  LIG1       -0.3499
     27 H          -2.8617   -4.8925    0.6675 H       1  LIG1        0.1661
     28 S          -6.9546   -3.1366   -1.2377 S.3     1  LIG1       -0.1393
     29 H          -7.3652   -3.9504   -2.2262 H       1  LIG1        0.1072
     30 N          -7.3199   -7.0498   -2.0033 N.1     1  LIG1       -0.1908
     31 C          -6.5149   -6.4108   -1.4710 C.1     1  LIG1        0.1025
     32 C          -3.7287   -7.3156   -0.2235 C.ar    1  LIG1        0.0788
     33 C          -4.2226   -8.4883    0.3091 C.ar    1  LIG1        0.0489
     34 C          -3.1693   -9.4538    0.2249 C.ar    1  LIG1        0.0828
     35 C          -2.0782   -8.8382   -0.3489 C.ar    1  LIG1        0.0208
     36 N          -2.4184   -7.5536   -0.6085 N.ar    1  LIG1       -0.3574
     37 H          -1.8660   -6.9121   -1.1546 H       1  LIG1        0.1654
     38 H          -1.1051   -9.2380   -0.5872 H       1  LIG1        0.0820
     39 S          -5.8388   -8.7366    0.9589 S.3     1  LIG1       -0.1393
     40 H          -5.4709   -9.6534    1.8706 H       1  LIG1        0.1072
     41 N          -3.2872  -11.8787    1.0915 N.1     1  LIG1       -0.1908
     42 C          -3.2240  -10.7949    0.6908 C.1     1  LIG1        0.1018
@<TRIPOS>BOND
     1    29    28    1
     2    30    31    3
     3    10    11    3
     4    31    24    1
     5    28    23    1
     6    11     3    1
     7    37    36    1
     8     8     2    1
     9     8     9    1
    10    24    23   ar
    11    24    25   ar
    12    17    16    1
    13    23    22   ar
    14    36    35   ar
    15    36    32   ar
    16    38    35    1
    17     3     2   ar
    18     3     4   ar
    19     2     1   ar
    20    25    32    1
    21    25    26   ar
    22    35    34   ar
    23    32    33   ar
    24    22    26   ar
    25    22    15    1
    26    16    15   ar
    27    16    12   ar
    28    26    27    1
    29     4    12    1
    30     4     5   ar
    31    15    14   ar
    32    34    33   ar
    33    34    42    1
    34    12    13   ar
    35     1     5   ar
    36     1     7    1
    37    33    39    1
    38     5     6    1
    39    42    41    3
    40    14    13   ar
    41    14    21    1
    42    13    18    1
    43    39    40    1
    44    21    20    3
    45    18    19    1
