@<TRIPOS>MOLECULE
mol_data/opt/cam/geoms/mol2/13gd.out
 12 12 0 0 0
SMALL
GASTEIGER

@<TRIPOS>ATOM
      1 C           1.1000   -0.4068   -0.0002 C.ar    1  LIG1        0.0162
      2 C           0.7007    0.9028    0.0001 C.ar    1  LIG1        0.0395
      3 C          -0.7320    0.8966    0.0003 C.ar    1  LIG1        0.0821
      4 C          -1.1414   -0.4216    0.0003 C.ar    1  LIG1        0.0203
      5 N          -0.0292   -1.1931   -0.0000 N.ar    1  LIG1       -0.3649
      6 H          -0.0274   -2.1998   -0.0002 H       1  LIG1        0.1648
      7 H          -2.1361   -0.8381    0.0005 H       1  LIG1        0.0820
      8 H           2.0881   -0.8384   -0.0004 H       1  LIG1        0.0818
      9 S           1.7692    2.3066    0.0002 S.3     1  LIG1       -0.1399
     10 H           0.7876    3.2239    0.0002 H       1  LIG1        0.1072
     11 N          -2.2146    3.0042    0.0008 N.1     1  LIG1       -0.1908
     12 C          -1.5693    2.0424    0.0005 C.1     1  LIG1        0.1017
@<TRIPOS>BOND
     1     8     1    1
     2     6     5    1
     3     1     5   ar
     4     1     2   ar
     5     5     4   ar
     6     2     9    1
     7     2     3   ar
     8     9    10    1
     9     3     4   ar
    10     3    12    1
    11     4     7    1
    12    12    11    3
