@<TRIPOS>MOLECULE
mol_data/opt/cam/geoms/mol2/13gd13gd-13gd13gd-.out
 42 45 0 0 0
SMALL
GASTEIGER

@<TRIPOS>ATOM
      1 C          -0.8324    2.5302   -0.9737 C.ar    1  LIG1        0.0167
      2 C          -0.8031    1.9386   -2.2089 C.ar    1  LIG1        0.0401
      3 C          -1.3114    0.6130   -2.0378 C.ar    1  LIG1        0.0915
      4 C          -1.6262    0.4501   -0.6911 C.ar    1  LIG1        0.0827
      5 N          -1.3314    1.6306   -0.0762 N.ar    1  LIG1       -0.3574
      6 H          -1.4428    1.7722    0.9199 H       1  LIG1        0.1654
      7 H          -0.5352    3.5238   -0.6776 H       1  LIG1        0.0818
      8 S          -0.3316    2.7255   -3.7169 S.3     1  LIG1       -0.1399
      9 H           0.8107    2.0451   -3.9246 H       1  LIG1        0.1072
     10 N          -1.5798   -1.2413   -3.8046 N.1     1  LIG1       -0.1908
     11 C          -1.4498   -0.3827   -3.0367 C.1     1  LIG1        0.1024
     12 C          -2.1619   -0.6931    0.0220 C.ar    1  LIG1        0.0793
     13 C          -2.3468   -0.9316    1.3733 C.ar    1  LIG1        0.0496
     14 C          -2.8898   -2.2439    1.4959 C.ar    1  LIG1        0.0922
     15 C          -3.0317   -2.7655    0.2137 C.ar    1  LIG1        0.0831
     16 N          -2.5810   -1.8151   -0.6482 N.ar    1  LIG1       -0.3499
     17 H          -2.6252   -1.9167   -1.6567 H       1  LIG1        0.1661
     18 S          -1.9114    0.1296    2.7188 S.3     1  LIG1       -0.1393
     19 H          -3.1591    0.4378    3.1201 H       1  LIG1        0.1072
     20 N          -3.5707   -3.4571    3.6634 N.1     1  LIG1       -0.1908
     21 C          -3.2568   -2.8939    2.7007 C.1     1  LIG1        0.1025
     22 C          -3.5370   -4.0483   -0.2308 C.ar    1  LIG1        0.0793
     23 C          -3.9736   -4.4754   -1.4733 C.ar    1  LIG1        0.0496
     24 C          -4.3815   -5.8312   -1.3207 C.ar    1  LIG1        0.0922
     25 C          -4.1703   -6.1973    0.0067 C.ar    1  LIG1        0.0831
     26 N          -3.6646   -5.1050    0.6375 N.ar    1  LIG1       -0.3499
     27 H          -3.3861   -5.1220    1.6153 H       1  LIG1        0.1661
     28 S          -4.1430   -3.5003   -2.9380 S.3     1  LIG1       -0.1393
     29 H          -2.9886   -3.8446   -3.5393 H       1  LIG1        0.1072
     30 N          -5.3688   -7.4469   -3.0640 N.1     1  LIG1       -0.1908
     31 C          -4.9192   -6.6823   -2.3178 C.1     1  LIG1        0.1025
     32 C          -4.4138   -7.4545    0.6862 C.ar    1  LIG1        0.0788
     33 C          -4.1489   -7.8597    1.9849 C.ar    1  LIG1        0.0489
     34 C          -4.6117   -9.2047    2.1039 C.ar    1  LIG1        0.0828
     35 C          -5.1438   -9.5660    0.8852 C.ar    1  LIG1        0.0208
     36 N          -5.0176   -8.5115    0.0454 N.ar    1  LIG1       -0.3574
     37 H          -5.3166   -8.5033   -0.9213 H       1  LIG1        0.1654
     38 H          -5.5952  -10.4942    0.5721 H       1  LIG1        0.0820
     39 S          -3.2835   -6.9425    3.2247 S.3     1  LIG1       -0.1393
     40 H          -4.3455   -6.4644    3.8996 H       1  LIG1        0.1072
     41 N          -4.5039  -10.7001    4.2018 N.1     1  LIG1       -0.1908
     42 C          -4.5482  -10.0281    3.2612 C.1     1  LIG1        0.1018
@<TRIPOS>BOND
     1     9     8    1
     2    10    11    3
     3     8     2    1
     4    29    28    1
     5    30    31    3
     6    11     3    1
     7    28    23    1
     8    31    24    1
     9     2     3   ar
    10     2     1   ar
    11     3     4   ar
    12    17    16    1
    13    23    24   ar
    14    23    22   ar
    15    24    25   ar
    16     1     7    1
    17     1     5   ar
    18    37    36    1
    19     4     5   ar
    20     4    12    1
    21    16    12   ar
    22    16    15   ar
    23    22    15    1
    24    22    26   ar
    25     5     6    1
    26    25    26   ar
    27    25    32    1
    28    12    13   ar
    29    36    32   ar
    30    36    35   ar
    31    15    14   ar
    32    38    35    1
    33    26    27    1
    34    32    33   ar
    35    35    34   ar
    36    13    14   ar
    37    13    18    1
    38    14    21    1
    39    33    34   ar
    40    33    39    1
    41    34    42    1
    42    21    20    3
    43    18    19    1
    44    39    40    1
    45    42    41    3
