@<TRIPOS>MOLECULE
mol_data/opt/cam/geoms/mol2/13gd13gd-13gd13gd.out
 42 45 0 0 0
SMALL
GASTEIGER

@<TRIPOS>ATOM
      1 C           0.2951    1.5145    0.2099 C.ar    1  LIG1        0.0167
      2 C           0.8291    0.3286    0.6412 C.ar    1  LIG1        0.0401
      3 C          -0.1846   -0.6624    0.4569 C.ar    1  LIG1        0.0915
      4 C          -1.3080   -0.0287   -0.0703 C.ar    1  LIG1        0.0827
      5 N          -0.9845    1.2859   -0.2125 N.ar    1  LIG1       -0.3574
      6 H          -1.6169    1.9642   -0.6186 H       1  LIG1        0.1654
      7 H           0.7378    2.4974    0.1753 H       1  LIG1        0.0818
      8 S           2.4873    0.0810    1.1937 S.3     1  LIG1       -0.1399
      9 H           2.2163   -0.1037    2.4989 H       1  LIG1        0.1072
     10 N          -0.1882   -3.1994    0.8817 N.1     1  LIG1       -0.1908
     11 C          -0.1155   -2.0540    0.7128 C.1     1  LIG1        0.1024
     12 C          -2.5930   -0.5833   -0.4447 C.ar    1  LIG1        0.0793
     13 C          -3.6532   -0.0748   -1.1723 C.ar    1  LIG1        0.0496
     14 C          -4.6348   -1.1091   -1.2715 C.ar    1  LIG1        0.0922
     15 C          -4.1509   -2.2155   -0.5889 C.ar    1  LIG1        0.0831
     16 N          -2.9235   -1.8706   -0.1005 N.ar    1  LIG1       -0.3499
     17 H          -2.3722   -2.4492    0.5189 H       1  LIG1        0.1661
     18 S          -3.8121    1.5692   -1.8012 S.3     1  LIG1       -0.1393
     19 H          -3.5569    1.3074   -3.0970 H       1  LIG1        0.1072
     20 N          -6.7760   -0.9651   -2.6976 N.1     1  LIG1       -0.1908
     21 C          -5.8266   -1.0369   -2.0398 C.1     1  LIG1        0.1025
     22 C          -4.6693   -3.5496   -0.3689 C.ar    1  LIG1        0.0793
     23 C          -5.9325   -4.0239   -0.0781 C.ar    1  LIG1        0.0496
     24 C          -5.8098   -5.4336    0.1177 C.ar    1  LIG1        0.0922
     25 C          -4.4758   -5.7780   -0.0359 C.ar    1  LIG1        0.0831
     26 N          -3.8056   -4.6328   -0.3450 N.ar    1  LIG1       -0.3499
     27 H          -2.8033   -4.5766   -0.4554 H       1  LIG1        0.1661
     28 S          -7.4139   -3.0793    0.0295 S.3     1  LIG1       -0.1393
     29 H          -7.9743   -3.8454    0.9816 H       1  LIG1        0.1072
     30 N          -7.7716   -7.0257    0.6241 N.1     1  LIG1       -0.1908
     31 C          -6.8790   -6.3252    0.3948 C.1     1  LIG1        0.1025
     32 C          -3.7998   -7.0594    0.0537 C.ar    1  LIG1        0.0788
     33 C          -3.8165   -8.0366    1.0261 C.ar    1  LIG1        0.0489
     34 C          -2.9077   -9.0568    0.6007 C.ar    1  LIG1        0.0828
     35 C          -2.3693   -8.6632   -0.6050 C.ar    1  LIG1        0.0208
     36 N          -2.9080   -7.4628   -0.9253 N.ar    1  LIG1       -0.3574
     37 H          -2.7870   -6.9967   -1.8106 H       1  LIG1        0.1654
     38 H          -1.6549   -9.1628   -1.2401 H       1  LIG1        0.0820
     39 S          -4.7833   -8.0258    2.4987 S.3     1  LIG1       -0.1393
     40 H          -3.8272   -8.5458    3.2882 H       1  LIG1        0.1072
     41 N          -2.3234  -11.1983    1.9116 N.1     1  LIG1       -0.1908
     42 C          -2.5846  -10.2436    1.3121 C.1     1  LIG1        0.1018
@<TRIPOS>BOND
     1    19    18    1
     2    20    21    3
     3    21    14    1
     4    37    36    1
     5    18    13    1
     6    14    13   ar
     7    14    15   ar
     8    38    35    1
     9    13    12   ar
    10    36    35   ar
    11    36    32   ar
    12     6     5    1
    13    35    34   ar
    14    15    22    1
    15    15    16   ar
    16    27    26    1
    17    12    16   ar
    18    12     4    1
    19    22    26   ar
    20    22    23   ar
    21    26    25   ar
    22     5     4   ar
    23     5     1   ar
    24    16    17    1
    25    23    28    1
    26    23    24   ar
    27     4     3   ar
    28    25    32    1
    29    25    24   ar
    30    28    29    1
    31    32    33   ar
    32    24    31    1
    33     7     1    1
    34     1     2   ar
    35    31    30    3
    36     3     2   ar
    37     3    11    1
    38    34    33   ar
    39    34    42    1
    40     2     8    1
    41    11    10    3
    42    33    39    1
    43     8     9    1
    44    42    41    3
    45    39    40    1
