@<TRIPOS>MOLECULE
mol_data/opt/cam/geoms/mol2/13gd13gd.out
 22 23 0 0 0
SMALL
GASTEIGER

@<TRIPOS>ATOM
      1 C           1.0651   -0.2404    0.5980 C.ar    1  LIG1        0.0167
      2 C           0.7916    0.9662    0.0122 C.ar    1  LIG1        0.0401
      3 C          -0.5870    0.9365   -0.3745 C.ar    1  LIG1        0.0915
      4 C          -1.1054   -0.2889    0.0065 C.ar    1  LIG1        0.0827
      5 N          -0.0773   -0.9947    0.5747 N.ar    1  LIG1       -0.3574
      6 H          -0.1949   -1.8795    1.0426 H       1  LIG1        0.1654
      7 H           1.9845   -0.6094    1.0246 H       1  LIG1        0.0818
      8 S           1.9791    2.2320   -0.3083 S.3     1  LIG1       -0.1399
      9 H           1.3876    3.2089    0.4022 H       1  LIG1        0.1072
     10 N          -1.8618    2.7969   -1.6232 N.1     1  LIG1       -0.1908
     11 C          -1.2937    1.9586   -1.0631 C.1     1  LIG1        0.1024
     12 C          -2.4371   -0.8549   -0.1279 C.ar    1  LIG1        0.0788
     13 C          -3.6746   -0.3854    0.2549 C.ar    1  LIG1        0.0489
     14 C          -4.6273   -1.3940   -0.0979 C.ar    1  LIG1        0.0828
     15 C          -3.9381   -2.4383   -0.6749 C.ar    1  LIG1        0.0208
     16 N          -2.6245   -2.1078   -0.6870 N.ar    1  LIG1       -0.3574
     17 H          -1.9036   -2.6267   -1.1630 H       1  LIG1        0.1654
     18 H          -4.3027   -3.3723   -1.0727 H       1  LIG1        0.0820
     19 S          -4.0039    1.1724    1.0083 S.3     1  LIG1       -0.1393
     20 H          -4.9713    0.7232    1.8270 H       1  LIG1        0.1072
     21 N          -7.1621   -1.3016    0.3629 N.1     1  LIG1       -0.1908
     22 C          -6.0267   -1.3491    0.1436 C.1     1  LIG1        0.1018
@<TRIPOS>BOND
     1    10    11    3
     2    17    16    1
     3    18    15    1
     4    11     3    1
     5    16    15   ar
     6    16    12   ar
     7    15    14   ar
     8     3     4   ar
     9     3     2   ar
    10     8     2    1
    11     8     9    1
    12    12     4    1
    13    12    13   ar
    14    14    22    1
    15    14    13   ar
    16     4     5   ar
    17     2     1   ar
    18    22    21    3
    19    13    19    1
    20     5     1   ar
    21     5     6    1
    22     1     7    1
    23    19    20    1
