@<TRIPOS>MOLECULE
mol_data/opt/cam/geoms/mol2/13gd13gd13gd-13gd.out
 42 45 0 0 0
SMALL
GASTEIGER

@<TRIPOS>ATOM
      1 C          -0.8038    2.5163    0.9611 C.ar    1  LIG1        0.0167
      2 C          -0.7445    1.9090    2.1876 C.ar    1  LIG1        0.0401
      3 C          -1.2580    0.5859    2.0122 C.ar    1  LIG1        0.0915
      4 C          -1.6061    0.4404    0.6717 C.ar    1  LIG1        0.0827
      5 N          -1.3255    1.6285    0.0648 N.ar    1  LIG1       -0.3574
      6 H          -1.4614    1.7827   -0.9263 H       1  LIG1        0.1654
      7 H          -0.5131    3.5134    0.6704 H       1  LIG1        0.0818
      8 S          -0.2353    2.6764    3.6934 S.3     1  LIG1       -0.1399
      9 H           0.9112    1.9927    3.8641 H       1  LIG1        0.1072
     10 N          -1.4845   -1.2905    3.7614 N.1     1  LIG1       -0.1908
     11 C          -1.3726   -0.4223    3.0015 C.1     1  LIG1        0.1024
     12 C          -2.1602   -0.6934   -0.0424 C.ar    1  LIG1        0.0793
     13 C          -2.3786   -0.9145   -1.3917 C.ar    1  LIG1        0.0496
     14 C          -2.9257   -2.2248   -1.5175 C.ar    1  LIG1        0.0922
     15 C          -3.0363   -2.7627   -0.2389 C.ar    1  LIG1        0.0831
     16 N          -2.5636   -1.8235    0.6236 N.ar    1  LIG1       -0.3499
     17 H          -2.5831   -1.9379    1.6316 H       1  LIG1        0.1661
     18 S          -1.9756    0.1635   -2.7339 S.3     1  LIG1       -0.1393
     19 H          -3.2326    0.4775   -3.1003 H       1  LIG1        0.1072
     20 N          -3.6609   -3.4099   -3.6828 N.1     1  LIG1       -0.1908
     21 C          -3.3228   -2.8593   -2.7211 C.1     1  LIG1        0.1025
     22 C          -3.5316   -4.0507    0.2016 C.ar    1  LIG1        0.0793
     23 C          -3.9378   -4.4933    1.4489 C.ar    1  LIG1        0.0496
     24 C          -4.3506   -5.8468    1.2892 C.ar    1  LIG1        0.0922
     25 C          -4.1726   -6.1962   -0.0475 C.ar    1  LIG1        0.0831
     26 N          -3.6815   -5.0962   -0.6767 N.ar    1  LIG1       -0.3499
     27 H          -3.4273   -5.1009   -1.6612 H       1  LIG1        0.1661
     28 S          -4.0703   -3.5369    2.9296 S.3     1  LIG1       -0.1393
     29 H          -2.9017   -3.8895    3.4979 H       1  LIG1        0.1072
     30 N          -5.2961   -7.4841    3.0357 N.1     1  LIG1       -0.1908
     31 C          -4.8643   -6.7103    2.2883 C.1     1  LIG1        0.1025
     32 C          -4.4338   -7.4445   -0.7368 C.ar    1  LIG1        0.0788
     33 C          -4.2014   -7.8332   -2.0466 C.ar    1  LIG1        0.0489
     34 C          -4.6682   -9.1763   -2.1713 C.ar    1  LIG1        0.0828
     35 C          -5.1704   -9.5528   -0.9445 C.ar    1  LIG1        0.0208
     36 N          -5.0226   -8.5091   -0.0947 N.ar    1  LIG1       -0.3574
     37 H          -5.2976   -8.5131    0.8791 H       1  LIG1        0.1654
     38 H          -5.6147  -10.4847   -0.6322 H       1  LIG1        0.0820
     39 S          -3.3661   -6.9008   -3.2957 S.3     1  LIG1       -0.1393
     40 H          -4.4440   -6.4135   -3.9380 H       1  LIG1        0.1072
     41 N          -4.6135  -10.6449   -4.2900 N.1     1  LIG1       -0.1908
     42 C          -4.6340   -9.9850   -3.3401 C.1     1  LIG1        0.1018
@<TRIPOS>BOND
     1    41    42    3
     2    40    39    1
     3    20    21    3
     4    42    34    1
     5    39    33    1
     6    19    18    1
     7    18    13    1
     8    21    14    1
     9    34    33   ar
    10    34    35   ar
    11    33    32   ar
    12    27    26    1
    13    14    13   ar
    14    14    15   ar
    15    13    12   ar
    16    35    38    1
    17    35    36   ar
    18     6     5    1
    19    32    36   ar
    20    32    25    1
    21    26    25   ar
    22    26    22   ar
    23    15    22    1
    24    15    16   ar
    25    36    37    1
    26    25    24   ar
    27    12    16   ar
    28    12     4    1
    29     5     4   ar
    30     5     1   ar
    31    22    23   ar
    32    16    17    1
    33     7     1    1
    34     4     3   ar
    35     1     2   ar
    36    24    23   ar
    37    24    31    1
    38    23    28    1
    39     3     2   ar
    40     3    11    1
    41     2     8    1
    42    31    30    3
    43    28    29    1
    44    11    10    3
    45     8     9    1
