@<TRIPOS>MOLECULE
mol_data/opt/cam/geoms/mol2/13gd13gd-13gd-13gd.out
 42 45 0 0 0
SMALL
GASTEIGER

@<TRIPOS>ATOM
      1 C           1.0982   -0.4572    1.1425 C.ar    1  LIG1        0.0167
      2 C           0.6207    0.7629    1.5393 C.ar    1  LIG1        0.0401
      3 C          -0.7508    0.8244    1.1316 C.ar    1  LIG1        0.0915
      4 C          -1.0562   -0.3689    0.4979 C.ar    1  LIG1        0.0827
      5 N           0.0820   -1.1319    0.5205 N.ar    1  LIG1       -0.3574
      6 H           0.1852   -2.0039    0.0262 H       1  LIG1        0.1654
      7 H           2.0815   -0.8854    1.2562 H       1  LIG1        0.0818
      8 S           1.5803    2.0277    2.3094 S.3     1  LIG1       -0.1399
      9 H           0.8357    2.1569    3.4221 H       1  LIG1        0.1072
     10 N          -2.3938    2.7409    1.6524 N.1     1  LIG1       -0.1908
     11 C          -1.6598    1.8807    1.4056 C.1     1  LIG1        0.1024
     12 C          -2.2883   -0.8623   -0.0882 C.ar    1  LIG1        0.0793
     13 C          -3.1807   -0.2926   -0.9696 C.ar    1  LIG1        0.0496
     14 C          -4.1946   -1.2704   -1.2234 C.ar    1  LIG1        0.0922
     15 C          -3.8932   -2.4047   -0.4890 C.ar    1  LIG1        0.0831
     16 N          -2.7271   -2.1501    0.1774 N.ar    1  LIG1       -0.3499
     17 H          -2.4098   -2.6917    0.9676 H       1  LIG1        0.1661
     18 S          -3.0774    1.3235   -1.6579 S.3     1  LIG1       -0.1393
     19 H          -3.6459    0.9977   -2.8322 H       1  LIG1        0.1072
     20 N          -6.0837   -1.0111   -2.9565 N.1     1  LIG1       -0.1908
     21 C          -5.2496   -1.1381   -2.1637 C.1     1  LIG1        0.1025
     22 C          -4.5648   -3.6836   -0.3731 C.ar    1  LIG1        0.0793
     23 C          -5.8927   -4.0166   -0.1994 C.ar    1  LIG1        0.0496
     24 C          -5.9450   -5.4394   -0.0998 C.ar    1  LIG1        0.0922
     25 C          -4.6459   -5.9318   -0.2030 C.ar    1  LIG1        0.0831
     26 N          -3.8352   -4.8554   -0.3676 N.ar    1  LIG1       -0.3499
     27 H          -2.8458   -4.9430   -0.5674 H       1  LIG1        0.1661
     28 S          -7.2555   -2.9020   -0.1287 S.3     1  LIG1       -0.1393
     29 H          -7.8305   -3.4625    0.9506 H       1  LIG1        0.1072
     30 N          -7.9833   -6.9665    0.2722 N.1     1  LIG1       -0.1908
     31 C          -7.0956   -6.2410    0.0991 C.1     1  LIG1        0.1025
     32 C          -4.1468   -7.2921   -0.1747 C.ar    1  LIG1        0.0788
     33 C          -2.8657   -7.8030   -0.3088 C.ar    1  LIG1        0.0489
     34 C          -2.9648   -9.2228   -0.1973 C.ar    1  LIG1        0.0828
     35 C          -4.2954   -9.5258   -0.0098 C.ar    1  LIG1        0.0208
     36 N          -4.9896   -8.3634    0.0078 N.ar    1  LIG1       -0.3574
     37 H          -5.9914   -8.2897    0.1330 H       1  LIG1        0.1654
     38 H          -4.7793  -10.4821    0.1113 H       1  LIG1        0.0820
     39 S          -1.3634   -6.8888   -0.4960 S.3     1  LIG1       -0.1393
     40 H          -1.1041   -7.2070   -1.7780 H       1  LIG1        0.1072
     41 N          -1.0154  -10.9026   -0.3545 N.1     1  LIG1       -0.1908
     42 C          -1.8937  -10.1533   -0.2791 C.1     1  LIG1        0.1018
@<TRIPOS>BOND
     1    20    21    3
     2    19    18    1
     3    21    14    1
     4    40    39    1
     5    18    13    1
     6    14    13   ar
     7    14    15   ar
     8    13    12   ar
     9    27    26    1
    10    39    33    1
    11    15    22    1
    12    15    16   ar
    13    22    26   ar
    14    22    23   ar
    15    26    25   ar
    16    41    42    3
    17    33    34   ar
    18    33    32   ar
    19    42    34    1
    20    25    32    1
    21    25    24   ar
    22    23    28    1
    23    23    24   ar
    24    34    35   ar
    25    32    36   ar
    26    28    29    1
    27    24    31    1
    28    12    16   ar
    29    12     4    1
    30    35    36   ar
    31    35    38    1
    32    36    37    1
    33     6     5    1
    34    31    30    3
    35    16    17    1
    36     4     5   ar
    37     4     3   ar
    38     5     1   ar
    39     3    11    1
    40     3     2   ar
    41     1     7    1
    42     1     2   ar
    43    11    10    3
    44     2     8    1
    45     8     9    1
