@<TRIPOS>MOLECULE
mol_data/opt/cam/geoms/mol2/13gd13gd13gd.out
 32 34 0 0 0
SMALL
GASTEIGER

@<TRIPOS>ATOM
      1 C           1.1211   -0.0757    0.4302 C.ar    1  LIG1        0.0167
      2 C           0.7562    1.0163   -0.3101 C.ar    1  LIG1        0.0401
      3 C          -0.6651    0.9501   -0.4749 C.ar    1  LIG1        0.0915
      4 C          -1.1129   -0.1872    0.1767 C.ar    1  LIG1        0.0827
      5 N          -0.0087   -0.7955    0.7146 N.ar    1  LIG1       -0.3574
      6 H          -0.0517   -1.5774    1.3482 H       1  LIG1        0.1654
      7 H           2.0961   -0.3846    0.7726 H       1  LIG1        0.0818
      8 S           1.8511    2.2920   -0.8463 S.3     1  LIG1       -0.1399
      9 H           1.6096    2.1853   -2.1652 H       1  LIG1        0.1072
     10 N          -2.0938    2.5679   -1.8839 N.1     1  LIG1       -0.1908
     11 C          -1.4616    1.8421   -1.2413 C.1     1  LIG1        0.1024
     12 C          -2.4392   -0.7581    0.3197 C.ar    1  LIG1        0.0793
     13 C          -3.6391   -0.2041    0.7050 C.ar    1  LIG1        0.0496
     14 C          -4.6052   -1.2610    0.6993 C.ar    1  LIG1        0.0922
     15 C          -3.9689   -2.4258    0.3072 C.ar    1  LIG1        0.0831
     16 N          -2.6533   -2.1121    0.1023 N.ar    1  LIG1       -0.3499
     17 H          -2.0307   -2.6877   -0.4450 H       1  LIG1        0.1661
     18 S          -3.9181    1.4781    1.1380 S.3     1  LIG1       -0.1393
     19 H          -4.9129    1.2219    2.0055 H       1  LIG1        0.1072
     20 N          -7.0341   -1.0192    1.5247 N.1     1  LIG1       -0.1908
     21 C          -5.9505   -1.1460    1.1376 C.1     1  LIG1        0.1025
     22 C          -4.4646   -3.7753    0.1192 C.ar    1  LIG1        0.0788
     23 C          -5.5721   -4.2645   -0.5420 C.ar    1  LIG1        0.0489
     24 C          -5.5126   -5.6914   -0.4446 C.ar    1  LIG1        0.0828
     25 C          -4.3762   -6.0185    0.2624 C.ar    1  LIG1        0.0208
     26 N          -3.7500   -4.8642    0.5928 N.ar    1  LIG1       -0.3574
     27 H          -2.9673   -4.7945    1.2232 H       1  LIG1        0.1654
     28 H          -3.9932   -6.9859    0.5470 H       1  LIG1        0.0820
     29 S          -6.8159   -3.3097   -1.3416 S.3     1  LIG1       -0.1393
     30 H          -7.0415   -4.1940   -2.3289 H       1  LIG1        0.1072
     31 N          -7.1911   -7.3418   -1.4955 N.1     1  LIG1       -0.1908
     32 C          -6.4357   -6.6100   -1.0128 C.1     1  LIG1        0.1018
@<TRIPOS>BOND
     1    30    29    1
     2     9     8    1
     3    10    11    3
     4    31    32    3
     5    29    23    1
     6    11     3    1
     7    32    24    1
     8     8     2    1
     9    23    24   ar
    10    23    22   ar
    11     3     2   ar
    12     3     4   ar
    13    17    16    1
    14    24    25   ar
    15     2     1   ar
    16    16    15   ar
    17    16    12   ar
    18    22    15    1
    19    22    26   ar
    20     4    12    1
    21     4     5   ar
    22    25    28    1
    23    25    26   ar
    24    15    14   ar
    25    12    13   ar
    26     1     5   ar
    27     1     7    1
    28    26    27    1
    29    14    13   ar
    30    14    21    1
    31    13    18    1
    32     5     6    1
    33    21    20    3
    34    18    19    1
