@<TRIPOS>MOLECULE
mol_data/opt/cam/geoms/mol2/13gd13gd13gd-13gd-.out
 42 45 0 0 0
SMALL
GASTEIGER

@<TRIPOS>ATOM
      1 C           0.2229    1.2348    0.3370 C.ar    1  LIG1        0.0167
      2 C           0.7412   -0.0235    0.1870 C.ar    1  LIG1        0.0401
      3 C          -0.3738   -0.9210    0.1520 C.ar    1  LIG1        0.0915
      4 C          -1.5362   -0.1558    0.2782 C.ar    1  LIG1        0.0827
      5 N          -1.1412    1.1394    0.3916 N.ar    1  LIG1       -0.3574
      6 H          -1.7979    1.9055    0.4749 H       1  LIG1        0.1654
      7 H           0.7294    2.1842    0.4094 H       1  LIG1        0.0818
      8 S           2.4561   -0.4428    0.1565 S.3     1  LIG1       -0.1399
      9 H           2.5599   -0.6772   -1.1649 H       1  LIG1        0.1072
     10 N          -0.4877   -3.4793   -0.1124 N.1     1  LIG1       -0.1908
     11 C          -0.3611   -2.3305    0.0009 C.1     1  LIG1        0.1024
     12 C          -2.9173   -0.5870    0.2908 C.ar    1  LIG1        0.0793
     13 C          -4.1351    0.0644    0.2324 C.ar    1  LIG1        0.0496
     14 C          -5.1571   -0.9412    0.2086 C.ar    1  LIG1        0.0922
     15 C          -4.5264   -2.1770    0.2741 C.ar    1  LIG1        0.0831
     16 N          -3.1886   -1.9281    0.3200 N.ar    1  LIG1       -0.3499
     17 H          -2.5017   -2.6462    0.4949 H       1  LIG1        0.1661
     18 S          -4.3678    1.8086    0.0700 S.3     1  LIG1       -0.1393
     19 H          -4.9827    2.0192    1.2483 H       1  LIG1        0.1072
     20 N          -7.6819   -0.4863   -0.0312 N.1     1  LIG1       -0.1908
     21 C          -6.5500   -0.7022    0.0777 C.1     1  LIG1        0.1025
     22 C          -4.9034   -3.5731    0.2479 C.ar    1  LIG1        0.0793
     23 C          -5.8917   -4.3377    0.8253 C.ar    1  LIG1        0.0496
     24 C          -5.5201   -5.7119    0.6356 C.ar    1  LIG1        0.0922
     25 C          -4.3163   -5.7436   -0.0576 C.ar    1  LIG1        0.0831
     26 N          -3.9620   -4.4485   -0.2798 N.ar    1  LIG1       -0.3499
     27 H          -3.2741   -4.1798   -0.9685 H       1  LIG1        0.1661
     28 S          -7.2958   -3.7329    1.6901 S.3     1  LIG1       -0.1393
     29 H          -7.5010   -4.8584    2.3965 H       1  LIG1        0.1072
     30 N          -6.8030   -7.6582    1.7295 N.1     1  LIG1       -0.1908
     31 C          -6.2105   -6.8086    1.2116 C.1     1  LIG1        0.1025
     32 C          -3.4232   -6.7962   -0.4902 C.ar    1  LIG1        0.0788
     33 C          -3.6329   -8.0698   -0.9822 C.ar    1  LIG1        0.0489
     34 C          -2.3461   -8.5977   -1.3138 C.ar    1  LIG1        0.0828
     35 C          -1.4069   -7.6292   -1.0241 C.ar    1  LIG1        0.0208
     36 N          -2.0556   -6.5533   -0.5304 N.ar    1  LIG1       -0.3574
     37 H          -1.5933   -5.7204   -0.1834 H       1  LIG1        0.1654
     38 H          -0.3339   -7.6523   -1.1325 H       1  LIG1        0.0820
     39 S          -5.1824   -8.8799   -1.1823 S.3     1  LIG1       -0.1393
     40 H          -4.7906   -9.6323   -2.2253 H       1  LIG1        0.1072
     41 N          -1.9066  -10.9146   -2.3539 N.1     1  LIG1       -0.1908
     42 C          -2.0879   -9.8742   -1.8799 C.1     1  LIG1        0.1018
@<TRIPOS>BOND
     1    41    42    3
     2    40    39    1
     3    42    34    1
     4    34    35   ar
     5    34    33   ar
     6    39    33    1
     7     9     8    1
     8    38    35    1
     9    35    36   ar
    10    33    32   ar
    11    27    26    1
    12    36    32   ar
    13    36    37    1
    14    32    25    1
    15    26    25   ar
    16    26    22   ar
    17    10    11    3
    18    25    24   ar
    19    20    21    3
    20    11     3    1
    21    18    13    1
    22    18    19    1
    23    21    14    1
    24     3     2   ar
    25     3     4   ar
    26     8     2    1
    27     2     1   ar
    28    14    13   ar
    29    14    15   ar
    30    13    12   ar
    31    22    15    1
    32    22    23   ar
    33    15    16   ar
    34     4    12    1
    35     4     5   ar
    36    12    16   ar
    37    16    17    1
    38     1     5   ar
    39     1     7    1
    40     5     6    1
    41    24    23   ar
    42    24    31    1
    43    23    28    1
    44    31    30    3
    45    28    29    1
