@<TRIPOS>MOLECULE
mol_data/opt/cam/geoms/mol2/13gd13gd-13gd-13gd-.out
 42 45 0 0 0
SMALL
GASTEIGER

@<TRIPOS>ATOM
      1 C           0.1998    1.2537    0.3233 C.ar    1  LIG1        0.0167
      2 C           0.7237   -0.0023    0.1729 C.ar    1  LIG1        0.0401
      3 C          -0.3866   -0.9059    0.1500 C.ar    1  LIG1        0.0915
      4 C          -1.5521   -0.1467    0.2837 C.ar    1  LIG1        0.0827
      5 N          -1.1633    1.1510    0.3897 N.ar    1  LIG1       -0.3574
      6 H          -1.8234    1.9138    0.4760 H       1  LIG1        0.1654
      7 H           0.7017    2.2060    0.3884 H       1  LIG1        0.0818
      8 S           2.4406   -0.4123    0.1292 S.3     1  LIG1       -0.1399
      9 H           2.5346   -0.6504   -1.1922 H       1  LIG1        0.1072
     10 N          -0.4887   -3.4657   -0.1053 N.1     1  LIG1       -0.1908
     11 C          -0.3674   -2.3159    0.0033 C.1     1  LIG1        0.1024
     12 C          -2.9306   -0.5853    0.3092 C.ar    1  LIG1        0.0793
     13 C          -4.1525    0.0592    0.2590 C.ar    1  LIG1        0.0496
     14 C          -5.1691   -0.9521    0.2469 C.ar    1  LIG1        0.0922
     15 C          -4.5311   -2.1841    0.3111 C.ar    1  LIG1        0.0831
     16 N          -3.1944   -1.9278    0.3449 N.ar    1  LIG1       -0.3499
     17 H          -2.5021   -2.6416    0.5163 H       1  LIG1        0.1661
     18 S          -4.3960    1.8016    0.0931 S.3     1  LIG1       -0.1393
     19 H          -5.0022    2.0125    1.2758 H       1  LIG1        0.1072
     20 N          -7.6982   -0.5117    0.0270 N.1     1  LIG1       -0.1908
     21 C          -6.5644   -0.7211    0.1270 C.1     1  LIG1        0.1025
     22 C          -4.9007   -3.5824    0.2924 C.ar    1  LIG1        0.0793
     23 C          -5.8799   -4.3505    0.8805 C.ar    1  LIG1        0.0496
     24 C          -5.5023   -5.7232    0.6920 C.ar    1  LIG1        0.0922
     25 C          -4.3043   -5.7507   -0.0112 C.ar    1  LIG1        0.0831
     26 N          -3.9589   -4.4543   -0.2404 N.ar    1  LIG1       -0.3499
     27 H          -3.2783   -4.1841   -0.9358 H       1  LIG1        0.1661
     28 S          -7.2800   -3.7506    1.7551 S.3     1  LIG1       -0.1393
     29 H          -7.4731   -4.8750    2.4668 H       1  LIG1        0.1072
     30 N          -6.7654   -7.6730    1.8028 N.1     1  LIG1       -0.1908
     31 C          -6.1819   -6.8219    1.2772 C.1     1  LIG1        0.1025
     32 C          -3.4091   -6.7997   -0.4479 C.ar    1  LIG1        0.0788
     33 C          -3.6159   -8.0760   -0.9341 C.ar    1  LIG1        0.0489
     34 C          -2.3291   -8.5979   -1.2749 C.ar    1  LIG1        0.0828
     35 C          -1.3928   -7.6234   -0.9961 C.ar    1  LIG1        0.0208
     36 N          -2.0432   -6.5495   -0.5004 N.ar    1  LIG1       -0.3574
     37 H          -1.5826   -5.7130   -0.1599 H       1  LIG1        0.1654
     38 H          -0.3206   -7.6410   -1.1135 H       1  LIG1        0.0820
     39 S          -5.1625   -8.8951   -1.1187 S.3     1  LIG1       -0.1393
     40 H          -4.7754   -9.6488   -2.1625 H       1  LIG1        0.1072
     41 N          -1.8856  -10.9157   -2.3113 N.1     1  LIG1       -0.1908
     42 C          -2.0686   -9.8748   -1.8391 C.1     1  LIG1        0.1018
@<TRIPOS>BOND
     1    41    42    3
     2    40    39    1
     3    42    34    1
     4    34    35   ar
     5    34    33   ar
     6     9     8    1
     7    39    33    1
     8    38    35    1
     9    35    36   ar
    10    27    26    1
    11    33    32   ar
    12    36    32   ar
    13    36    37    1
    14    32    25    1
    15    26    25   ar
    16    26    22   ar
    17    10    11    3
    18    25    24   ar
    19    11     3    1
    20    20    21    3
    21    18    13    1
    22    18    19    1
    23    21    14    1
    24     8     2    1
    25     3     2   ar
    26     3     4   ar
    27     2     1   ar
    28    14    13   ar
    29    14    15   ar
    30    13    12   ar
    31     4    12    1
    32     4     5   ar
    33    22    15    1
    34    22    23   ar
    35    12    16   ar
    36    15    16   ar
    37     1     7    1
    38     1     5   ar
    39    16    17    1
    40     5     6    1
    41    24    23   ar
    42    24    31    1
    43    23    28    1
    44    31    30    3
    45    28    29    1
