@<TRIPOS>MOLECULE
mol_data/opt/cam/geoms/mol2/13gd13gd-13gd-.out
 32 34 0 0 0
SMALL
GASTEIGER

@<TRIPOS>ATOM
      1 C           1.1479   -0.1191   -0.3414 C.ar    1  LIG1        0.0167
      2 C           0.7948    0.9314    0.4617 C.ar    1  LIG1        0.0401
      3 C          -0.6224    0.8507    0.6521 C.ar    1  LIG1        0.0915
      4 C          -1.0818   -0.2442   -0.0604 C.ar    1  LIG1        0.0827
      5 N           0.0155   -0.8312   -0.6349 N.ar    1  LIG1       -0.3574
      6 H          -0.0358   -1.5826   -1.3040 H       1  LIG1        0.1654
      7 H           2.1166   -0.4057   -0.7192 H       1  LIG1        0.0818
      8 S           1.9247    2.0613    1.2108 S.3     1  LIG1       -0.1399
      9 H           1.4081    3.1898    0.6926 H       1  LIG1        0.1072
     10 N          -2.0439    2.4128    2.1300 N.1     1  LIG1       -0.1908
     11 C          -1.4117    1.7074    1.4651 C.1     1  LIG1        0.1024
     12 C          -2.4149   -0.7923   -0.2313 C.ar    1  LIG1        0.0793
     13 C          -3.6053   -0.2067   -0.5975 C.ar    1  LIG1        0.0496
     14 C          -4.5860   -1.2493   -0.6381 C.ar    1  LIG1        0.0922
     15 C          -3.9670   -2.4376   -0.2911 C.ar    1  LIG1        0.0831
     16 N          -2.6479   -2.1504   -0.0692 N.ar    1  LIG1       -0.3499
     17 H          -2.0354   -2.7554    0.4576 H       1  LIG1        0.1661
     18 S          -3.8595    1.4964   -0.9593 S.3     1  LIG1       -0.1393
     19 H          -4.8352    1.2914   -1.8614 H       1  LIG1        0.1072
     20 N          -7.0068   -0.9404   -1.4649 N.1     1  LIG1       -0.1908
     21 C          -5.9273   -1.0978   -1.0775 C.1     1  LIG1        0.1025
     22 C          -4.4816   -3.7866   -0.1595 C.ar    1  LIG1        0.0788
     23 C          -5.6008   -4.2866    0.4735 C.ar    1  LIG1        0.0489
     24 C          -5.5587   -5.7093    0.3212 C.ar    1  LIG1        0.0828
     25 C          -4.4207   -6.0236   -0.3890 C.ar    1  LIG1        0.0208
     26 N          -3.7771   -4.8656   -0.6694 N.ar    1  LIG1       -0.3574
     27 H          -2.9877   -4.7820   -1.2896 H       1  LIG1        0.1654
     28 H          -4.0475   -6.9841   -0.7078 H       1  LIG1        0.0820
     29 S          -6.8391   -3.3475    1.3000 S.3     1  LIG1       -0.1393
     30 H          -7.0778   -4.2628    2.2555 H       1  LIG1        0.1072
     31 N          -7.2675   -7.3774    1.2925 N.1     1  LIG1       -0.1908
     32 C          -6.4986   -6.6370    0.8454 C.1     1  LIG1        0.1018
@<TRIPOS>BOND
     1    19    18    1
     2    20    21    3
     3     6     5    1
     4    27    26    1
     5    21    14    1
     6    18    13    1
     7     7     1    1
     8    28    25    1
     9    26    25   ar
    10    26    22   ar
    11    14    13   ar
    12    14    15   ar
    13     5     1   ar
    14     5     4   ar
    15    13    12   ar
    16    25    24   ar
    17     1     2   ar
    18    15    22    1
    19    15    16   ar
    20    12    16   ar
    21    12     4    1
    22    22    23   ar
    23    16    17    1
    24     4     3   ar
    25    24    23   ar
    26    24    32    1
    27     2     3   ar
    28     2     8    1
    29    23    29    1
    30     3    11    1
    31     9     8    1
    32    32    31    3
    33    29    30    1
    34    11    10    3
