@<TRIPOS>MOLECULE
mol_data/opt/cam/geoms/mol2/13gd13gd13gd-.out
 32 34 0 0 0
SMALL
GASTEIGER

@<TRIPOS>ATOM
      1 C           0.1561    1.4444    1.2716 C.ar    1  LIG1        0.0167
      2 C           0.8239    0.2976    0.9322 C.ar    1  LIG1        0.0401
      3 C          -0.1692   -0.6473    0.5234 C.ar    1  LIG1        0.0915
      4 C          -1.4116   -0.0280    0.6282 C.ar    1  LIG1        0.0827
      5 N          -1.1805    1.2339    1.0912 N.ar    1  LIG1       -0.3574
      6 H          -1.9186    1.9135    1.2223 H       1  LIG1        0.1654
      7 H           0.5405    2.3869    1.6280 H       1  LIG1        0.0818
      8 S           2.5621    0.0357    1.0900 S.3     1  LIG1       -0.1399
      9 H           2.8503   -0.0478   -0.2219 H       1  LIG1        0.1072
     10 N           0.2017   -3.0429   -0.3466 N.1     1  LIG1       -0.1908
     11 C           0.0602   -1.9646    0.0535 C.1     1  LIG1        0.1024
     12 C          -2.7444   -0.5184    0.3338 C.ar    1  LIG1        0.0793
     13 C          -3.9601    0.1361    0.2395 C.ar    1  LIG1        0.0496
     14 C          -4.9352   -0.8440   -0.1062 C.ar    1  LIG1        0.0922
     15 C          -4.2904   -2.0743   -0.1966 C.ar    1  LIG1        0.0831
     16 N          -2.9758   -1.8462    0.0656 N.ar    1  LIG1       -0.3499
     17 H          -2.2870   -2.5935    0.0998 H       1  LIG1        0.1661
     18 S          -4.2650    1.8695    0.4078 S.3     1  LIG1       -0.1393
     19 H          -4.9799    1.8185    1.5477 H       1  LIG1        0.1072
     20 N          -7.4558   -0.5335   -0.5248 N.1     1  LIG1       -0.1908
     21 C          -6.3178   -0.6304   -0.3256 C.1     1  LIG1        0.1025
     22 C          -4.8187   -3.3873   -0.5117 C.ar    1  LIG1        0.0788
     23 C          -4.2283   -4.6408   -0.4976 C.ar    1  LIG1        0.0489
     24 C          -5.2264   -5.5756   -0.9066 C.ar    1  LIG1        0.0828
     25 C          -6.3789   -4.8635   -1.1588 C.ar    1  LIG1        0.0208
     26 N          -6.1230   -3.5560   -0.9171 N.ar    1  LIG1       -0.3574
     27 H          -6.7996   -2.8096   -1.0075 H       1  LIG1        0.1654
     28 H          -7.3476   -5.2041   -1.4888 H       1  LIG1        0.0820
     29 S          -2.5961   -5.0293    0.0589 S.3     1  LIG1       -0.1393
     30 H          -1.9923   -5.1205   -1.1404 H       1  LIG1        0.1072
     31 N          -4.9518   -8.1274   -1.1547 N.1     1  LIG1       -0.1908
     32 C          -5.0726   -6.9827   -1.0395 C.1     1  LIG1        0.1018
@<TRIPOS>BOND
     1    28    25    1
     2    25    26   ar
     3    25    24   ar
     4    31    32    3
     5    30    29    1
     6    32    24    1
     7    27    26    1
     8    26    22   ar
     9    24    23   ar
    10    20    21    3
    11    22    23   ar
    12    22    15    1
    13    23    29    1
    14    10    11    3
    15    21    14    1
    16     9     8    1
    17    15    14   ar
    18    15    16   ar
    19    14    13   ar
    20    11     3    1
    21    16    17    1
    22    16    12   ar
    23    13    12   ar
    24    13    18    1
    25    12     4    1
    26    18    19    1
    27     3     4   ar
    28     3     2   ar
    29     4     5   ar
    30     2     8    1
    31     2     1   ar
    32     5     6    1
    33     5     1   ar
    34     1     7    1
