@<TRIPOS>MOLECULE
mol_data/opt/cam/geoms/mol2/13gd13gd-13gd.out
 32 34 0 0 0
SMALL
GASTEIGER

@<TRIPOS>ATOM
      1 C           0.1194    1.4942   -1.2431 C.ar    1  LIG1        0.0167
      2 C           0.7977    0.3412   -0.9487 C.ar    1  LIG1        0.0401
      3 C          -0.1840   -0.6195   -0.5497 C.ar    1  LIG1        0.0915
      4 C          -1.4306   -0.0031   -0.6145 C.ar    1  LIG1        0.0827
      5 N          -1.2129    1.2725   -1.0451 N.ar    1  LIG1       -0.3574
      6 H          -1.9560    1.9523   -1.1435 H       1  LIG1        0.1654
      7 H           0.4935    2.4482   -1.5791 H       1  LIG1        0.0818
      8 S           2.5339    0.0918   -1.1449 S.3     1  LIG1       -0.1399
      9 H           2.8458   -0.0279    0.1587 H       1  LIG1        0.1072
     10 N           0.2121   -3.0374    0.2445 N.1     1  LIG1       -0.1908
     11 C           0.0591   -1.9487   -0.1219 C.1     1  LIG1        0.1024
     12 C          -2.7559   -0.5078   -0.3106 C.ar    1  LIG1        0.0793
     13 C          -3.9724    0.1382   -0.1759 C.ar    1  LIG1        0.0496
     14 C          -4.9371   -0.8558    0.1588 C.ar    1  LIG1        0.0922
     15 C          -4.2859   -2.0853    0.2023 C.ar    1  LIG1        0.0831
     16 N          -2.9772   -1.8437   -0.0766 N.ar    1  LIG1       -0.3499
     17 H          -2.2861   -2.5867   -0.1445 H       1  LIG1        0.1661
     18 S          -4.2872    1.8743   -0.2889 S.3     1  LIG1       -0.1393
     19 H          -5.0222    1.8528   -1.4168 H       1  LIG1        0.1072
     20 N          -7.4511   -0.5689    0.6310 N.1     1  LIG1       -0.1908
     21 C          -6.3164   -0.6549    0.4088 C.1     1  LIG1        0.1025
     22 C          -4.8031   -3.4091    0.4889 C.ar    1  LIG1        0.0788
     23 C          -4.2081   -4.6590    0.4283 C.ar    1  LIG1        0.0489
     24 C          -5.1949   -5.6097    0.8280 C.ar    1  LIG1        0.0828
     25 C          -6.3455   -4.9104    1.1210 C.ar    1  LIG1        0.0208
     26 N          -6.0993   -3.5953    0.9124 N.ar    1  LIG1       -0.3574
     27 H          -6.7772   -2.8550    1.0363 H       1  LIG1        0.1654
     28 H          -7.3068   -5.2647    1.4582 H       1  LIG1        0.0820
     29 S          -2.5845   -5.0241   -0.1681 S.3     1  LIG1       -0.1393
     30 H          -1.9590   -5.1467    1.0172 H       1  LIG1        0.1072
     31 N          -4.9056   -8.1663    0.9978 N.1     1  LIG1       -0.1908
     32 C          -5.0331   -7.0193    0.9176 C.1     1  LIG1        0.1018
@<TRIPOS>BOND
     1     7     1    1
     2    19    18    1
     3     1     5   ar
     4     1     2   ar
     5     8     2    1
     6     8     9    1
     7     6     5    1
     8     5     4   ar
     9     2     3   ar
    10     4     3   ar
    11     4    12    1
    12     3    11    1
    13    12    13   ar
    14    12    16   ar
    15    18    13    1
    16    13    14   ar
    17    29    23    1
    18    29    30    1
    19    17    16    1
    20    11    10    3
    21    16    15   ar
    22    14    15   ar
    23    14    21    1
    24    15    22    1
    25    21    20    3
    26    23    22   ar
    27    23    24   ar
    28    22    26   ar
    29    24    32    1
    30    24    25   ar
    31    26    27    1
    32    26    25   ar
    33    32    31    3
    34    25    28    1
