@<TRIPOS>MOLECULE
mol_data/opt/cam/geoms/mol2/13ge13ge-13ge-13ge.out
 46 49 0 0 0
SMALL
GASTEIGER

@<TRIPOS>ATOM
      1 C           0.3502    0.1694    2.4648 C.ar    1  LIG1        0.0167
      2 C           0.6742    0.8723    1.3349 C.ar    1  LIG1        0.0381
      3 C          -0.3789    0.6643    0.3839 C.ar    1  LIG1        0.0645
      4 C          -1.3155   -0.1562    0.9889 C.ar    1  LIG1        0.0807
      5 N          -0.8403   -0.4657    2.2417 N.ar    1  LIG1       -0.3575
      6 H          -1.3831   -0.9377    2.9471 H       1  LIG1        0.1654
      7 H           0.8798    0.0794    3.4002 H       1  LIG1        0.0818
      8 S           2.1851    1.7531    1.0943 S.3     1  LIG1       -0.1400
      9 H           1.6494    2.9675    0.8768 H       1  LIG1        0.1072
     10 C          -0.4416    1.1708   -0.9405 C.1     1  LIG1       -0.0664
     11 C          -0.4890    1.6058   -2.0620 C.1     1  LIG1       -0.1138
     12 H          -0.5409    1.9898   -3.0545 H       1  LIG1        0.1232
     13 C          -2.5723   -0.7000    0.5042 C.ar    1  LIG1        0.0791
     14 C          -3.6856   -0.1032   -0.0476 C.ar    1  LIG1        0.0476
     15 C          -4.6512   -1.1308   -0.2899 C.ar    1  LIG1        0.0652
     16 C          -4.0980   -2.3290    0.1347 C.ar    1  LIG1        0.0811
     17 N          -2.8410   -2.0511    0.5977 N.ar    1  LIG1       -0.3500
     18 H          -2.2045   -2.7342    0.9764 H       1  LIG1        0.1661
     19 S          -3.8702    1.6125   -0.4048 S.3     1  LIG1       -0.1393
     20 H          -5.1975    1.6363   -0.1904 H       1  LIG1        0.1072
     21 C          -5.9368   -0.9553   -0.8639 C.1     1  LIG1       -0.0664
     22 C          -7.0266   -0.7831   -1.3468 C.1     1  LIG1       -0.1138
     23 H          -7.9940   -0.6474   -1.7723 H       1  LIG1        0.1232
     24 C          -4.6141   -3.6867    0.1081 C.ar    1  LIG1        0.0791
     25 C          -5.7688   -4.2445    0.6126 C.ar    1  LIG1        0.0476
     26 C          -5.7263   -5.6483    0.3390 C.ar    1  LIG1        0.0652
     27 C          -4.5333   -5.9070   -0.3190 C.ar    1  LIG1        0.0811
     28 N          -3.8819   -4.7126   -0.4576 N.ar    1  LIG1       -0.3500
     29 H          -2.9906   -4.5962   -0.9126 H       1  LIG1        0.1661
     30 S          -7.0647   -3.3762    1.4318 S.3     1  LIG1       -0.1393
     31 H          -7.4421   -4.4185    2.1930 H       1  LIG1        0.1072
     32 C          -6.7268   -6.5964    0.6746 C.1     1  LIG1       -0.0664
     33 C          -7.5868   -7.3839    0.9757 C.1     1  LIG1       -0.1138
     34 H          -8.3386   -8.0945    1.2309 H       1  LIG1        0.1232
     35 C          -3.9772   -7.1385   -0.8514 C.ar    1  LIG1        0.0787
     36 C          -3.7501   -8.3714   -0.2801 C.ar    1  LIG1        0.0469
     37 C          -3.1298   -9.1977   -1.2744 C.ar    1  LIG1        0.0557
     38 C          -3.0009   -8.4316   -2.4128 C.ar    1  LIG1        0.0188
     39 N          -3.5032   -7.1967   -2.1508 N.ar    1  LIG1       -0.3575
     40 H          -3.6758   -6.4859   -2.8434 H       1  LIG1        0.1654
     41 H          -2.5907   -8.6916   -3.3759 H       1  LIG1        0.0820
     42 S          -4.1385   -8.8383    1.3741 S.3     1  LIG1       -0.1394
     43 H          -3.1386   -9.7310    1.4825 H       1  LIG1        0.1072
     44 C          -2.6937  -10.5379   -1.1000 C.1     1  LIG1       -0.0671
     45 C          -2.3246  -11.6706   -0.9226 C.1     1  LIG1       -0.1138
     46 H          -2.0046  -12.6768   -0.7790 H       1  LIG1        0.1232
@<TRIPOS>BOND
     1    41    38    1
     2    12    11    1
     3    40    39    1
     4    38    39   ar
     5    38    37   ar
     6    39    35   ar
     7    11    10    3
     8    23    22    1
     9    22    21    3
    10    37    44    1
    11    37    36   ar
    12    44    45    3
    13    10     3    1
    14    45    46    1
    15    29    28    1
    16    21    15    1
    17    35    27    1
    18    35    36   ar
    19    28    27   ar
    20    28    24   ar
    21    19    20    1
    22    19    14    1
    23    27    26   ar
    24    15    14   ar
    25    15    16   ar
    26    36    42    1
    27    14    13   ar
    28    24    16    1
    29    24    25   ar
    30    16    17   ar
    31    26    25   ar
    32    26    32    1
    33     3     4   ar
    34     3     2   ar
    35    13    17   ar
    36    13     4    1
    37    17    18    1
    38    25    30    1
    39    32    33    3
    40     9     8    1
    41    33    34    1
    42     4     5   ar
    43     8     2    1
    44     2     1   ar
    45    42    43    1
    46    30    31    1
    47     5     1   ar
    48     5     6    1
    49     1     7    1
