@<TRIPOS>MOLECULE
mol_data/opt/cam/geoms/mol2/13ge13ge-13ge13ge.out
 46 49 0 0 0
SMALL
GASTEIGER

@<TRIPOS>ATOM
      1 C           0.3554    0.1863    2.4424 C.ar    1  LIG1        0.0167
      2 C           0.6786    0.8801    1.3067 C.ar    1  LIG1        0.0381
      3 C          -0.3758    0.6654    0.3585 C.ar    1  LIG1        0.0645
      4 C          -1.3121   -0.1499    0.9709 C.ar    1  LIG1        0.0807
      5 N          -0.8357   -0.4498    2.2256 N.ar    1  LIG1       -0.3575
      6 H          -1.3780   -0.9159    2.9353 H       1  LIG1        0.1654
      7 H           0.8859    0.1032    3.3779 H       1  LIG1        0.0818
      8 S           2.1898    1.7580    1.0573 S.3     1  LIG1       -0.1400
      9 H           1.6545    2.9711    0.8311 H       1  LIG1        0.1072
     10 C          -0.4396    1.1617   -0.9696 C.1     1  LIG1       -0.0664
     11 C          -0.4881    1.5880   -2.0945 C.1     1  LIG1       -0.1138
     12 H          -0.5410    1.9641   -3.0899 H       1  LIG1        0.1232
     13 C          -2.5698   -0.6967    0.4918 C.ar    1  LIG1        0.0791
     14 C          -3.6833   -0.1034   -0.0634 C.ar    1  LIG1        0.0476
     15 C          -4.6498   -1.1323   -0.2969 C.ar    1  LIG1        0.0652
     16 C          -4.0969   -2.3275    0.1364 C.ar    1  LIG1        0.0811
     17 N          -2.8392   -2.0469    0.5959 N.ar    1  LIG1       -0.3500
     18 H          -2.2028   -2.7274    0.9794 H       1  LIG1        0.1661
     19 S          -3.8673    1.6095   -0.4337 S.3     1  LIG1       -0.1393
     20 H          -5.1943    1.6359   -0.2177 H       1  LIG1        0.1072
     21 C          -5.9359   -0.9603   -0.8708 C.1     1  LIG1       -0.0664
     22 C          -7.0261   -0.7910   -1.3538 C.1     1  LIG1       -0.1138
     23 H          -7.9939   -0.6579   -1.7792 H       1  LIG1        0.1232
     24 C          -4.6139   -3.6851    0.1210 C.ar    1  LIG1        0.0791
     25 C          -5.7682   -4.2382    0.6313 C.ar    1  LIG1        0.0476
     26 C          -5.7270   -5.6441    0.3685 C.ar    1  LIG1        0.0652
     27 C          -4.5351   -5.9086   -0.2893 C.ar    1  LIG1        0.0811
     28 N          -3.8832   -4.7157   -0.4380 N.ar    1  LIG1       -0.3500
     29 H          -2.9925   -4.6034   -0.8953 H       1  LIG1        0.1661
     30 S          -7.0623   -3.3628    1.4459 S.3     1  LIG1       -0.1393
     31 H          -7.4400   -4.3995    2.2145 H       1  LIG1        0.1072
     32 C          -6.7275   -6.5889    0.7130 C.1     1  LIG1       -0.0664
     33 C          -7.5875   -7.3737    1.0214 C.1     1  LIG1       -0.1138
     34 H          -8.3393   -8.0820    1.2830 H       1  LIG1        0.1232
     35 C          -3.9806   -7.1445   -0.8129 C.ar    1  LIG1        0.0787
     36 C          -3.7531   -8.3729   -0.2322 C.ar    1  LIG1        0.0469
     37 C          -3.1350   -9.2075   -1.2210 C.ar    1  LIG1        0.0557
     38 C          -3.0076   -8.4506   -2.3657 C.ar    1  LIG1        0.0188
     39 N          -3.5089   -7.2134   -2.1127 N.ar    1  LIG1       -0.3575
     40 H          -3.6825   -6.5080   -2.8107 H       1  LIG1        0.1654
     41 H          -2.5992   -8.7184   -3.3273 H       1  LIG1        0.0820
     42 S          -4.1391   -8.8265    1.4263 S.3     1  LIG1       -0.1394
     43 H          -3.1394   -9.7187    1.5404 H       1  LIG1        0.1072
     44 C          -2.6993  -10.5465   -1.0367 C.1     1  LIG1       -0.0671
     45 C          -2.3304  -11.6779   -0.8508 C.1     1  LIG1       -0.1138
     46 H          -2.0107  -12.6831   -0.6997 H       1  LIG1        0.1232
@<TRIPOS>BOND
     1    41    38    1
     2    12    11    1
     3    40    39    1
     4    38    39   ar
     5    38    37   ar
     6    39    35   ar
     7    11    10    3
     8    23    22    1
     9    22    21    3
    10    37    44    1
    11    37    36   ar
    12    44    45    3
    13    10     3    1
    14    29    28    1
    15    21    15    1
    16    45    46    1
    17    35    27    1
    18    35    36   ar
    19    28    27   ar
    20    28    24   ar
    21    19    20    1
    22    19    14    1
    23    15    14   ar
    24    15    16   ar
    25    27    26   ar
    26    36    42    1
    27    14    13   ar
    28    24    16    1
    29    24    25   ar
    30    16    17   ar
    31     3     4   ar
    32     3     2   ar
    33    26    25   ar
    34    26    32    1
    35    13    17   ar
    36    13     4    1
    37    17    18    1
    38    25    30    1
    39    32    33    3
    40     9     8    1
    41     4     5   ar
    42    33    34    1
    43     8     2    1
    44     2     1   ar
    45    42    43    1
    46    30    31    1
    47     5     1   ar
    48     5     6    1
    49     1     7    1
