@<TRIPOS>MOLECULE
mol_data/opt/cam/geoms/mol2/13ge13ge13ge.out
 35 37 0 0 0
SMALL
GASTEIGER

@<TRIPOS>ATOM
      1 C           1.1424   -0.1740    0.5528 C.ar    1  LIG1        0.0167
      2 C           0.8232    0.9315   -0.1875 C.ar    1  LIG1        0.0381
      3 C          -0.5949    0.9139   -0.3955 C.ar    1  LIG1        0.0645
      4 C          -1.0889   -0.2136    0.2447 C.ar    1  LIG1        0.0807
      5 N          -0.0186   -0.8688    0.7935 N.ar    1  LIG1       -0.3575
      6 H          -0.1053   -1.6386    1.4362 H       1  LIG1        0.1654
      7 H           2.0947   -0.5205    0.9215 H       1  LIG1        0.0818
      8 S           1.9610    2.1329   -0.7987 S.3     1  LIG1       -0.1400
      9 H           1.0206    2.9084   -1.3652 H       1  LIG1        0.1072
     10 C          -1.3312    1.8497   -1.1651 C.1     1  LIG1       -0.0664
     11 C          -1.9221    2.6627   -1.8298 C.1     1  LIG1       -0.1138
     12 H          -2.4710    3.3694   -2.4083 H       1  LIG1        0.1232
     13 C          -2.4325   -0.7469    0.3562 C.ar    1  LIG1        0.0791
     14 C          -3.6387   -0.1649    0.6721 C.ar    1  LIG1        0.0476
     15 C          -4.6329   -1.1997    0.6626 C.ar    1  LIG1        0.0652
     16 C          -3.9969   -2.3839    0.3337 C.ar    1  LIG1        0.0811
     17 N          -2.6615   -2.1038    0.1796 N.ar    1  LIG1       -0.3500
     18 H          -2.0386   -2.6954   -0.3496 H       1  LIG1        0.1661
     19 S          -3.9127    1.5282    1.0715 S.3     1  LIG1       -0.1393
     20 H          -4.9883    1.2879    1.8427 H       1  LIG1        0.1072
     21 C          -5.9940   -1.0437    1.0295 C.1     1  LIG1       -0.0664
     22 C          -7.1413   -0.8854    1.3605 C.1     1  LIG1       -0.1138
     23 H          -8.1641   -0.7644    1.6339 H       1  LIG1        0.1232
     24 C          -4.4974   -3.7354    0.1795 C.ar    1  LIG1        0.0787
     25 C          -5.5954   -4.2527   -0.4757 C.ar    1  LIG1        0.0469
     26 C          -5.5488   -5.6787   -0.3288 C.ar    1  LIG1        0.0557
     27 C          -4.4207   -5.9741    0.4054 C.ar    1  LIG1        0.0188
     28 N          -3.7911   -4.8068    0.6994 N.ar    1  LIG1       -0.3575
     29 H          -3.0236   -4.7096    1.3437 H       1  LIG1        0.1654
     30 H          -4.0399   -6.9296    0.7299 H       1  LIG1        0.0820
     31 S          -6.8166   -3.3385   -1.3566 S.3     1  LIG1       -0.1394
     32 H          -7.0983   -4.3300   -2.2205 H       1  LIG1        0.1072
     33 C          -6.4703   -6.6100   -0.8766 C.1     1  LIG1       -0.0671
     34 C          -7.2614   -7.3791   -1.3599 C.1     1  LIG1       -0.1138
     35 H          -7.9618   -8.0662   -1.7753 H       1  LIG1        0.1232
@<TRIPOS>BOND
     1    12    11    1
     2    32    31    1
     3    11    10    3
     4    35    34    1
     5     9     8    1
     6    34    33    3
     7    31    25    1
     8    10     3    1
     9    33    26    1
    10     8     2    1
    11    25    26   ar
    12    25    24   ar
    13     3     2   ar
    14     3     4   ar
    15    18    17    1
    16    26    27   ar
    17     2     1   ar
    18    24    16    1
    19    24    28   ar
    20    17    16   ar
    21    17    13   ar
    22     4    13    1
    23     4     5   ar
    24    16    15   ar
    25    13    14   ar
    26    27    28   ar
    27    27    30    1
    28     1     5   ar
    29     1     7    1
    30    15    14   ar
    31    15    21    1
    32    14    19    1
    33    28    29    1
    34     5     6    1
    35    21    22    3
    36    19    20    1
    37    22    23    1
