@<TRIPOS>MOLECULE
mol_data/opt/cam/geoms/mol2/13ge13ge13ge-.out
 35 37 0 0 0
SMALL
GASTEIGER

@<TRIPOS>ATOM
      1 C           0.9117   -0.1950    1.3377 C.ar    1  LIG1        0.0167
      2 C           0.8337    0.8631    0.4717 C.ar    1  LIG1        0.0381
      3 C          -0.4812    0.8525   -0.1012 C.ar    1  LIG1        0.0645
      4 C          -1.1585   -0.2177    0.4578 C.ar    1  LIG1        0.0807
      5 N          -0.2857   -0.8551    1.3085 N.ar    1  LIG1       -0.3575
      6 H          -0.5583   -1.5842    1.9480 H       1  LIG1        0.1654
      7 H           1.7283   -0.5185    1.9638 H       1  LIG1        0.0818
      8 S           2.1751    1.9384    0.0704 S.3     1  LIG1       -0.1400
      9 H           1.6071    3.0893    0.4728 H       1  LIG1        0.1072
     10 C          -0.9898    1.7444   -1.0811 C.1     1  LIG1       -0.0664
     11 C          -1.4158    2.5059   -1.9105 C.1     1  LIG1       -0.1138
     12 H          -1.8028    3.1767   -2.6422 H       1  LIG1        0.1232
     13 C          -2.5072   -0.7160    0.2511 C.ar    1  LIG1        0.0791
     14 C          -3.7398   -0.1040    0.3249 C.ar    1  LIG1        0.0476
     15 C          -4.7340   -1.1022    0.0740 C.ar    1  LIG1        0.0652
     16 C          -4.0731   -2.3032   -0.1347 C.ar    1  LIG1        0.0811
     17 N          -2.7330   -2.0481   -0.0354 N.ar    1  LIG1       -0.3500
     18 H          -2.0083   -2.7387   -0.1480 H       1  LIG1        0.1661
     19 S          -4.0301    1.6030    0.6515 S.3     1  LIG1       -0.1393
     20 H          -5.2120    1.4071    1.2620 H       1  LIG1        0.1072
     21 C          -6.1371   -0.8962    0.0388 C.1     1  LIG1       -0.0664
     22 C          -7.3252   -0.6997    0.0198 C.1     1  LIG1       -0.1138
     23 H          -8.3789   -0.5434   -0.0035 H       1  LIG1        0.1232
     24 C          -4.5698   -3.6309   -0.4503 C.ar    1  LIG1        0.0787
     25 C          -5.5113   -4.4331    0.1562 C.ar    1  LIG1        0.0469
     26 C          -5.5564   -5.6681   -0.5712 C.ar    1  LIG1        0.0557
     27 C          -4.6356   -5.5692   -1.5920 C.ar    1  LIG1        0.0188
     28 N          -4.0424   -4.3497   -1.5096 N.ar    1  LIG1       -0.3575
     29 H          -3.4447   -3.9503   -2.2153 H       1  LIG1        0.1654
     30 H          -4.3768   -6.2827   -2.3584 H       1  LIG1        0.0820
     31 S          -6.4717   -4.0179    1.5742 S.3     1  LIG1       -0.1394
     32 H          -6.5898   -5.2840    2.0118 H       1  LIG1        0.1072
     33 C          -6.3676   -6.7934   -0.2673 C.1     1  LIG1       -0.0671
     34 C          -7.0595   -7.7372    0.0178 C.1     1  LIG1       -0.1138
     35 H          -7.6762   -8.5730    0.2553 H       1  LIG1        0.1232
@<TRIPOS>BOND
     1    12    11    1
     2    30    27    1
     3    29    28    1
     4    11    10    3
     5    27    28   ar
     6    27    26   ar
     7    28    24   ar
     8    10     3    1
     9    26    33    1
    10    26    25   ar
    11    24    16    1
    12    24    25   ar
    13    33    34    3
    14    18    17    1
    15    16    17   ar
    16    16    15   ar
    17     3     4   ar
    18     3     2   ar
    19    17    13   ar
    20    23    22    1
    21    34    35    1
    22    22    21    3
    23    21    15    1
    24     8     2    1
    25     8     9    1
    26    15    14   ar
    27    25    31    1
    28    13    14   ar
    29    13     4    1
    30    14    19    1
    31     4     5   ar
    32     2     1   ar
    33    19    20    1
    34     5     1   ar
    35     5     6    1
    36     1     7    1
    37    31    32    1
