@<TRIPOS>MOLECULE
mol_data/opt/cam/geoms/mol2/13ge13ge-13ge-.out
 35 37 0 0 0
SMALL
GASTEIGER

@<TRIPOS>ATOM
      1 C           1.1422   -0.1749   -0.5650 C.ar    1  LIG1        0.0167
      2 C           0.8282    0.9233    0.1883 C.ar    1  LIG1        0.0381
      3 C          -0.5890    0.9056    0.4028 C.ar    1  LIG1        0.0645
      4 C          -1.0876   -0.2144   -0.2469 C.ar    1  LIG1        0.0807
      5 N          -0.0209   -0.8653   -0.8075 N.ar    1  LIG1       -0.3575
      6 H          -0.1118   -1.6282   -1.4580 H       1  LIG1        0.1654
      7 H           2.0923   -0.5189   -0.9419 H       1  LIG1        0.0818
      8 S           1.9706    2.1165    0.8067 S.3     1  LIG1       -0.1400
      9 H           1.0342    2.8874    1.3857 H       1  LIG1        0.1072
     10 C          -1.3202    1.8343    1.1856 C.1     1  LIG1       -0.0664
     11 C          -1.9067    2.6412    1.8616 C.1     1  LIG1       -0.1138
     12 H          -2.4518    3.3426    2.4501 H       1  LIG1        0.1232
     13 C          -2.4325   -0.7445   -0.3577 C.ar    1  LIG1        0.0791
     14 C          -3.6393   -0.1574   -0.6618 C.ar    1  LIG1        0.0476
     15 C          -4.6351   -1.1908   -0.6585 C.ar    1  LIG1        0.0652
     16 C          -3.9993   -2.3794   -0.3451 C.ar    1  LIG1        0.0811
     17 N          -2.6628   -2.1029   -0.1943 N.ar    1  LIG1       -0.3500
     18 H          -2.0383   -2.7009    0.3257 H       1  LIG1        0.1661
     19 S          -3.9127    1.5401   -1.0420 S.3     1  LIG1       -0.1393
     20 H          -4.9923    1.3096   -1.8106 H       1  LIG1        0.1072
     21 C          -5.9976   -1.0290   -1.0173 C.1     1  LIG1       -0.0664
     22 C          -7.1462   -0.8654   -1.3413 C.1     1  LIG1       -0.1138
     23 H          -8.1701   -0.7401   -1.6085 H       1  LIG1        0.1232
     24 C          -4.5012   -3.7316   -0.2027 C.ar    1  LIG1        0.0787
     25 C          -5.5969   -4.2543    0.4521 C.ar    1  LIG1        0.0469
     26 C          -5.5531   -5.6786    0.2901 C.ar    1  LIG1        0.0557
     27 C          -4.4289   -5.9679   -0.4525 C.ar    1  LIG1        0.0188
     28 N          -3.7989   -4.7985   -0.7372 N.ar    1  LIG1       -0.3575
     29 H          -3.0342   -4.6958   -1.3840 H       1  LIG1        0.1654
     30 H          -4.0511   -6.9206   -0.7888 H       1  LIG1        0.0820
     31 S          -6.8126   -3.3475    1.3483 S.3     1  LIG1       -0.1394
     32 H          -7.0918   -4.3477    2.2030 H       1  LIG1        0.1072
     33 C          -6.4734   -6.6143    0.8324 C.1     1  LIG1       -0.0671
     34 C          -7.2634   -7.3873    1.3112 C.1     1  LIG1       -0.1138
     35 H          -7.9629   -8.0777    1.7227 H       1  LIG1        0.1232
@<TRIPOS>BOND
     1    20    19    1
     2    23    22    1
     3     6     5    1
     4    29    28    1
     5    22    21    3
     6    19    14    1
     7    21    15    1
     8     7     1    1
     9     5     1   ar
    10     5     4   ar
    11    30    27    1
    12    28    27   ar
    13    28    24   ar
    14    14    15   ar
    15    14    13   ar
    16    15    16   ar
    17     1     2   ar
    18    27    26   ar
    19    13     4    1
    20    13    17   ar
    21    16    24    1
    22    16    17   ar
    23     4     3   ar
    24    24    25   ar
    25    17    18    1
    26     2     3   ar
    27     2     8    1
    28    26    25   ar
    29    26    33    1
    30     3    10    1
    31    25    31    1
    32     8     9    1
    33    33    34    3
    34    10    11    3
    35    34    35    1
    36    31    32    1
    37    11    12    1
