@<TRIPOS>MOLECULE
mol_data/opt/cam/geoms/mol2/13ge.out
 13 13 0 0 0
SMALL
GASTEIGER

@<TRIPOS>ATOM
      1 C           1.1071   -0.4140   -0.0003 C.ar    1  LIG1        0.0161
      2 C           0.7023    0.8941    0.0002 C.ar    1  LIG1        0.0375
      3 C          -0.7324    0.8966    0.0004 C.ar    1  LIG1        0.0551
      4 C          -1.1338   -0.4238    0.0005 C.ar    1  LIG1        0.0183
      5 N          -0.0202   -1.2010   -0.0002 N.ar    1  LIG1       -0.3650
      6 H          -0.0187   -2.2069   -0.0004 H       1  LIG1        0.1648
      7 H          -2.1275   -0.8430    0.0008 H       1  LIG1        0.0819
      8 H           2.0961   -0.8438   -0.0006 H       1  LIG1        0.0818
      9 S           1.7608    2.3065    0.0002 S.3     1  LIG1       -0.1400
     10 H           0.7610    3.2047    0.0005 H       1  LIG1        0.1072
     11 C          -1.5676    2.0445    0.0007 C.1     1  LIG1       -0.0671
     12 C          -2.2421    3.0433    0.0012 C.1     1  LIG1       -0.1138
     13 H          -2.8537    3.9156    0.0015 H       1  LIG1        0.1232
@<TRIPOS>BOND
     1     8     1    1
     2     6     5    1
     3     1     5   ar
     4     1     2   ar
     5     5     4   ar
     6     2     9    1
     7     2     3   ar
     8     9    10    1
     9     3     4   ar
    10     3    11    1
    11     4     7    1
    12    11    12    3
    13    12    13    1
