@<TRIPOS>MOLECULE
mol_data/opt/cam/geoms/mol2/13ge13ge.out
 24 25 0 0 0
SMALL
GASTEIGER

@<TRIPOS>ATOM
      1 C           1.0707   -0.3050    0.6070 C.ar    1  LIG1        0.0167
      2 C           0.7923    0.9627    0.1707 C.ar    1  LIG1        0.0381
      3 C          -0.5953    0.9975   -0.1914 C.ar    1  LIG1        0.0645
      4 C          -1.1107   -0.2635    0.0568 C.ar    1  LIG1        0.0806
      5 N          -0.0765   -1.0446    0.5161 N.ar    1  LIG1       -0.3575
      6 H          -0.1992   -1.9704    0.8932 H       1  LIG1        0.1654
      7 H           1.9954   -0.7254    0.9698 H       1  LIG1        0.0818
      8 S           1.9872    2.2484   -0.0176 S.3     1  LIG1       -0.1400
      9 H           1.4215    3.1405    0.8151 H       1  LIG1        0.1072
     10 C          -1.3035    2.0997   -0.7367 C.1     1  LIG1       -0.0664
     11 C          -1.8982    3.0396   -1.1975 C.1     1  LIG1       -0.1138
     12 H          -2.4342    3.8648   -1.6057 H       1  LIG1        0.1232
     13 C          -2.4432   -0.8125   -0.1214 C.ar    1  LIG1        0.0787
     14 C          -3.6860   -0.3768    0.2835 C.ar    1  LIG1        0.0469
     15 C          -4.6443   -1.3550   -0.1433 C.ar    1  LIG1        0.0557
     16 C          -3.9445   -2.3517   -0.7881 C.ar    1  LIG1        0.0188
     17 N          -2.6258   -2.0238   -0.7657 N.ar    1  LIG1       -0.3575
     18 H          -1.9045   -2.4932   -1.2889 H       1  LIG1        0.1654
     19 H          -4.3034   -3.2560   -1.2537 H       1  LIG1        0.0820
     20 S          -4.0299    1.1061    1.1714 S.3     1  LIG1       -0.1394
     21 H          -5.0936    0.6079    1.8265 H       1  LIG1        0.1072
     22 C          -6.0440   -1.3204    0.0940 C.1     1  LIG1       -0.0671
     23 C          -7.2269   -1.2725    0.3163 C.1     1  LIG1       -0.1138
     24 H          -8.2758   -1.2323    0.4989 H       1  LIG1        0.1232
@<TRIPOS>BOND
     1    12    11    1
     2    18    17    1
     3    19    16    1
     4    11    10    3
     5    16    17   ar
     6    16    15   ar
     7    17    13   ar
     8    10     3    1
     9     3     4   ar
    10     3     2   ar
    11    15    22    1
    12    15    14   ar
    13    13     4    1
    14    13    14   ar
    15     8     2    1
    16     8     9    1
    17     4     5   ar
    18    22    23    3
    19     2     1   ar
    20    14    20    1
    21    23    24    1
    22     5     1   ar
    23     5     6    1
    24     1     7    1
    25    20    21    1
