@<TRIPOS>MOLECULE
mol_data/opt/cam/geoms/mol2/13ge13ge13ge-13ge.out
 46 49 0 0 0
SMALL
GASTEIGER

@<TRIPOS>ATOM
      1 C           0.3523    0.1306    2.4913 C.ar    1  LIG1        0.0167
      2 C           0.6769    0.8497    1.3718 C.ar    1  LIG1        0.0381
      3 C          -0.3763    0.6564    0.4177 C.ar    1  LIG1        0.0645
      4 C          -1.3135   -0.1724    1.0106 C.ar    1  LIG1        0.0807
      5 N          -0.8386   -0.5005    2.2587 N.ar    1  LIG1       -0.3575
      6 H          -1.3818   -0.9824    2.9571 H       1  LIG1        0.1654
      7 H           0.8816    0.0265    3.4254 H       1  LIG1        0.0818
      8 S           2.1883    1.7330    1.1441 S.3     1  LIG1       -0.1400
      9 H           1.6532    2.9508    0.9443 H       1  LIG1        0.1072
     10 C          -0.4384    1.1824   -0.8990 C.1     1  LIG1       -0.0664
     11 C          -0.4850    1.6339   -2.0141 C.1     1  LIG1       -0.1138
     12 H          -0.5366    2.0327   -3.0007 H       1  LIG1        0.1232
     13 C          -2.5706   -0.7082    0.5177 C.ar    1  LIG1        0.0791
     14 C          -3.6833   -0.1025   -0.0255 C.ar    1  LIG1        0.0476
     15 C          -4.6496   -1.1258   -0.2833 C.ar    1  LIG1        0.0652
     16 C          -4.0972   -2.3305    0.1236 C.ar    1  LIG1        0.0811
     17 N          -2.8402   -2.0603    0.5909 N.ar    1  LIG1       -0.3500
     18 H          -2.2045   -2.7493    0.9602 H       1  LIG1        0.1661
     19 S          -3.8668    1.6183   -0.3574 S.3     1  LIG1       -0.1393
     20 H          -5.1940    1.6400   -0.1423 H       1  LIG1        0.1072
     21 C          -5.9349   -0.9409   -0.8550 C.1     1  LIG1       -0.0664
     22 C          -7.0244   -0.7607   -1.3355 C.1     1  LIG1       -0.1138
     23 H          -7.9916   -0.6183   -1.7592 H       1  LIG1        0.1232
     24 C          -4.6142   -3.6874    0.0769 C.ar    1  LIG1        0.0791
     25 C          -5.7691   -4.2519    0.5733 C.ar    1  LIG1        0.0476
     26 C          -5.7275   -5.6515    0.2789 C.ar    1  LIG1        0.0652
     27 C          -4.5348   -5.9011   -0.3833 C.ar    1  LIG1        0.0811
     28 N          -3.8827   -4.7052   -0.5041 N.ar    1  LIG1       -0.3500
     29 H          -2.9913   -4.5826   -0.9574 H       1  LIG1        0.1661
     30 S          -7.0643   -3.3951    1.4057 S.3     1  LIG1       -0.1393
     31 H          -7.4437   -4.4492    2.1494 H       1  LIG1        0.1072
     32 C          -6.7285   -6.6038    0.6005 C.1     1  LIG1       -0.0664
     33 C          -7.5892   -7.3950    0.8899 C.1     1  LIG1       -0.1138
     34 H          -8.3416   -8.1087    1.1349 H       1  LIG1        0.1232
     35 C          -3.9796   -7.1249   -0.9340 C.ar    1  LIG1        0.0787
     36 C          -3.7529   -8.3662   -0.3811 C.ar    1  LIG1        0.0469
     37 C          -3.1335   -9.1782   -1.3877 C.ar    1  LIG1        0.0557
     38 C          -3.0046   -8.3954   -2.5147 C.ar    1  LIG1        0.0188
     39 N          -3.5061   -7.1642   -2.2344 N.ar    1  LIG1       -0.3575
     40 H          -3.6788   -6.4432   -2.9164 H       1  LIG1        0.1654
     41 H          -2.5949   -8.6414   -3.4817 H       1  LIG1        0.0820
     42 S          -4.1409   -8.8572    1.2663 S.3     1  LIG1       -0.1394
     43 H          -3.1416   -9.7522    1.3610 H       1  LIG1        0.1072
     44 C          -2.6981  -10.5210   -1.2332 C.1     1  LIG1       -0.0671
     45 C          -2.3295  -11.6564   -1.0726 C.1     1  LIG1       -0.1138
     46 H          -2.0101  -12.6647   -0.9439 H       1  LIG1        0.1232
@<TRIPOS>BOND
     1    41    38    1
     2    12    11    1
     3    40    39    1
     4    38    39   ar
     5    38    37   ar
     6    39    35   ar
     7    11    10    3
     8    23    22    1
     9    37    44    1
    10    37    36   ar
    11    22    21    3
    12    44    45    3
    13    45    46    1
    14    29    28    1
    15    35    27    1
    16    35    36   ar
    17    10     3    1
    18    21    15    1
    19    28    27   ar
    20    28    24   ar
    21    27    26   ar
    22    36    42    1
    23    19    20    1
    24    19    14    1
    25    15    14   ar
    26    15    16   ar
    27    14    13   ar
    28    24    16    1
    29    24    25   ar
    30    16    17   ar
    31    26    25   ar
    32    26    32    1
    33     3     4   ar
    34     3     2   ar
    35    13    17   ar
    36    13     4    1
    37    25    30    1
    38    17    18    1
    39    32    33    3
    40    33    34    1
    41     9     8    1
    42     4     5   ar
    43     8     2    1
    44    42    43    1
    45     2     1   ar
    46    30    31    1
    47     5     1   ar
    48     5     6    1
    49     1     7    1
