@<TRIPOS>MOLECULE
mol_data/opt/cam/geoms/mol2/13ge13ge-13ge-13ge-.out
 46 49 0 0 0
SMALL
GASTEIGER

@<TRIPOS>ATOM
      1 C           0.3640    0.5433    2.0880 C.ar    1  LIG1        0.0167
      2 C           0.6102    1.1370    0.8787 C.ar    1  LIG1        0.0381
      3 C          -0.4703    0.7890    0.0020 C.ar    1  LIG1        0.0645
      4 C          -1.3440   -0.0013    0.7290 C.ar    1  LIG1        0.0807
      5 N          -0.8046   -0.1600    1.9843 N.ar    1  LIG1       -0.3575
      6 H          -1.3004   -0.5722    2.7584 H       1  LIG1        0.1654
      7 H           0.9342    0.5736    3.0031 H       1  LIG1        0.0818
      8 S           2.0693    2.0481    0.4817 S.3     1  LIG1       -0.1400
      9 H           1.4713    3.2106    0.1649 H       1  LIG1        0.1072
     10 C          -0.6100    1.1529   -1.3627 C.1     1  LIG1       -0.0664
     11 C          -0.7237    1.4671   -2.5193 C.1     1  LIG1       -0.1138
     12 H          -0.8350    1.7425   -3.5425 H       1  LIG1        0.1232
     13 C          -2.5952   -0.6410    0.3611 C.ar    1  LIG1        0.0791
     14 C          -3.7598   -0.1468   -0.1851 C.ar    1  LIG1        0.0476
     15 C          -4.6880   -1.2319   -0.2806 C.ar    1  LIG1        0.0652
     16 C          -4.0601   -2.3607    0.2256 C.ar    1  LIG1        0.0811
     17 N          -2.7971   -1.9872    0.5953 N.ar    1  LIG1       -0.3500
     18 H          -2.1083   -2.6085    0.9870 H       1  LIG1        0.1661
     19 S          -4.0396    1.5174   -0.6909 S.3     1  LIG1       -0.1393
     20 H          -5.3604    1.4972   -0.4393 H       1  LIG1        0.1072
     21 C          -6.0020   -1.1634   -0.8101 C.1     1  LIG1       -0.0664
     22 C          -7.1163   -1.0808   -1.2596 C.1     1  LIG1       -0.1138
     23 H          -8.1033   -1.0290   -1.6575 H       1  LIG1        0.1232
     24 C          -4.5078   -3.7346    0.3525 C.ar    1  LIG1        0.0791
     25 C          -5.6468   -4.2885    0.8885 C.ar    1  LIG1        0.0476
     26 C          -5.5292   -5.7142    0.7738 C.ar    1  LIG1        0.0652
     27 C          -4.3181   -5.9825    0.1601 C.ar    1  LIG1        0.0811
     28 N          -3.6937   -4.7796   -0.0624 N.ar    1  LIG1       -0.3500
     29 H          -2.9758   -4.6637   -0.7622 H       1  LIG1        0.1661
     30 S          -6.9834   -3.4158    1.6317 S.3     1  LIG1       -0.1393
     31 H          -7.3468   -4.4312    2.4357 H       1  LIG1        0.1072
     32 C          -6.4442   -6.6638    1.2956 C.1     1  LIG1       -0.0664
     33 C          -7.2309   -7.4471    1.7632 C.1     1  LIG1       -0.1138
     34 H          -7.9219   -8.1581    2.1537 H       1  LIG1        0.1232
     35 C          -3.6830   -7.2310   -0.2115 C.ar    1  LIG1        0.0787
     36 C          -4.1545   -8.3640   -0.8416 C.ar    1  LIG1        0.0469
     37 C          -3.0464   -9.2615   -0.9934 C.ar    1  LIG1        0.0557
     38 C          -1.9421   -8.6374   -0.4549 C.ar    1  LIG1        0.0188
     39 N          -2.3282   -7.4188    0.0042 N.ar    1  LIG1       -0.3575
     40 H          -1.7614   -6.8071    0.5683 H       1  LIG1        0.1654
     41 H          -0.9247   -8.9860   -0.3728 H       1  LIG1        0.0820
     42 S          -5.8038   -8.6494   -1.3904 S.3     1  LIG1       -0.1394
     43 H          -5.4466   -9.4611   -2.4015 H       1  LIG1        0.1072
     44 C          -3.0773  -10.5351   -1.6208 C.1     1  LIG1       -0.0671
     45 C          -3.1291  -11.6080   -2.1658 C.1     1  LIG1       -0.1138
     46 H          -3.1673  -12.5624   -2.6380 H       1  LIG1        0.1232
@<TRIPOS>BOND
     1    12    11    1
     2    46    45    1
     3    11    10    3
     4    43    42    1
     5    45    44    3
     6    23    22    1
     7    44    37    1
     8    42    36    1
     9    10     3    1
    10    22    21    3
    11    37    36   ar
    12    37    38   ar
    13    36    35   ar
    14    21    15    1
    15    29    28    1
    16    19    20    1
    17    19    14    1
    18    38    41    1
    19    38    39   ar
    20    15    14   ar
    21    15    16   ar
    22    35    39   ar
    23    35    27    1
    24    14    13   ar
    25    28    27   ar
    26    28    24   ar
    27     3     4   ar
    28     3     2   ar
    29    39    40    1
    30    27    26   ar
    31     9     8    1
    32    16    24    1
    33    16    17   ar
    34    24    25   ar
    35    13    17   ar
    36    13     4    1
    37     8     2    1
    38    17    18    1
    39     4     5   ar
    40    26    25   ar
    41    26    32    1
    42     2     1   ar
    43    25    30    1
    44    32    33    3
    45    30    31    1
    46    33    34    1
    47     5     1   ar
    48     5     6    1
    49     1     7    1
