@<TRIPOS>MOLECULE
mol_data/opt/cam/geoms/mol2/13ge13ge-13ge.out
 35 37 0 0 0
SMALL
GASTEIGER

@<TRIPOS>ATOM
      1 C           0.8807   -0.1628   -1.4031 C.ar    1  LIG1        0.0167
      2 C           0.8193    0.8786   -0.5158 C.ar    1  LIG1        0.0381
      3 C          -0.4834    0.8550    0.0840 C.ar    1  LIG1        0.0645
      4 C          -1.1708   -0.2056   -0.4811 C.ar    1  LIG1        0.0807
      5 N          -0.3151   -0.8253   -1.3616 N.ar    1  LIG1       -0.3575
      6 H          -0.6000   -1.5424   -2.0093 H       1  LIG1        0.1654
      7 H           1.6843   -0.4728   -2.0524 H       1  LIG1        0.0818
      8 S           2.1676    1.9481   -0.1221 S.3     1  LIG1       -0.1400
      9 H           1.5900    3.1057   -0.4904 H       1  LIG1        0.1072
     10 C          -0.9724    1.7273    1.0910 C.1     1  LIG1       -0.0664
     11 C          -1.3817    2.4723    1.9436 C.1     1  LIG1       -0.1138
     12 H          -1.7539    3.1285    2.6958 H       1  LIG1        0.1232
     13 C          -2.5142   -0.7100   -0.2558 C.ar    1  LIG1        0.0791
     14 C          -3.7488   -0.0987   -0.2919 C.ar    1  LIG1        0.0476
     15 C          -4.7363   -1.1031   -0.0393 C.ar    1  LIG1        0.0652
     16 C          -4.0697   -2.3068    0.1324 C.ar    1  LIG1        0.0811
     17 N          -2.7322   -2.0477    0.0100 N.ar    1  LIG1       -0.3500
     18 H          -2.0045   -2.7392    0.0939 H       1  LIG1        0.1661
     19 S          -4.0481    1.6138   -0.5794 S.3     1  LIG1       -0.1393
     20 H          -5.2419    1.4277   -1.1695 H       1  LIG1        0.1072
     21 C          -6.1387   -0.9002    0.0294 C.1     1  LIG1       -0.0664
     22 C          -7.3263   -0.7060    0.0772 C.1     1  LIG1       -0.1138
     23 H          -8.3795   -0.5519    0.1257 H       1  LIG1        0.1232
     24 C          -4.5580   -3.6412    0.4327 C.ar    1  LIG1        0.0787
     25 C          -5.5113   -4.4329   -0.1690 C.ar    1  LIG1        0.0469
     26 C          -5.5394   -5.6819    0.5351 C.ar    1  LIG1        0.0557
     27 C          -4.5972   -5.6013    1.5377 C.ar    1  LIG1        0.0188
     28 N          -4.0072   -4.3795    1.4663 N.ar    1  LIG1       -0.3575
     29 H          -3.3955   -3.9927    2.1671 H       1  LIG1        0.1654
     30 H          -4.3212   -6.3291    2.2844 H       1  LIG1        0.0820
     31 S          -6.5022   -3.9920   -1.5579 S.3     1  LIG1       -0.1394
     32 H          -6.6270   -5.2494   -2.0181 H       1  LIG1        0.1072
     33 C          -6.3556   -6.8023    0.2269 C.1     1  LIG1       -0.0671
     34 C          -7.0524   -7.7415   -0.0616 C.1     1  LIG1       -0.1138
     35 H          -7.6731   -8.5736   -0.3019 H       1  LIG1        0.1232
@<TRIPOS>BOND
     1     7     1    1
     2    32    31    1
     3     6     5    1
     4    31    25    1
     5     1     5   ar
     6     1     2   ar
     7     5     4   ar
     8    20    19    1
     9    19    14    1
    10     2     8    1
    11     2     3   ar
    12     9     8    1
    13     4    13    1
    14     4     3   ar
    15    35    34    1
    16    14    13   ar
    17    14    15   ar
    18    13    17   ar
    19    25    24   ar
    20    25    26   ar
    21    34    33    3
    22    15    21    1
    23    15    16   ar
    24    17    18    1
    25    17    16   ar
    26    21    22    3
    27    22    23    1
    28     3    10    1
    29    16    24    1
    30    33    26    1
    31    24    28   ar
    32    26    27   ar
    33    10    11    3
    34    28    27   ar
    35    28    29    1
    36    27    30    1
    37    11    12    1
