@<TRIPOS>MOLECULE
mol_data/opt/cam/geoms/mol2/13ge13ge13ge13ge.out
 46 49 0 0 0
SMALL
GASTEIGER

@<TRIPOS>ATOM
      1 C           1.1798   -0.1608    0.3010 C.ar    1  LIG1        0.0167
      2 C           0.7913    1.0440   -0.2184 C.ar    1  LIG1        0.0381
      3 C          -0.6399    1.0357   -0.2978 C.ar    1  LIG1        0.0645
      4 C          -1.0701   -0.1887    0.1924 C.ar    1  LIG1        0.0807
      5 N           0.0478   -0.9067    0.5268 N.ar    1  LIG1       -0.3575
      6 H           0.0214   -1.7668    1.0491 H       1  LIG1        0.1654
      7 H           2.1628   -0.5443    0.5238 H       1  LIG1        0.0818
      8 S           1.8665    2.3435   -0.7344 S.3     1  LIG1       -0.1400
      9 H           0.8797    3.2167   -0.9989 H       1  LIG1        0.1072
     10 C          -1.4474    2.0725   -0.8300 C.1     1  LIG1       -0.0664
     11 C          -2.1010    2.9738   -1.2909 C.1     1  LIG1       -0.1138
     12 H          -2.7036    3.7569   -1.6897 H       1  LIG1        0.1232
     13 C          -2.3969   -0.7547    0.3395 C.ar    1  LIG1        0.0791
     14 C          -3.5639   -0.2566    0.8711 C.ar    1  LIG1        0.0476
     15 C          -4.5559   -1.2896    0.7803 C.ar    1  LIG1        0.0652
     16 C          -3.9585   -2.3877    0.1842 C.ar    1  LIG1        0.0811
     17 N          -2.6446   -2.0634   -0.0487 N.ar    1  LIG1       -0.3500
     18 H          -2.0777   -2.5442   -0.7304 H       1  LIG1        0.1661
     19 S          -3.7919    1.3358    1.5870 S.3     1  LIG1       -0.1393
     20 H          -4.7927    0.9504    2.3990 H       1  LIG1        0.1072
     21 C          -5.8677   -1.2222    1.3140 C.1     1  LIG1       -0.0664
     22 C          -6.9702   -1.1414    1.7929 C.1     1  LIG1       -0.1138
     23 H          -7.9552   -1.0890    2.1959 H       1  LIG1        0.1232
     24 C          -4.4709   -3.6980   -0.1562 C.ar    1  LIG1        0.0791
     25 C          -5.6543   -4.1172   -0.7233 C.ar    1  LIG1        0.0476
     26 C          -5.5838   -5.5437   -0.8611 C.ar    1  LIG1        0.0652
     27 C          -4.3559   -5.9497   -0.3691 C.ar    1  LIG1        0.0811
     28 N          -3.6786   -4.8227    0.0257 N.ar    1  LIG1       -0.3500
     29 H          -2.9169   -4.8503    0.6863 H       1  LIG1        0.1661
     30 S          -6.9884   -3.0989   -1.2544 S.3     1  LIG1       -0.1393
     31 H          -7.4164   -3.9642   -2.1914 H       1  LIG1        0.1072
     32 C          -6.5572   -6.3650   -1.4853 C.1     1  LIG1       -0.0664
     33 C          -7.3936   -7.0370   -2.0327 C.1     1  LIG1       -0.1138
     34 H          -8.1282   -7.6519   -2.4994 H       1  LIG1        0.1232
     35 C          -3.7496   -7.2615   -0.2583 C.ar    1  LIG1        0.0787
     36 C          -4.2248   -8.4686    0.2097 C.ar    1  LIG1        0.0469
     37 C          -3.1497   -9.4140    0.1243 C.ar    1  LIG1        0.0557
     38 C          -2.0603   -8.7436   -0.3883 C.ar    1  LIG1        0.0188
     39 N          -2.4229   -7.4525   -0.6062 N.ar    1  LIG1       -0.3575
     40 H          -1.8772   -6.7772   -1.1162 H       1  LIG1        0.1654
     41 H          -1.0686   -9.1065   -0.6083 H       1  LIG1        0.0820
     42 S          -5.8442   -8.7875    0.8251 S.3     1  LIG1       -0.1394
     43 H          -5.4578   -9.7700    1.6582 H       1  LIG1        0.1072
     44 C          -3.1923  -10.7732    0.5333 C.1     1  LIG1       -0.0671
     45 C          -3.2528  -11.9201    0.8962 C.1     1  LIG1       -0.1138
     46 H          -3.3002  -12.9388    1.2049 H       1  LIG1        0.1232
@<TRIPOS>BOND
     1    34    33    1
     2    31    30    1
     3    33    32    3
     4    12    11    1
     5    32    26    1
     6    11    10    3
     7    30    25    1
     8    40    39    1
     9     9     8    1
    10    26    25   ar
    11    26    27   ar
    12    10     3    1
    13     8     2    1
    14    18    17    1
    15    25    24   ar
    16    41    38    1
    17    39    38   ar
    18    39    35   ar
    19    38    37   ar
    20    27    35    1
    21    27    28   ar
    22     3     2   ar
    23     3     4   ar
    24    35    36   ar
    25     2     1   ar
    26    24    28   ar
    27    24    16    1
    28    17    16   ar
    29    17    13   ar
    30    28    29    1
    31    37    36   ar
    32    37    44    1
    33    16    15   ar
    34     4    13    1
    35     4     5   ar
    36    36    42    1
    37     1     7    1
    38     1     5   ar
    39    13    14   ar
    40     5     6    1
    41    44    45    3
    42    15    14   ar
    43    15    21    1
    44    42    43    1
    45    14    19    1
    46    45    46    1
    47    21    22    3
    48    19    20    1
    49    22    23    1
