@<TRIPOS>MOLECULE
mol_data/opt/cam/geoms/mol2/13ge13ge13ge13ge-.out
 46 49 0 0 0
SMALL
GASTEIGER

@<TRIPOS>ATOM
      1 C           1.1828   -0.1619    0.2670 C.ar    1  LIG1        0.0167
      2 C           0.7921    1.0417   -0.2536 C.ar    1  LIG1        0.0381
      3 C          -0.6395    1.0338   -0.3256 C.ar    1  LIG1        0.0645
      4 C          -1.0676   -0.1891    0.1699 C.ar    1  LIG1        0.0807
      5 N           0.0516   -0.9067    0.5004 N.ar    1  LIG1       -0.3575
      6 H           0.0275   -1.7655    1.0251 H       1  LIG1        0.1654
      7 H           2.1668   -0.5452    0.4856 H       1  LIG1        0.0818
      8 S           1.8653    2.3393   -0.7785 S.3     1  LIG1       -0.1400
      9 H           0.8775    3.2124   -1.0400 H       1  LIG1        0.1072
     10 C          -1.4492    2.0696   -0.8564 C.1     1  LIG1       -0.0664
     11 C          -2.1047    2.9700   -1.3163 C.1     1  LIG1       -0.1138
     12 H          -2.7091    3.7523   -1.7141 H       1  LIG1        0.1232
     13 C          -2.3939   -0.7541    0.3252 C.ar    1  LIG1        0.0791
     14 C          -3.5580   -0.2541    0.8615 C.ar    1  LIG1        0.0476
     15 C          -4.5509   -1.2869    0.7784 C.ar    1  LIG1        0.0652
     16 C          -3.9570   -2.3869    0.1822 C.ar    1  LIG1        0.0811
     17 N          -2.6441   -2.0638   -0.0582 N.ar    1  LIG1       -0.3500
     18 H          -2.0809   -2.5465   -0.7415 H       1  LIG1        0.1661
     19 S          -3.7817    1.3403    1.5743 S.3     1  LIG1       -0.1393
     20 H          -4.7784    0.9574    2.3924 H       1  LIG1        0.1072
     21 C          -5.8599   -1.2176    1.3186 C.1     1  LIG1       -0.0664
     22 C          -6.9599   -1.1351    1.8029 C.1     1  LIG1       -0.1138
     23 H          -7.9428   -1.0811    2.2108 H       1  LIG1        0.1232
     24 C          -4.4716   -3.6978   -0.1521 C.ar    1  LIG1        0.0791
     25 C          -5.6581   -4.1181   -0.7120 C.ar    1  LIG1        0.0476
     26 C          -5.5889   -5.5450   -0.8464 C.ar    1  LIG1        0.0652
     27 C          -4.3586   -5.9501   -0.3596 C.ar    1  LIG1        0.0811
     28 N          -3.6789   -4.8224    0.0287 N.ar    1  LIG1       -0.3500
     29 H          -2.9138   -4.8485    0.6855 H       1  LIG1        0.1661
     30 S          -6.9945   -3.1007   -1.2390 S.3     1  LIG1       -0.1393
     31 H          -7.4276   -3.9683   -2.1714 H       1  LIG1        0.1072
     32 C          -6.5657   -6.3674   -1.4634 C.1     1  LIG1       -0.0664
     33 C          -7.4052   -7.0406   -2.0048 C.1     1  LIG1       -0.1138
     34 H          -8.1425   -7.6564   -2.4661 H       1  LIG1        0.1232
     35 C          -3.7523   -7.2619   -0.2484 C.ar    1  LIG1        0.0787
     36 C          -4.2256   -8.4676    0.2252 C.ar    1  LIG1        0.0469
     37 C          -3.1513   -9.4136    0.1368 C.ar    1  LIG1        0.0557
     38 C          -2.0642   -8.7450   -0.3831 C.ar    1  LIG1        0.0188
     39 N          -2.4274   -7.4543   -0.6026 N.ar    1  LIG1       -0.3575
     40 H          -1.8841   -6.7806   -1.1170 H       1  LIG1        0.1654
     41 H          -1.0739   -9.1089   -0.6071 H       1  LIG1        0.0820
     42 S          -5.8419   -8.7842    0.8496 S.3     1  LIG1       -0.1394
     43 H          -5.4517   -9.7647    1.6834 H       1  LIG1        0.1072
     44 C          -3.1924  -10.7717    0.5496 C.1     1  LIG1       -0.0671
     45 C          -3.2515  -11.9176    0.9158 C.1     1  LIG1       -0.1138
     46 H          -3.2977  -12.9355    1.2275 H       1  LIG1        0.1232
@<TRIPOS>BOND
     1    34    33    1
     2    31    30    1
     3    33    32    3
     4    12    11    1
     5    32    26    1
     6    11    10    3
     7    30    25    1
     8    40    39    1
     9     9     8    1
    10    10     3    1
    11    26    25   ar
    12    26    27   ar
    13     8     2    1
    14    18    17    1
    15    25    24   ar
    16    41    38    1
    17    39    38   ar
    18    39    35   ar
    19    38    37   ar
    20    27    35    1
    21    27    28   ar
    22     3     2   ar
    23     3     4   ar
    24     2     1   ar
    25    35    36   ar
    26    24    28   ar
    27    24    16    1
    28    17    16   ar
    29    17    13   ar
    30    28    29    1
    31    37    36   ar
    32    37    44    1
    33     4    13    1
    34     4     5   ar
    35    16    15   ar
    36    36    42    1
    37     1     7    1
    38     1     5   ar
    39    13    14   ar
    40     5     6    1
    41    44    45    3
    42    15    14   ar
    43    15    21    1
    44    42    43    1
    45    14    19    1
    46    45    46    1
    47    21    22    3
    48    19    20    1
    49    22    23    1
