@<TRIPOS>MOLECULE
mol_data/opt/cam/geoms/mol2/13ge13ge-13ge13ge-.out
 46 49 0 0 0
SMALL
GASTEIGER

@<TRIPOS>ATOM
      1 C           1.1781   -0.1574   -0.3103 C.ar    1  LIG1        0.0167
      2 C           0.7911    1.0429    0.2203 C.ar    1  LIG1        0.0381
      3 C          -0.6398    1.0337    0.3044 C.ar    1  LIG1        0.0645
      4 C          -1.0714   -0.1867   -0.1944 C.ar    1  LIG1        0.0807
      5 N           0.0455   -0.9017   -0.5384 N.ar    1  LIG1       -0.3575
      6 H           0.0175   -1.7575   -1.0677 H       1  LIG1        0.1654
      7 H           2.1605   -0.5388   -0.5395 H       1  LIG1        0.0818
      8 S           1.8678    2.3384    0.7435 S.3     1  LIG1       -0.1400
      9 H           0.8818    3.2092    1.0185 H       1  LIG1        0.1072
     10 C          -1.4457    2.0660    0.8478 C.1     1  LIG1       -0.0664
     11 C          -2.0979    2.9633    1.3184 C.1     1  LIG1       -0.1138
     12 H          -2.6993    3.7429    1.7257 H       1  LIG1        0.1232
     13 C          -2.3986   -0.7517   -0.3417 C.ar    1  LIG1        0.0791
     14 C          -3.5675   -0.2495   -0.8653 C.ar    1  LIG1        0.0476
     15 C          -4.5589   -1.2834   -0.7797 C.ar    1  LIG1        0.0652
     16 C          -3.9594   -2.3863   -0.1947 C.ar    1  LIG1        0.0811
     17 N          -2.6447   -2.0637    0.0365 N.ar    1  LIG1       -0.3500
     18 H          -2.0754   -2.5499    0.7123 H       1  LIG1        0.1661
     19 S          -3.7981    1.3487   -1.5672 S.3     1  LIG1       -0.1393
     20 H          -4.8015    0.9698   -2.3790 H       1  LIG1        0.1072
     21 C          -5.8726   -1.2119   -1.3085 C.1     1  LIG1       -0.0664
     22 C          -6.9766   -1.1275   -1.7830 C.1     1  LIG1       -0.1138
     23 H          -7.9630   -1.0719   -2.1822 H       1  LIG1        0.1232
     24 C          -4.4703   -3.6995    0.1365 C.ar    1  LIG1        0.0791
     25 C          -5.6518   -4.1236    0.7041 C.ar    1  LIG1        0.0476
     26 C          -5.5805   -5.5512    0.8299 C.ar    1  LIG1        0.0652
     27 C          -4.3542   -5.9528    0.3304 C.ar    1  LIG1        0.0811
     28 N          -3.6785   -4.8225   -0.0573 N.ar    1  LIG1       -0.3500
     29 H          -2.9189   -4.8444   -0.7206 H       1  LIG1        0.1661
     30 S          -6.9843   -3.1101    1.2481 S.3     1  LIG1       -0.1393
     31 H          -7.4090   -3.9832    2.1793 H       1  LIG1        0.1072
     32 C          -6.5517   -6.3778    1.4506 C.1     1  LIG1       -0.0664
     33 C          -7.3861   -7.0545    1.9952 C.1     1  LIG1       -0.1138
     34 H          -8.1191   -7.6734    2.4592 H       1  LIG1        0.1232
     35 C          -3.7481   -7.2636    0.2068 C.ar    1  LIG1        0.0787
     36 C          -4.2246   -8.4669   -0.2696 C.ar    1  LIG1        0.0469
     37 C          -3.1490   -9.4126   -0.1955 C.ar    1  LIG1        0.0557
     38 C          -2.0580   -8.7463    0.3190 C.ar    1  LIG1        0.0188
     39 N          -2.4201   -7.4571    0.5487 N.ar    1  LIG1       -0.3575
     40 H          -1.8729   -6.7859    1.0624 H       1  LIG1        0.1654
     41 H          -1.0656   -9.1108    0.5326 H       1  LIG1        0.0820
     42 S          -5.8459   -8.7810   -0.8821 S.3     1  LIG1       -0.1394
     43 H          -5.4621   -9.7565   -1.7246 H       1  LIG1        0.1072
     44 C          -3.1928  -10.7685   -0.6156 C.1     1  LIG1       -0.0671
     45 C          -3.2543  -11.9123   -0.9877 C.1     1  LIG1       -0.1138
     46 H          -3.3025  -12.9285   -1.3047 H       1  LIG1        0.1232
@<TRIPOS>BOND
     1    20    19    1
     2    23    22    1
     3    22    21    3
     4    43    42    1
     5    19    14    1
     6    21    15    1
     7    46    45    1
     8     6     5    1
     9    45    44    3
    10    42    36    1
    11    14    15   ar
    12    14    13   ar
    13    15    16   ar
    14    29    28    1
    15    44    37    1
    16     7     1    1
    17     5     1   ar
    18     5     4   ar
    19    13     4    1
    20    13    17   ar
    21     1     2   ar
    22    36    37   ar
    23    36    35   ar
    24    37    38   ar
    25    16    17   ar
    26    16    24    1
    27     4     3   ar
    28    28    24   ar
    29    28    27   ar
    30    17    18    1
    31    24    25   ar
    32    35    27    1
    33    35    39   ar
    34     2     3   ar
    35     2     8    1
    36     3    10    1
    37    38    41    1
    38    38    39   ar
    39    27    26   ar
    40    39    40    1
    41    25    26   ar
    42    25    30    1
    43     8     9    1
    44    26    32    1
    45    10    11    3
    46    30    31    1
    47    11    12    1
    48    32    33    3
    49    33    34    1
