@<TRIPOS>MOLECULE
mol_data/opt/cam/geoms/mol2/13ge13ge-.out
 24 25 0 0 0
SMALL
GASTEIGER

@<TRIPOS>ATOM
      1 C           1.0676   -0.3004   -0.6201 C.ar    1  LIG1        0.0167
      2 C           0.7927    0.9618   -0.1657 C.ar    1  LIG1        0.0381
      3 C          -0.5931    0.9931    0.2035 C.ar    1  LIG1        0.0645
      4 C          -1.1111   -0.2640   -0.0586 C.ar    1  LIG1        0.0806
      5 N          -0.0799   -1.0399   -0.5333 N.ar    1  LIG1       -0.3575
      6 H          -0.2055   -1.9604   -0.9222 H       1  LIG1        0.1654
      7 H           1.9902   -0.7170   -0.9927 H       1  LIG1        0.0818
      8 S           1.9898    2.2438    0.0338 S.3     1  LIG1       -0.1400
      9 H           1.4203    3.1476   -0.7833 H       1  LIG1        0.1072
     10 C          -1.2976    2.0888    0.7666 C.1     1  LIG1       -0.0664
     11 C          -1.8890    3.0233    1.2425 C.1     1  LIG1       -0.1138
     12 H          -2.4222    3.8436    1.6640 H       1  LIG1        0.1232
     13 C          -2.4433   -0.8139    0.1186 C.ar    1  LIG1        0.0787
     14 C          -3.6875   -0.3716   -0.2749 C.ar    1  LIG1        0.0469
     15 C          -4.6449   -1.3544    0.1432 C.ar    1  LIG1        0.0557
     16 C          -3.9432   -2.3603    0.7716 C.ar    1  LIG1        0.0188
     17 N          -2.6243   -2.0335    0.7476 N.ar    1  LIG1       -0.3575
     18 H          -1.9012   -2.5105    1.2612 H       1  LIG1        0.1654
     19 H          -4.3010   -3.2702    1.2270 H       1  LIG1        0.0820
     20 S          -4.0338    1.1232   -1.1416 S.3     1  LIG1       -0.1394
     21 H          -5.1011    0.6348   -1.7981 H       1  LIG1        0.1072
     22 C          -6.0457   -1.3153   -0.0873 C.1     1  LIG1       -0.0671
     23 C          -7.2294   -1.2634   -0.3036 C.1     1  LIG1       -0.1138
     24 H          -8.2791   -1.2198   -0.4809 H       1  LIG1        0.1232
@<TRIPOS>BOND
     1    21    20    1
     2    20    14    1
     3     7     1    1
     4     6     5    1
     5     9     8    1
     6     1     5   ar
     7     1     2   ar
     8     5     4   ar
     9    24    23    1
    10    23    22    3
    11    14    13   ar
    12    14    15   ar
    13     2     8    1
    14     2     3   ar
    15    22    15    1
    16     4    13    1
    17     4     3   ar
    18    13    17   ar
    19    15    16   ar
    20     3    10    1
    21    17    16   ar
    22    17    18    1
    23    10    11    3
    24    16    19    1
    25    11    12    1
