@<TRIPOS>MOLECULE
mol_data/opt/cam/geoms/mol2/13ge13ge13ge-13ge-.out
 46 49 0 0 0
SMALL
GASTEIGER

@<TRIPOS>ATOM
      1 C           0.3836    0.1345    2.4365 C.ar    1  LIG1        0.0167
      2 C           0.6971    0.8495    1.3113 C.ar    1  LIG1        0.0381
      3 C          -0.3664    0.6543    0.3691 C.ar    1  LIG1        0.0645
      4 C          -1.2982   -0.1712    0.9747 C.ar    1  LIG1        0.0807
      5 N          -0.8105   -0.4957    2.2188 N.ar    1  LIG1       -0.3575
      6 H          -1.3469   -0.9745    2.9246 H       1  LIG1        0.1654
      7 H           0.9227    0.0330    3.3653 H       1  LIG1        0.0818
      8 S           2.2072    1.7301    1.0645 S.3     1  LIG1       -0.1400
      9 H           1.6717    2.9478    0.8660 H       1  LIG1        0.1072
     10 C          -0.4418    1.1759   -0.9487 C.1     1  LIG1       -0.0664
     11 C          -0.5000    1.6237   -2.0647 C.1     1  LIG1       -0.1138
     12 H          -0.5615    2.0191   -3.0521 H       1  LIG1        0.1232
     13 C          -2.5612   -0.7071    0.4971 C.ar    1  LIG1        0.0791
     14 C          -3.6789   -0.1020   -0.0362 C.ar    1  LIG1        0.0476
     15 C          -4.6491   -1.1250   -0.2800 C.ar    1  LIG1        0.0652
     16 C          -4.0940   -2.3290    0.1252 C.ar    1  LIG1        0.0811
     17 N          -2.8316   -2.0587    0.5781 N.ar    1  LIG1       -0.3500
     18 H          -2.1925   -2.7472    0.9424 H       1  LIG1        0.1661
     19 S          -3.8638    1.6179   -0.3722 S.3     1  LIG1       -0.1393
     20 H          -5.1887    1.6419   -0.1434 H       1  LIG1        0.1072
     21 C          -5.9403   -0.9404   -0.8384 C.1     1  LIG1       -0.0664
     22 C          -7.0347   -0.7606   -1.3079 C.1     1  LIG1       -0.1138
     23 H          -8.0062   -0.6184   -1.7217 H       1  LIG1        0.1232
     24 C          -4.6131   -3.6853    0.0889 C.ar    1  LIG1        0.0791
     25 C          -5.7635   -4.2465    0.5991 C.ar    1  LIG1        0.0476
     26 C          -5.7269   -5.6471    0.3093 C.ar    1  LIG1        0.0652
     27 C          -4.5413   -5.9008   -0.3642 C.ar    1  LIG1        0.0811
     28 N          -3.8890   -4.7061   -0.4962 N.ar    1  LIG1       -0.3500
     29 H          -3.0023   -4.5863   -0.9592 H       1  LIG1        0.1661
     30 S          -7.0489   -3.3850    1.4418 S.3     1  LIG1       -0.1393
     31 H          -7.4205   -4.4351    2.1950 H       1  LIG1        0.1072
     32 C          -6.7257   -6.5970    0.6448 C.1     1  LIG1       -0.0664
     33 C          -7.5842   -7.3861    0.9459 C.1     1  LIG1       -0.1138
     34 H          -8.3349   -8.0980    1.2010 H       1  LIG1        0.1232
     35 C          -3.9934   -7.1272   -0.9161 C.ar    1  LIG1        0.0787
     36 C          -3.7627   -8.3668   -0.3611 C.ar    1  LIG1        0.0469
     37 C          -3.1546   -9.1832   -1.3710 C.ar    1  LIG1        0.0557
     38 C          -3.0361   -8.4047   -2.5021 C.ar    1  LIG1        0.0188
     39 N          -3.5333   -7.1719   -2.2211 N.ar    1  LIG1       -0.3575
     40 H          -3.7118   -6.4531   -2.9039 H       1  LIG1        0.1654
     41 H          -2.6366   -8.6547   -3.4723 H       1  LIG1        0.0820
     42 S          -4.1346   -8.8515    1.2919 S.3     1  LIG1       -0.1394
     43 H          -3.1353   -9.7471    1.3799 H       1  LIG1        0.1072
     44 C          -2.7194  -10.5261   -1.2160 C.1     1  LIG1       -0.0671
     45 C          -2.3506  -11.6614   -1.0550 C.1     1  LIG1       -0.1138
     46 H          -2.0312  -12.6697   -0.9260 H       1  LIG1        0.1232
@<TRIPOS>BOND
     1    41    38    1
     2    12    11    1
     3    40    39    1
     4    38    39   ar
     5    38    37   ar
     6    39    35   ar
     7    11    10    3
     8    23    22    1
     9    37    44    1
    10    37    36   ar
    11    22    21    3
    12    44    45    3
    13    45    46    1
    14    29    28    1
    15    10     3    1
    16    35    27    1
    17    35    36   ar
    18    21    15    1
    19    28    27   ar
    20    28    24   ar
    21    19    20    1
    22    19    14    1
    23    27    26   ar
    24    36    42    1
    25    15    14   ar
    26    15    16   ar
    27    14    13   ar
    28    24    16    1
    29    24    25   ar
    30    16    17   ar
    31    26    25   ar
    32    26    32    1
    33     3     4   ar
    34     3     2   ar
    35    13    17   ar
    36    13     4    1
    37    17    18    1
    38    25    30    1
    39    32    33    3
    40     9     8    1
    41    33    34    1
    42     4     5   ar
    43     8     2    1
    44    42    43    1
    45     2     1   ar
    46    30    31    1
    47     5     1   ar
    48     5     6    1
    49     1     7    1
