@<TRIPOS>MOLECULE
mol_data/opt/cam/geoms/mol2/13gf.out
 12 12 0 0 0
SMALL
GASTEIGER

@<TRIPOS>ATOM
      1 C           1.0946   -0.4143   -0.0000 C.ar    1  LIG1        0.0186
      2 C           0.6881    0.8979    0.0001 C.ar    1  LIG1        0.0636
      3 C          -0.7319    0.8880    0.0003 C.ar    1  LIG1        0.1472
      4 C          -1.1517   -0.4184    0.0002 C.ar    1  LIG1        0.0448
      5 N          -0.0217   -1.2027    0.0001 N.ar    1  LIG1       -0.3630
      6 H          -0.0181   -2.2074   -0.0002 H       1  LIG1        0.1649
      7 H          -2.1435   -0.8431    0.0003 H       1  LIG1        0.0844
      8 H           2.0870   -0.8367   -0.0002 H       1  LIG1        0.0819
      9 S           1.7171    2.3353    0.0001 S.3     1  LIG1       -0.1377
     10 H           0.6960    3.2070   -0.0001 H       1  LIG1        0.1073
     11 O          -1.4599    2.0418    0.0005 O.3     1  LIG1       -0.5042
     12 H          -2.3991    1.8294    0.0006 H       1  LIG1        0.2923
@<TRIPOS>BOND
     1     6     5    1
     2     8     1    1
     3    10     9    1
     4     1     5   ar
     5     1     2   ar
     6     5     4   ar
     7     2     9    1
     8     2     3   ar
     9     4     3   ar
    10     4     7    1
    11     3    11    1
    12    11    12    1
