@<TRIPOS>MOLECULE
mol_data/opt/cam/geoms/mol2/13gf13gf13gf-13gf-.out
 42 45 0 0 0
SMALL
GASTEIGER

@<TRIPOS>ATOM
      1 C           0.8703   -0.0358    1.6310 C.ar    1  LIG1        0.0191
      2 C           0.8534    0.9074    0.6382 C.ar    1  LIG1        0.0643
      3 C          -0.4145    0.8191   -0.0043 C.ar    1  LIG1        0.1566
      4 C          -1.1369   -0.1825    0.6109 C.ar    1  LIG1        0.1072
      5 N          -0.3162   -0.7258    1.5925 N.ar    1  LIG1       -0.3555
      6 H          -0.6826   -1.2153    2.3937 H       1  LIG1        0.1655
      7 H           1.6309   -0.2649    2.3609 H       1  LIG1        0.0819
      8 S           2.1625    1.9914    0.1662 S.3     1  LIG1       -0.1377
      9 H           1.3704    2.8171   -0.5379 H       1  LIG1        0.1073
     10 O          -0.7477    1.5945   -1.0608 O.3     1  LIG1       -0.5035
     11 H          -1.7120    1.7397   -1.0536 H       1  LIG1        0.2923
     12 C          -2.4312   -0.7564    0.3100 C.ar    1  LIG1        0.0840
     13 C          -3.6199   -0.1940   -0.1267 C.ar    1  LIG1        0.0739
     14 C          -4.5851   -1.2308   -0.2145 C.ar    1  LIG1        0.1573
     15 C          -3.9783   -2.4142    0.1616 C.ar    1  LIG1        0.1077
     16 N          -2.6655   -2.0935    0.4838 N.ar    1  LIG1       -0.3479
     17 H          -1.9840   -2.7383    0.8480 H       1  LIG1        0.1661
     18 S          -3.9243    1.5206   -0.4093 S.3     1  LIG1       -0.1370
     19 H          -4.4705    1.4025   -1.6329 H       1  LIG1        0.1073
     20 O          -5.8423   -1.0200   -0.6548 O.3     1  LIG1       -0.5035
     21 H          -6.4365   -1.6767   -0.2471 H       1  LIG1        0.2923
     22 C          -4.4474   -3.7828    0.1451 C.ar    1  LIG1        0.0840
     23 C          -5.6781   -4.3419    0.4501 C.ar    1  LIG1        0.0739
     24 C          -5.5711   -5.7474    0.2878 C.ar    1  LIG1        0.1573
     25 C          -4.2820   -6.0345   -0.1179 C.ar    1  LIG1        0.1076
     26 N          -3.6138   -4.8190   -0.1837 N.ar    1  LIG1       -0.3479
     27 H          -2.6509   -4.7139   -0.4563 H       1  LIG1        0.1661
     28 S          -7.0953   -3.4807    1.0527 S.3     1  LIG1       -0.1370
     29 H          -7.9947   -4.0219    0.2120 H       1  LIG1        0.1073
     30 O          -6.6143   -6.5827    0.4722 O.3     1  LIG1       -0.5035
     31 H          -6.2779   -7.4537    0.7519 H       1  LIG1        0.2923
     32 C          -3.6472   -7.2688   -0.5291 C.ar    1  LIG1        0.0835
     33 C          -3.7872   -8.5725   -0.0890 C.ar    1  LIG1        0.0732
     34 C          -2.9087   -9.3807   -0.8643 C.ar    1  LIG1        0.1478
     35 C          -2.2566   -8.5697   -1.7518 C.ar    1  LIG1        0.0453
     36 N          -2.6913   -7.2766   -1.5149 N.ar    1  LIG1       -0.3555
     37 H          -2.5823   -6.5241   -2.1751 H       1  LIG1        0.1655
     38 H          -1.5196   -8.7913   -2.5075 H       1  LIG1        0.0845
     39 S          -4.7542   -9.1185    1.2824 S.3     1  LIG1       -0.1370
     40 H          -5.3867  -10.1274    0.6561 H       1  LIG1        0.1073
     41 O          -2.8090  -10.7199   -0.6677 O.3     1  LIG1       -0.5042
     42 H          -2.1567  -11.0868   -1.2746 H       1  LIG1        0.2923
@<TRIPOS>BOND
     1    38    35    1
     2    37    36    1
     3    35    36   ar
     4    35    34   ar
     5    19    18    1
     6    36    32   ar
     7    42    41    1
     8    10    11    1
     9    10     3    1
    10    34    41    1
    11    34    33   ar
    12    20    21    1
    13    20    14    1
    14     9     8    1
    15    32    25    1
    16    32    33   ar
    17    27    26    1
    18    18    13    1
    19    14    13   ar
    20    14    15   ar
    21    26    25   ar
    22    26    22   ar
    23    13    12   ar
    24    25    24   ar
    25    33    39    1
    26     3     4   ar
    27     3     2   ar
    28    22    15    1
    29    22    23   ar
    30    15    16   ar
    31     8     2    1
    32    29    28    1
    33    24    23   ar
    34    24    30    1
    35    12    16   ar
    36    12     4    1
    37    23    28    1
    38    30    31    1
    39    16    17    1
    40     4     5   ar
    41     2     1   ar
    42    40    39    1
    43     5     1   ar
    44     5     6    1
    45     1     7    1
