@<TRIPOS>MOLECULE
mol_data/opt/cam/geoms/mol2/13gf13gf.out
 22 23 0 0 0
SMALL
GASTEIGER

@<TRIPOS>ATOM
      1 C           1.1549   -0.3633    0.2789 C.ar    1  LIG1        0.0191
      2 C           0.7867    0.9113   -0.0642 C.ar    1  LIG1        0.0643
      3 C          -0.6314    0.9212   -0.1866 C.ar    1  LIG1        0.1566
      4 C          -1.0927   -0.3521    0.0807 C.ar    1  LIG1        0.1072
      5 N           0.0245   -1.1372    0.3317 N.ar    1  LIG1       -0.3555
      6 H          -0.0250   -2.0101    0.8318 H       1  LIG1        0.1655
      7 H           2.1299   -0.7735    0.4906 H       1  LIG1        0.0819
      8 S           1.8474    2.2860   -0.3762 S.3     1  LIG1       -0.1377
      9 H           0.8756    3.2045   -0.2467 H       1  LIG1        0.1073
     10 O          -1.3200    2.0283   -0.5472 O.3     1  LIG1       -0.5035
     11 H          -2.2048    1.9936   -0.1392 H       1  LIG1        0.2923
     12 C          -2.4159   -0.9380    0.0235 C.ar    1  LIG1        0.0835
     13 C          -3.6750   -0.4327    0.2993 C.ar    1  LIG1        0.0732
     14 C          -4.6127   -1.4777    0.0649 C.ar    1  LIG1        0.1478
     15 C          -3.9226   -2.5854   -0.3452 C.ar    1  LIG1        0.0453
     16 N          -2.5799   -2.2500   -0.3360 N.ar    1  LIG1       -0.3555
     17 H          -1.8581   -2.7828   -0.7926 H       1  LIG1        0.1655
     18 H          -4.2610   -3.5710   -0.6233 H       1  LIG1        0.0845
     19 S          -4.0483    1.1571    0.9671 S.3     1  LIG1       -0.1370
     20 H          -4.9386    1.5406    0.0334 H       1  LIG1        0.1073
     21 O          -5.9460   -1.2998    0.2506 O.3     1  LIG1       -0.5042
     22 H          -6.4082   -2.1238    0.0613 H       1  LIG1        0.2923
@<TRIPOS>BOND
     1    17    16    1
     2    18    15    1
     3    10     3    1
     4    10    11    1
     5     8     9    1
     6     8     2    1
     7    15    16   ar
     8    15    14   ar
     9    16    12   ar
    10     3     2   ar
    11     3     4   ar
    12     2     1   ar
    13    12     4    1
    14    12    13   ar
    15    20    19    1
    16    22    21    1
    17    14    21    1
    18    14    13   ar
    19     4     5   ar
    20     1     5   ar
    21     1     7    1
    22    13    19    1
    23     5     6    1
