@<TRIPOS>MOLECULE
mol_data/opt/cam/geoms/mol2/13gf13gf13gf13gf.out
 42 45 0 0 0
SMALL
GASTEIGER

@<TRIPOS>ATOM
      1 C           1.1736   -0.3182    0.1755 C.ar    1  LIG1        0.0191
      2 C           0.8118    0.9579   -0.1782 C.ar    1  LIG1        0.0643
      3 C          -0.6124    1.0089   -0.1724 C.ar    1  LIG1        0.1566
      4 C          -1.0793   -0.2435    0.1847 C.ar    1  LIG1        0.1072
      5 N           0.0392   -1.0522    0.3595 N.ar    1  LIG1       -0.3555
      6 H           0.0072   -1.9305    0.8507 H       1  LIG1        0.1655
      7 H           2.1565   -0.7430    0.3081 H       1  LIG1        0.0819
      8 S           1.9148    2.2392   -0.6794 S.3     1  LIG1       -0.1377
      9 H           1.4840    3.1815    0.1778 H       1  LIG1        0.1073
     10 O          -1.3022    2.1164   -0.5066 O.3     1  LIG1       -0.5035
     11 H          -2.1879    2.0820   -0.1026 H       1  LIG1        0.2923
     12 C          -2.4113   -0.7974    0.2690 C.ar    1  LIG1        0.0840
     13 C          -3.6281   -0.2465    0.6095 C.ar    1  LIG1        0.0739
     14 C          -4.6227   -1.2570    0.4637 C.ar    1  LIG1        0.1573
     15 C          -3.9981   -2.4125    0.0439 C.ar    1  LIG1        0.1077
     16 N          -2.6291   -2.1284   -0.0244 N.ar    1  LIG1       -0.3479
     17 H          -2.0366   -2.5999   -0.6924 H       1  LIG1        0.1661
     18 S          -3.9073    1.3673    1.2658 S.3     1  LIG1       -0.1370
     19 H          -5.0059    1.6419    0.5410 H       1  LIG1        0.1073
     20 O          -5.9131   -1.0252    0.7626 O.3     1  LIG1       -0.5035
     21 H          -6.4770   -1.6842    0.3146 H       1  LIG1        0.2923
     22 C          -4.4751   -3.7547   -0.1875 C.ar    1  LIG1        0.0840
     23 C          -5.7025   -4.2634   -0.5616 C.ar    1  LIG1        0.0739
     24 C          -5.6001   -5.6854   -0.5774 C.ar    1  LIG1        0.1573
     25 C          -4.3127   -6.0247   -0.2264 C.ar    1  LIG1        0.1076
     26 N          -3.6180   -4.8252   -0.0342 N.ar    1  LIG1       -0.3479
     27 H          -2.8521   -4.7649    0.6209 H       1  LIG1        0.1661
     28 S          -7.1142   -3.3466   -1.0897 S.3     1  LIG1       -0.1370
     29 H          -8.0239   -4.0056   -0.3500 H       1  LIG1        0.1073
     30 O          -6.6352   -6.4681   -0.9333 O.3     1  LIG1       -0.5035
     31 H          -6.5131   -7.3554   -0.5462 H       1  LIG1        0.2923
     32 C          -3.6159   -7.2907   -0.1652 C.ar    1  LIG1        0.0835
     33 C          -4.0308   -8.5785    0.1318 C.ar    1  LIG1        0.0732
     34 C          -2.8908   -9.4254    0.0342 C.ar    1  LIG1        0.1478
     35 C          -1.8160   -8.6553   -0.3159 C.ar    1  LIG1        0.0453
     36 N          -2.2671   -7.3492   -0.4021 N.ar    1  LIG1       -0.3555
     37 H          -1.7637   -6.6037   -0.8536 H       1  LIG1        0.1655
     38 H          -0.7839   -8.9135   -0.4924 H       1  LIG1        0.0845
     39 S          -5.6327   -9.0712    0.6822 S.3     1  LIG1       -0.1370
     40 H          -5.8483  -10.0377   -0.2294 H       1  LIG1        0.1073
     41 O          -2.9687  -10.7592    0.2724 O.3     1  LIG1       -0.5042
     42 H          -2.0953  -11.1546    0.1766 H       1  LIG1        0.2923
@<TRIPOS>BOND
     1    28    23    1
     2    28    29    1
     3    30    24    1
     4    30    31    1
     5    37    36    1
     6    17    16    1
     7     8     2    1
     8     8     9    1
     9    24    23   ar
    10    24    25   ar
    11    23    22   ar
    12    10     3    1
    13    10    11    1
    14    38    35    1
    15    36    35   ar
    16    36    32   ar
    17    35    34   ar
    18    40    39    1
    19    25    32    1
    20    25    26   ar
    21    22    26   ar
    22    22    15    1
    23     2     3   ar
    24     2     1   ar
    25     3     4   ar
    26    32    33   ar
    27    26    27    1
    28    16    15   ar
    29    16    12   ar
    30    34    33   ar
    31    34    41    1
    32    15    14   ar
    33    33    39    1
    34     1     7    1
    35     1     5   ar
    36    42    41    1
    37     4    12    1
    38     4     5   ar
    39    12    13   ar
    40    21    20    1
    41     5     6    1
    42    14    13   ar
    43    14    20    1
    44    19    18    1
    45    13    18    1
