@<TRIPOS>MOLECULE
mol_data/opt/cam/geoms/mol2/13gf13gf-13gf13gf.out
 42 45 0 0 0
SMALL
GASTEIGER

@<TRIPOS>ATOM
      1 C           0.8722    0.0051    1.5770 C.ar    1  LIG1        0.0191
      2 C           0.8561    0.9213    0.5593 C.ar    1  LIG1        0.0643
      3 C          -0.4118    0.8166   -0.0810 C.ar    1  LIG1        0.1566
      4 C          -1.1349   -0.1678    0.5608 C.ar    1  LIG1        0.1072
      5 N          -0.3147   -0.6850    1.5567 N.ar    1  LIG1       -0.3555
      6 H          -0.6815   -1.1527    2.3707 H       1  LIG1        0.1655
      7 H           1.6325   -0.2049    2.3129 H       1  LIG1        0.0819
      8 S           2.1659    1.9915    0.0586 S.3     1  LIG1       -0.1377
      9 H           1.3744    2.7984   -0.6677 H       1  LIG1        0.1073
     10 O          -0.7442    1.5636   -1.1579 O.3     1  LIG1       -0.5035
     11 H          -1.7085    1.7095   -1.1548 H       1  LIG1        0.2923
     12 C          -2.4295   -0.7487    0.2751 C.ar    1  LIG1        0.0840
     13 C          -3.6177   -0.1975   -0.1768 C.ar    1  LIG1        0.0739
     14 C          -4.5835   -1.2358   -0.2370 C.ar    1  LIG1        0.1573
     15 C          -3.9776   -2.4090    0.1708 C.ar    1  LIG1        0.1077
     16 N          -2.6646   -2.0806    0.4845 N.ar    1  LIG1       -0.3479
     17 H          -1.9836   -2.7158    0.8661 H       1  LIG1        0.1661
     18 S          -3.9210    1.5091   -0.5053 S.3     1  LIG1       -0.1370
     19 H          -4.4671    1.3586   -1.7254 H       1  LIG1        0.1073
     20 O          -5.8406   -1.0360   -0.6831 O.3     1  LIG1       -0.5035
     21 H          -6.4352   -1.6812   -0.2580 H       1  LIG1        0.2923
     22 C          -4.4475   -3.7773    0.1909 C.ar    1  LIG1        0.0840
     23 C          -5.6786   -4.3273    0.5104 C.ar    1  LIG1        0.0739
     24 C          -5.5724   -5.7366    0.3859 C.ar    1  LIG1        0.1573
     25 C          -4.2833   -6.0353   -0.0117 C.ar    1  LIG1        0.1076
     26 N          -3.6144   -4.8224   -0.1098 N.ar    1  LIG1       -0.3479
     27 H          -2.6514   -4.7252   -0.3851 H       1  LIG1        0.1661
     28 S          -7.0954   -3.4494    1.0893 S.3     1  LIG1       -0.1370
     29 H          -7.9949   -4.0124    0.2632 H       1  LIG1        0.1073
     30 O          -6.6161   -6.5662    0.5923 O.3     1  LIG1       -0.5035
     31 H          -6.2803   -7.4295    0.8954 H       1  LIG1        0.2923
     32 C          -3.6491   -7.2806   -0.3895 C.ar    1  LIG1        0.0835
     33 C          -3.7900   -8.5719    0.0854 C.ar    1  LIG1        0.0732
     34 C          -2.9118   -9.4011   -0.6677 C.ar    1  LIG1        0.1478
     35 C          -2.2591   -8.6146   -1.5765 C.ar    1  LIG1        0.0453
     36 N          -2.6930   -7.3154   -1.3745 N.ar    1  LIG1       -0.3555
     37 H          -2.5835   -6.5809   -2.0546 H       1  LIG1        0.1655
     38 H          -1.5221   -8.8569   -2.3258 H       1  LIG1        0.0845
     39 S          -4.7576   -9.0803    1.4708 S.3     1  LIG1       -0.1370
     40 H          -5.3905  -10.1054    0.8717 H       1  LIG1        0.1073
     41 O          -2.8130  -10.7346   -0.4352 O.3     1  LIG1       -0.5042
     42 H          -2.1608  -11.1181   -1.0319 H       1  LIG1        0.2923
@<TRIPOS>BOND
     1    38    35    1
     2    37    36    1
     3    19    18    1
     4    35    36   ar
     5    35    34   ar
     6    36    32   ar
     7    10    11    1
     8    10     3    1
     9    42    41    1
    10    20    21    1
    11    20    14    1
    12    34    41    1
    13    34    33   ar
    14     9     8    1
    15    18    13    1
    16    32    25    1
    17    32    33   ar
    18    27    26    1
    19    14    13   ar
    20    14    15   ar
    21    13    12   ar
    22    26    25   ar
    23    26    22   ar
    24     3     2   ar
    25     3     4   ar
    26    25    24   ar
    27     8     2    1
    28    33    39    1
    29    15    22    1
    30    15    16   ar
    31    22    23   ar
    32    29    28    1
    33    12    16   ar
    34    12     4    1
    35    24    23   ar
    36    24    30    1
    37    16    17    1
    38    23    28    1
    39     2     1   ar
    40     4     5   ar
    41    30    31    1
    42    40    39    1
    43     5     1   ar
    44     5     6    1
    45     1     7    1
