@<TRIPOS>MOLECULE
mol_data/opt/cam/geoms/mol2/13gf13gf-13gf.out
 32 34 0 0 0
SMALL
GASTEIGER

@<TRIPOS>ATOM
      1 C           1.1189   -0.2303   -0.7909 C.ar    1  LIG1        0.0191
      2 C           0.8626    0.8980   -0.0580 C.ar    1  LIG1        0.0643
      3 C          -0.5239    0.8829    0.2665 C.ar    1  LIG1        0.1566
      4 C          -1.0771   -0.2603   -0.2730 C.ar    1  LIG1        0.1072
      5 N          -0.0434   -0.9544   -0.8900 N.ar    1  LIG1       -0.3555
      6 H          -0.2047   -1.6224   -1.6271 H       1  LIG1        0.1655
      7 H           2.0342   -0.5697   -1.2499 H       1  LIG1        0.0819
      8 S           2.0173    2.1248    0.4649 S.3     1  LIG1       -0.1377
      9 H           1.0742    3.0189    0.8056 H       1  LIG1        0.1073
     10 O          -1.1023    1.8447    1.0210 O.3     1  LIG1       -0.5035
     11 H          -2.0349    1.9379    0.7513 H       1  LIG1        0.2923
     12 C          -2.4079   -0.8219   -0.1794 C.ar    1  LIG1        0.0840
     13 C          -3.6658   -0.2402   -0.1640 C.ar    1  LIG1        0.0739
     14 C          -4.6261   -1.2835   -0.0988 C.ar    1  LIG1        0.1573
     15 C          -3.9492   -2.4876   -0.0693 C.ar    1  LIG1        0.1076
     16 N          -2.5973   -2.1757   -0.1312 N.ar    1  LIG1       -0.3479
     17 H          -1.8510   -2.8508   -0.1479 H       1  LIG1        0.1661
     18 S          -4.0266    1.4790   -0.3258 S.3     1  LIG1       -0.1370
     19 H          -4.8387    1.5912    0.7408 H       1  LIG1        0.1073
     20 O          -5.9528   -1.0483   -0.0293 O.3     1  LIG1       -0.5035
     21 H          -6.4292   -1.8008   -0.4250 H       1  LIG1        0.2923
     22 C          -4.4021   -3.8513    0.1051 C.ar    1  LIG1        0.0835
     23 C          -5.5362   -4.5137   -0.3292 C.ar    1  LIG1        0.0732
     24 C          -5.4559   -5.8529    0.1466 C.ar    1  LIG1        0.1478
     25 C          -4.2922   -5.9845    0.8530 C.ar    1  LIG1        0.0453
     26 N          -3.6409   -4.7641    0.7923 N.ar    1  LIG1       -0.3555
     27 H          -2.9038   -4.4941    1.4230 H       1  LIG1        0.1655
     28 H          -3.8671   -6.8302    1.3702 H       1  LIG1        0.0845
     29 S          -6.7782   -3.8721   -1.4059 S.3     1  LIG1       -0.1370
     30 H          -7.8465   -4.2221   -0.6665 H       1  LIG1        0.1073
     31 O          -6.4245   -6.7658   -0.1199 O.3     1  LIG1       -0.5042
     32 H          -6.1870   -7.6117    0.2759 H       1  LIG1        0.2923
@<TRIPOS>BOND
     1     6     5    1
     2    29    30    1
     3    29    23    1
     4     7     1    1
     5     5     1   ar
     6     5     4   ar
     7     1     2   ar
     8    21    20    1
     9    23    22   ar
    10    23    24   ar
    11    18    13    1
    12    18    19    1
    13     4    12    1
    14     4     3   ar
    15    12    13   ar
    16    12    16   ar
    17    13    14   ar
    18    17    16    1
    19    16    15   ar
    20    31    24    1
    21    31    32    1
    22    14    15   ar
    23    14    20    1
    24    15    22    1
    25     2     3   ar
    26     2     8    1
    27    22    26   ar
    28    24    25   ar
    29     3    10    1
    30     8     9    1
    31    11    10    1
    32    26    25   ar
    33    26    27    1
    34    25    28    1
