@<TRIPOS>MOLECULE
mol_data/opt/cam/geoms/mol2/13gf13gf-13gf-13gf.out
 42 45 0 0 0
SMALL
GASTEIGER

@<TRIPOS>ATOM
      1 C           0.8395   -0.0615    1.7824 C.ar    1  LIG1        0.0191
      2 C           0.8376    0.8981    0.8053 C.ar    1  LIG1        0.0643
      3 C          -0.4197    0.8196    0.1410 C.ar    1  LIG1        0.1566
      4 C          -1.1509   -0.1927    0.7277 C.ar    1  LIG1        0.1072
      5 N          -0.3455   -0.7516    1.7132 N.ar    1  LIG1       -0.3555
      6 H          -0.7243   -1.2547    2.5002 H       1  LIG1        0.1655
      7 H           1.5884   -0.3023    2.5205 H       1  LIG1        0.0819
      8 S           2.1530    1.9909    0.3726 S.3     1  LIG1       -0.1377
      9 H           1.3715    2.8271   -0.3311 H       1  LIG1        0.1073
     10 O          -0.7366    1.6122   -0.9077 O.3     1  LIG1       -0.5035
     11 H          -1.7010    1.7567   -0.9135 H       1  LIG1        0.2923
     12 C          -2.4396   -0.7624    0.3965 C.ar    1  LIG1        0.0840
     13 C          -3.6217   -0.1937   -0.0499 C.ar    1  LIG1        0.0739
     14 C          -4.5843   -1.2296   -0.1706 C.ar    1  LIG1        0.1573
     15 C          -3.9825   -2.4187    0.1956 C.ar    1  LIG1        0.1077
     16 N          -2.6753   -2.1024    0.5441 N.ar    1  LIG1       -0.3479
     17 H          -1.9991   -2.7527    0.9086 H       1  LIG1        0.1661
     18 S          -3.9232    1.5252   -0.3088 S.3     1  LIG1       -0.1370
     19 H          -4.4494    1.4271   -1.5428 H       1  LIG1        0.1073
     20 O          -5.8345   -1.0123   -0.6275 O.3     1  LIG1       -0.5035
     21 H          -6.4344   -1.6762   -0.2403 H       1  LIG1        0.2923
     22 C          -4.4499   -3.7871    0.1487 C.ar    1  LIG1        0.0840
     23 C          -5.6847   -4.3521    0.4245 C.ar    1  LIG1        0.0739
     24 C          -5.5738   -5.7546    0.2405 C.ar    1  LIG1        0.1573
     25 C          -4.2780   -6.0340   -0.1491 C.ar    1  LIG1        0.1076
     26 N          -3.6101   -4.8171   -0.1839 N.ar    1  LIG1       -0.3479
     27 H          -2.6430   -4.7068   -0.4391 H       1  LIG1        0.1661
     28 S          -7.1123   -3.5021    1.0184 S.3     1  LIG1       -0.1370
     29 H          -7.9976   -4.0299    0.1545 H       1  LIG1        0.1073
     30 O          -6.6190   -6.5937    0.3941 O.3     1  LIG1       -0.5035
     31 H          -6.2863   -7.4690    0.6646 H       1  LIG1        0.2923
     32 C          -3.6354   -7.2608   -0.5706 C.ar    1  LIG1        0.0835
     33 C          -3.7813   -8.5718   -0.1546 C.ar    1  LIG1        0.0732
     34 C          -2.8896   -9.3663   -0.9291 C.ar    1  LIG1        0.1478
     35 C          -2.2241   -8.5401   -1.7923 C.ar    1  LIG1        0.0453
     36 N          -2.6638   -7.2515   -1.5409 N.ar    1  LIG1       -0.3555
     37 H          -2.5450   -6.4879   -2.1866 H       1  LIG1        0.1655
     38 H          -1.4748   -8.7485   -2.5396 H       1  LIG1        0.0845
     39 S          -4.7697   -9.1413    1.1917 S.3     1  LIG1       -0.1370
     40 H          -5.3911  -10.1401    0.5385 H       1  LIG1        0.1073
     41 O          -2.7918  -10.7085   -0.7532 O.3     1  LIG1       -0.5042
     42 H          -2.1294  -11.0647   -1.3556 H       1  LIG1        0.2923
@<TRIPOS>BOND
     1    38    35    1
     2    37    36    1
     3    35    36   ar
     4    35    34   ar
     5    19    18    1
     6    36    32   ar
     7    42    41    1
     8    34    41    1
     9    34    33   ar
    10    11    10    1
    11    10     3    1
    12    20    21    1
    13    20    14    1
    14    32    33   ar
    15    32    25    1
    16    27    26    1
    17     9     8    1
    18    18    13    1
    19    26    25   ar
    20    26    22   ar
    21    14    13   ar
    22    14    15   ar
    23    33    39    1
    24    25    24   ar
    25    13    12   ar
    26     3     4   ar
    27     3     2   ar
    28    22    15    1
    29    22    23   ar
    30    29    28    1
    31    15    16   ar
    32    24    30    1
    33    24    23   ar
    34     8     2    1
    35    30    31    1
    36    12    16   ar
    37    12     4    1
    38    23    28    1
    39    40    39    1
    40    16    17    1
    41     4     5   ar
    42     2     1   ar
    43     5     1   ar
    44     5     6    1
    45     1     7    1
