@<TRIPOS>MOLECULE
mol_data/opt/cam/geoms/mol2/13gf13gf13gf13gf-.out
 42 45 0 0 0
SMALL
GASTEIGER

@<TRIPOS>ATOM
      1 C           1.1761   -0.3162    0.0552 C.ar    1  LIG1        0.0191
      2 C           0.8097    0.9529   -0.3185 C.ar    1  LIG1        0.0643
      3 C          -0.6144    1.0044   -0.2949 C.ar    1  LIG1        0.1566
      4 C          -1.0765   -0.2407    0.0927 C.ar    1  LIG1        0.1072
      5 N           0.0441   -1.0461    0.2685 N.ar    1  LIG1       -0.3555
      6 H           0.0186   -1.9146    0.7770 H       1  LIG1        0.1655
      7 H           2.1606   -0.7386    0.1830 H       1  LIG1        0.0819
      8 S           1.9060    2.2238   -0.8593 S.3     1  LIG1       -0.1377
      9 H           1.4865    3.1829   -0.0151 H       1  LIG1        0.1073
     10 O          -1.3084    2.1054   -0.6414 O.3     1  LIG1       -0.5035
     11 H          -2.1887    2.0792   -0.2251 H       1  LIG1        0.2923
     12 C          -2.4073   -0.7924    0.2055 C.ar    1  LIG1        0.0840
     13 C          -3.6194   -0.2346    0.5513 C.ar    1  LIG1        0.0739
     14 C          -4.6159   -1.2474    0.4385 C.ar    1  LIG1        0.1573
     15 C          -3.9970   -2.4110    0.0330 C.ar    1  LIG1        0.1077
     16 N          -2.6291   -2.1288   -0.0589 N.ar    1  LIG1       -0.3479
     17 H          -2.0455   -2.6134   -0.7254 H       1  LIG1        0.1661
     18 S          -3.8898    1.3918    1.1797 S.3     1  LIG1       -0.1370
     19 H          -4.9979    1.6526    0.4643 H       1  LIG1        0.1073
     20 O          -5.9022   -1.0094    0.7499 O.3     1  LIG1       -0.5035
     21 H          -6.4721   -1.6768    0.3224 H       1  LIG1        0.2923
     22 C          -4.4771   -3.7574   -0.1658 C.ar    1  LIG1        0.0840
     23 C          -5.7094   -4.2729   -0.5136 C.ar    1  LIG1        0.0739
     24 C          -5.6073   -5.6950   -0.5029 C.ar    1  LIG1        0.1573
     25 C          -4.3154   -6.0278   -0.1626 C.ar    1  LIG1        0.1076
     26 N          -3.6181   -4.8250   -0.0031 N.ar    1  LIG1       -0.3479
     27 H          -2.8436   -4.7521    0.6406 H       1  LIG1        0.1661
     28 S          -7.1279   -3.3661   -1.0407 S.3     1  LIG1       -0.1370
     29 H          -8.0278   -4.0103   -0.2763 H       1  LIG1        0.1073
     30 O          -6.6471   -6.4842   -0.8298 O.3     1  LIG1       -0.5035
     31 H          -6.5199   -7.3638   -0.4270 H       1  LIG1        0.2923
     32 C          -3.6179   -7.2925   -0.0859 C.ar    1  LIG1        0.0835
     33 C          -4.0289   -8.5742    0.2417 C.ar    1  LIG1        0.0732
     34 C          -2.8904   -9.4231    0.1455 C.ar    1  LIG1        0.1478
     35 C          -1.8203   -8.6604   -0.2338 C.ar    1  LIG1        0.0453
     36 N          -2.2724   -7.3560   -0.3395 N.ar    1  LIG1       -0.3555
     37 H          -1.7750   -6.6196   -0.8121 H       1  LIG1        0.1655
     38 H          -0.7905   -8.9223   -0.4189 H       1  LIG1        0.0845
     39 S          -5.6234   -9.0555    0.8228 S.3     1  LIG1       -0.1370
     40 H          -5.8511  -10.0396   -0.0668 H       1  LIG1        0.1073
     41 O          -2.9652  -10.7521    0.4107 O.3     1  LIG1       -0.5042
     42 H          -2.0931  -11.1495    0.3110 H       1  LIG1        0.2923
@<TRIPOS>BOND
     1    28    23    1
     2    28    29    1
     3     8     2    1
     4     8     9    1
     5    30    24    1
     6    30    31    1
     7    37    36    1
     8    17    16    1
     9    10     3    1
    10    10    11    1
    11    23    24   ar
    12    23    22   ar
    13    24    25   ar
    14    38    35    1
    15    36    35   ar
    16    36    32   ar
    17     2     3   ar
    18     2     1   ar
    19     3     4   ar
    20    35    34   ar
    21    22    26   ar
    22    22    15    1
    23    25    32    1
    24    25    26   ar
    25    32    33   ar
    26    40    39    1
    27    16    15   ar
    28    16    12   ar
    29    26    27    1
    30    15    14   ar
    31     1     7    1
    32     1     5   ar
    33     4    12    1
    34     4     5   ar
    35    34    33   ar
    36    34    41    1
    37    12    13   ar
    38    33    39    1
    39     5     6    1
    40    42    41    1
    41    21    20    1
    42    14    13   ar
    43    14    20    1
    44    19    18    1
    45    13    18    1
