@<TRIPOS>MOLECULE
mol_data/opt/cam/geoms/mol2/13gf13gf13gf-.out
 32 34 0 0 0
SMALL
GASTEIGER

@<TRIPOS>ATOM
      1 C           1.1734   -0.2874    0.1137 C.ar    1  LIG1        0.0191
      2 C           0.7905    0.9444   -0.3573 C.ar    1  LIG1        0.0643
      3 C          -0.6343    0.9646   -0.3738 C.ar    1  LIG1        0.1566
      4 C          -1.0803   -0.2604    0.0897 C.ar    1  LIG1        0.1072
      5 N           0.0519   -1.0243    0.3515 N.ar    1  LIG1       -0.3555
      6 H           0.0308   -1.8661    0.9031 H       1  LIG1        0.1655
      7 H           2.1629   -0.6784    0.2928 H       1  LIG1        0.0819
      8 S           1.8755    2.1981   -0.9579 S.3     1  LIG1       -0.1377
      9 H           1.4403    3.1981   -0.1707 H       1  LIG1        0.1073
     10 O          -1.3429    2.0217   -0.8156 O.3     1  LIG1       -0.5035
     11 H          -2.2347    2.0022   -0.4247 H       1  LIG1        0.2923
     12 C          -2.4027   -0.8316    0.2086 C.ar    1  LIG1        0.0840
     13 C          -3.6326   -0.2771    0.4855 C.ar    1  LIG1        0.0739
     14 C          -4.6082   -1.3149    0.4096 C.ar    1  LIG1        0.1573
     15 C          -3.9587   -2.4886    0.1009 C.ar    1  LIG1        0.1076
     16 N          -2.5930   -2.1882    0.0250 N.ar    1  LIG1       -0.3479
     17 H          -1.9899   -2.6919   -0.6100 H       1  LIG1        0.1661
     18 S          -3.9516    1.3815    0.9957 S.3     1  LIG1       -0.1370
     19 H          -5.0597    1.5581    0.2551 H       1  LIG1        0.1073
     20 O          -5.9103   -1.0835    0.6609 O.3     1  LIG1       -0.5035
     21 H          -6.4473   -1.7680    0.2185 H       1  LIG1        0.2923
     22 C          -4.4107   -3.8580   -0.0156 C.ar    1  LIG1        0.0835
     23 C          -5.6135   -4.4233   -0.4084 C.ar    1  LIG1        0.0732
     24 C          -5.4649   -5.8367   -0.3279 C.ar    1  LIG1        0.1478
     25 C          -4.1967   -6.1084    0.1068 C.ar    1  LIG1        0.0453
     26 N          -3.5561   -4.8915    0.2637 N.ar    1  LIG1       -0.3555
     27 H          -2.6911   -4.7624    0.7614 H       1  LIG1        0.1655
     28 H          -3.6963   -7.0440    0.3001 H       1  LIG1        0.0845
     29 S          -7.0238   -3.5750   -1.0430 S.3     1  LIG1       -0.1370
     30 H          -7.9355   -4.0624   -0.1806 H       1  LIG1        0.1073
     31 O          -6.4758   -6.6823   -0.6526 O.3     1  LIG1       -0.5042
     32 H          -6.1739   -7.5929   -0.5630 H       1  LIG1        0.2923
@<TRIPOS>BOND
     1    29    23    1
     2    29    30    1
     3     8     2    1
     4     8     9    1
     5    10    11    1
     6    10     3    1
     7    31    32    1
     8    31    24    1
     9    17    16    1
    10    23    24   ar
    11    23    22   ar
    12     3     2   ar
    13     3     4   ar
    14     2     1   ar
    15    24    25   ar
    16    22    15    1
    17    22    26   ar
    18    16    15   ar
    19    16    12   ar
    20     4    12    1
    21     4     5   ar
    22    15    14   ar
    23    25    26   ar
    24    25    28    1
    25     1     7    1
    26     1     5   ar
    27    12    13   ar
    28    21    20    1
    29    19    18    1
    30    26    27    1
    31     5     6    1
    32    14    13   ar
    33    14    20    1
    34    13    18    1
