@<TRIPOS>MOLECULE
mol_data/opt/cam/geoms/mol2/13gf13gf-13gf13gf-.out
 42 45 0 0 0
SMALL
GASTEIGER

@<TRIPOS>ATOM
      1 C           0.8635    0.0457   -1.4983 C.ar    1  LIG1        0.0191
      2 C           0.8404    0.9448   -0.4655 C.ar    1  LIG1        0.0643
      3 C          -0.4293    0.8245    0.1685 C.ar    1  LIG1        0.1566
      4 C          -1.1463   -0.1518   -0.4920 C.ar    1  LIG1        0.1072
      5 N          -0.3207   -0.6492   -1.4935 N.ar    1  LIG1       -0.3555
      6 H          -0.6829   -1.1046   -2.3165 H       1  LIG1        0.1655
      7 H           1.6271   -0.1490   -2.2349 H       1  LIG1        0.0819
      8 S           2.1442    2.0116    0.0575 S.3     1  LIG1       -0.1377
      9 H           1.3472    2.8031    0.7945 H       1  LIG1        0.1073
     10 O          -0.7683    1.5522    1.2566 O.3     1  LIG1       -0.5035
     11 H          -1.7331    1.6945    1.2525 H       1  LIG1        0.2923
     12 C          -2.4396   -0.7424   -0.2205 C.ar    1  LIG1        0.0840
     13 C          -3.6315   -0.2033    0.2363 C.ar    1  LIG1        0.0739
     14 C          -4.5935   -1.2461    0.2759 C.ar    1  LIG1        0.1573
     15 C          -3.9816   -2.4101   -0.1493 C.ar    1  LIG1        0.1077
     16 N          -2.6688   -2.0714   -0.4529 N.ar    1  LIG1       -0.3479
     17 H          -1.9840   -2.6976   -0.8427 H       1  LIG1        0.1661
     18 S          -3.9426    1.4964    0.5921 S.3     1  LIG1       -0.1370
     19 H          -4.4922    1.3235    1.8077 H       1  LIG1        0.1073
     20 O          -5.8528   -1.0586    0.7209 O.3     1  LIG1       -0.5035
     21 H          -6.4434   -1.6990    0.2831 H       1  LIG1        0.2923
     22 C          -4.4460   -3.7796   -0.1937 C.ar    1  LIG1        0.0840
     23 C          -5.6739   -4.3290   -0.5266 C.ar    1  LIG1        0.0739
     24 C          -5.5626   -5.7398   -0.4252 C.ar    1  LIG1        0.1573
     25 C          -4.2738   -6.0401   -0.0282 C.ar    1  LIG1        0.1076
     26 N          -3.6099   -4.8264    0.0924 N.ar    1  LIG1       -0.3479
     27 H          -2.6482   -4.7301    0.3726 H       1  LIG1        0.1661
     28 S          -7.0921   -3.4470   -1.0958 S.3     1  LIG1       -0.1370
     29 H          -7.9923   -4.0271   -0.2823 H       1  LIG1        0.1073
     30 O          -6.6024   -6.5698   -0.6490 O.3     1  LIG1       -0.5035
     31 H          -6.2622   -7.4267   -0.9652 H       1  LIG1        0.2923
     32 C          -3.6360   -7.2890    0.3311 C.ar    1  LIG1        0.0835
     33 C          -3.7702   -8.5728   -0.1658 C.ar    1  LIG1        0.0732
     34 C          -2.8914   -9.4110    0.5765 C.ar    1  LIG1        0.1478
     35 C          -2.2448   -8.6372    1.5005 C.ar    1  LIG1        0.0453
     36 N          -2.6832   -7.3365    1.3187 N.ar    1  LIG1       -0.3555
     37 H          -2.5788   -6.6130    2.0113 H       1  LIG1        0.1655
     38 H          -1.5094   -8.8891    2.2483 H       1  LIG1        0.0845
     39 S          -4.7311   -9.0618   -1.5627 S.3     1  LIG1       -0.1370
     40 H          -5.3621  -10.0991   -0.9830 H       1  LIG1        0.1073
     41 O          -2.7865  -10.7401    0.3222 O.3     1  LIG1       -0.5042
     42 H          -2.1349  -11.1309    0.9147 H       1  LIG1        0.2923
@<TRIPOS>BOND
     1     6     5    1
     2     7     1    1
     3    39    40    1
     4    39    33    1
     5     1     5   ar
     6     1     2   ar
     7     5     4   ar
     8    28    23    1
     9    28    29    1
    10    31    30    1
    11    17    16    1
    12    30    24    1
    13    23    24   ar
    14    23    22   ar
    15     4    12    1
    16     4     3   ar
    17     2     8    1
    18     2     3   ar
    19    16    12   ar
    20    16    15   ar
    21    24    25   ar
    22    12    13   ar
    23    22    15    1
    24    22    26   ar
    25    33    32   ar
    26    33    34   ar
    27    15    14   ar
    28    25    26   ar
    29    25    32    1
    30     8     9    1
    31    26    27    1
    32     3    10    1
    33    13    14   ar
    34    13    18    1
    35    14    20    1
    36    21    20    1
    37    41    34    1
    38    41    42    1
    39    32    36   ar
    40    34    35   ar
    41    18    19    1
    42    11    10    1
    43    36    35   ar
    44    36    37    1
    45    35    38    1
