@<TRIPOS>MOLECULE
mol_data/opt/cam/geoms/mol2/13gf13gf13gf-13gf.out
 42 45 0 0 0
SMALL
GASTEIGER

@<TRIPOS>ATOM
      1 C           0.8447   -0.0761    1.7708 C.ar    1  LIG1        0.0191
      2 C           0.8404    0.8913    0.8014 C.ar    1  LIG1        0.0643
      3 C          -0.4188    0.8182    0.1399 C.ar    1  LIG1        0.1566
      4 C          -1.1485   -0.1986    0.7206 C.ar    1  LIG1        0.1072
      5 N          -0.3406   -0.7655    1.6993 N.ar    1  LIG1       -0.3555
      6 H          -0.7173   -1.2748    2.4833 H       1  LIG1        0.1655
      7 H           1.5956   -0.3227    2.5050 H       1  LIG1        0.0819
      8 S           2.1547    1.9872    0.3738 S.3     1  LIG1       -0.1377
      9 H           1.3715    2.8297   -0.3202 H       1  LIG1        0.1073
     10 O          -0.7384    1.6192   -0.9015 O.3     1  LIG1       -0.5035
     11 H          -1.7029    1.7637   -0.9037 H       1  LIG1        0.2923
     12 C          -2.4382   -0.7655    0.3883 C.ar    1  LIG1        0.0840
     13 C          -3.6214   -0.1931   -0.0503 C.ar    1  LIG1        0.0739
     14 C          -4.5845   -1.2280   -0.1766 C.ar    1  LIG1        0.1573
     15 C          -3.9819   -2.4200    0.1784 C.ar    1  LIG1        0.1077
     16 N          -2.6737   -2.1066    0.5259 N.ar    1  LIG1       -0.3479
     17 H          -1.9966   -2.7599    0.8833 H       1  LIG1        0.1661
     18 S          -3.9234    1.5277   -0.2947 S.3     1  LIG1       -0.1370
     19 H          -4.4531    1.4396   -1.5281 H       1  LIG1        0.1073
     20 O          -5.8359   -1.0069   -0.6284 O.3     1  LIG1       -0.5035
     21 H          -6.4349   -1.6738   -0.2449 H       1  LIG1        0.2923
     22 C          -4.4496   -3.7879    0.1219 C.ar    1  LIG1        0.0840
     23 C          -5.6837   -4.3550    0.3965 C.ar    1  LIG1        0.0739
     24 C          -5.5734   -5.7560    0.2011 C.ar    1  LIG1        0.1573
     25 C          -4.2788   -6.0324   -0.1942 C.ar    1  LIG1        0.1076
     26 N          -3.6108   -4.8153   -0.2211 N.ar    1  LIG1       -0.3479
     27 H          -2.6444   -4.7031   -0.4781 H       1  LIG1        0.1661
     28 S          -7.1096   -3.5096    1.0010 S.3     1  LIG1       -0.1370
     29 H          -7.9972   -4.0304    0.1352 H       1  LIG1        0.1073
     30 O          -6.6183   -6.5961    0.3509 O.3     1  LIG1       -0.5035
     31 H          -6.2850   -7.4736    0.6135 H       1  LIG1        0.2923
     32 C          -3.6374   -7.2559   -0.6271 C.ar    1  LIG1        0.0835
     33 C          -3.7823   -8.5701   -0.2211 C.ar    1  LIG1        0.0732
     34 C          -2.8928   -9.3585   -1.0042 C.ar    1  LIG1        0.1478
     35 C          -2.2296   -8.5256   -1.8626 C.ar    1  LIG1        0.0453
     36 N          -2.6684   -7.2390   -1.5999 N.ar    1  LIG1       -0.3555
     37 H          -2.5513   -6.4704   -2.2398 H       1  LIG1        0.1655
     38 H          -1.4823   -8.7282   -2.6136 H       1  LIG1        0.0845
     39 S          -4.7672   -9.1502    1.1233 S.3     1  LIG1       -0.1370
     40 H          -5.3904  -10.1437    0.4640 H       1  LIG1        0.1073
     41 O          -2.7947  -10.7021   -0.8392 O.3     1  LIG1       -0.5042
     42 H          -2.1340  -11.0537   -1.4462 H       1  LIG1        0.2923
@<TRIPOS>BOND
     1    38    35    1
     2    37    36    1
     3    35    36   ar
     4    35    34   ar
     5    36    32   ar
     6    19    18    1
     7    42    41    1
     8    34    41    1
     9    34    33   ar
    10    11    10    1
    11    10     3    1
    12    20    21    1
    13    20    14    1
    14    32    33   ar
    15    32    25    1
    16    27    26    1
    17     9     8    1
    18    18    13    1
    19    33    39    1
    20    26    25   ar
    21    26    22   ar
    22    25    24   ar
    23    14    13   ar
    24    14    15   ar
    25    13    12   ar
    26    22    15    1
    27    22    23   ar
    28    29    28    1
    29     3     4   ar
    30     3     2   ar
    31    15    16   ar
    32    24    30    1
    33    24    23   ar
    34    30    31    1
    35     8     2    1
    36    12    16   ar
    37    12     4    1
    38    23    28    1
    39    40    39    1
    40    16    17    1
    41     4     5   ar
    42     2     1   ar
    43     5     1   ar
    44     5     6    1
    45     1     7    1
