@<TRIPOS>MOLECULE
mol_data/opt/cam/geoms/mol2/13gf13gf-.out
 22 23 0 0 0
SMALL
GASTEIGER

@<TRIPOS>ATOM
      1 C           1.1521   -0.3625    0.3062 C.ar    1  LIG1        0.0191
      2 C           0.7872    0.9111   -0.0441 C.ar    1  LIG1        0.0643
      3 C          -0.6296    0.9206   -0.1799 C.ar    1  LIG1        0.1566
      4 C          -1.0935   -0.3519    0.0867 C.ar    1  LIG1        0.1072
      5 N           0.0212   -1.1362    0.3506 N.ar    1  LIG1       -0.3555
      6 H          -0.0331   -2.0077    0.8528 H       1  LIG1        0.1655
      7 H           2.1251   -0.7721    0.5283 H       1  LIG1        0.0819
      8 S           1.8509    2.2849   -0.3500 S.3     1  LIG1       -0.1377
      9 H           0.8777    3.2037   -0.2330 H       1  LIG1        0.1073
     10 O          -1.3148    2.0267   -0.5503 O.3     1  LIG1       -0.5035
     11 H          -2.2033    1.9932   -0.1505 H       1  LIG1        0.2923
     12 C          -2.4162   -0.9379    0.0187 C.ar    1  LIG1        0.0835
     13 C          -3.6778   -0.4318    0.2811 C.ar    1  LIG1        0.0732
     14 C          -4.6132   -1.4774    0.0409 C.ar    1  LIG1        0.1478
     15 C          -3.9193   -2.5864   -0.3594 C.ar    1  LIG1        0.0453
     16 N          -2.5767   -2.2509   -0.3385 N.ar    1  LIG1       -0.3555
     17 H          -1.8506   -2.7852   -0.7866 H       1  LIG1        0.1655
     18 H          -4.2551   -3.5728   -0.6377 H       1  LIG1        0.0845
     19 S          -4.0573    1.1599    0.9407 S.3     1  LIG1       -0.1370
     20 H          -4.9386    1.5407   -0.0027 H       1  LIG1        0.1073
     21 O          -5.9482   -1.2990    0.2134 O.3     1  LIG1       -0.5042
     22 H          -6.4086   -2.1235    0.0223 H       1  LIG1        0.2923
@<TRIPOS>BOND
     1    17    16    1
     2    18    15    1
     3    10     3    1
     4    10    11    1
     5    15    16   ar
     6    15    14   ar
     7     8     9    1
     8     8     2    1
     9    16    12   ar
    10     3     2   ar
    11     3     4   ar
    12     2     1   ar
    13    20    19    1
    14    12     4    1
    15    12    13   ar
    16    22    21    1
    17    14    21    1
    18    14    13   ar
    19     4     5   ar
    20    13    19    1
    21     1     5   ar
    22     1     7    1
    23     5     6    1
