@<TRIPOS>MOLECULE
mol_data/opt/cam/geoms/mol2/13gf13gf13gf.out
 32 34 0 0 0
SMALL
GASTEIGER

@<TRIPOS>ATOM
      1 C           1.1752   -0.2924    0.1143 C.ar    1  LIG1        0.0191
      2 C           0.7942    0.9397   -0.3577 C.ar    1  LIG1        0.0643
      3 C          -0.6305    0.9616   -0.3753 C.ar    1  LIG1        0.1566
      4 C          -1.0784   -0.2626    0.0886 C.ar    1  LIG1        0.1072
      5 N           0.0527   -1.0278    0.3518 N.ar    1  LIG1       -0.3555
      6 H           0.0301   -1.8692    0.9038 H       1  LIG1        0.1655
      7 H           2.1641   -0.6844    0.2944 H       1  LIG1        0.0819
      8 S           1.8812    2.1916   -0.9582 S.3     1  LIG1       -0.1377
      9 H           1.4466    3.1927   -0.1721 H       1  LIG1        0.1073
     10 O          -1.3375    2.0192   -0.8183 O.3     1  LIG1       -0.5035
     11 H          -2.2296    2.0011   -0.4280 H       1  LIG1        0.2923
     12 C          -2.4015   -0.8322    0.2069 C.ar    1  LIG1        0.0840
     13 C          -3.6310   -0.2760    0.4824 C.ar    1  LIG1        0.0739
     14 C          -4.6078   -1.3127    0.4065 C.ar    1  LIG1        0.1573
     15 C          -3.9594   -2.4874    0.0990 C.ar    1  LIG1        0.1076
     16 N          -2.5933   -2.1887    0.0240 N.ar    1  LIG1       -0.3479
     17 H          -1.9904   -2.6934   -0.6103 H       1  LIG1        0.1661
     18 S          -3.9483    1.3834    0.9914 S.3     1  LIG1       -0.1370
     19 H          -5.0557    1.5608    0.2499 H       1  LIG1        0.1073
     20 O          -5.9098   -1.0795    0.6566 O.3     1  LIG1       -0.5035
     21 H          -6.4473   -1.7636    0.2143 H       1  LIG1        0.2923
     22 C          -4.4130   -3.8563   -0.0170 C.ar    1  LIG1        0.0835
     23 C          -5.6163   -4.4204   -0.4104 C.ar    1  LIG1        0.0732
     24 C          -5.4694   -5.8338   -0.3288 C.ar    1  LIG1        0.1478
     25 C          -4.2019   -6.1068    0.1069 C.ar    1  LIG1        0.0453
     26 N          -3.5599   -4.8906    0.2636 N.ar    1  LIG1       -0.3555
     27 H          -2.6951   -4.7623    0.7619 H       1  LIG1        0.1655
     28 H          -3.7028   -7.0429    0.3012 H       1  LIG1        0.0845
     29 S          -7.0251   -3.5708   -1.0465 S.3     1  LIG1       -0.1370
     30 H          -7.9380   -4.0565   -0.1845 H       1  LIG1        0.1073
     31 O          -6.4811   -6.6784   -0.6538 O.3     1  LIG1       -0.5042
     32 H          -6.1804   -7.5893   -0.5634 H       1  LIG1        0.2923
@<TRIPOS>BOND
     1    29    23    1
     2    29    30    1
     3     8     2    1
     4     8     9    1
     5    10    11    1
     6    10     3    1
     7    31    32    1
     8    31    24    1
     9    17    16    1
    10    23    24   ar
    11    23    22   ar
    12     3     2   ar
    13     3     4   ar
    14     2     1   ar
    15    24    25   ar
    16    22    15    1
    17    22    26   ar
    18    16    15   ar
    19    16    12   ar
    20     4    12    1
    21     4     5   ar
    22    15    14   ar
    23    25    26   ar
    24    25    28    1
    25     1     7    1
    26     1     5   ar
    27    12    13   ar
    28    21    20    1
    29    19    18    1
    30    26    27    1
    31     5     6    1
    32    14    13   ar
    33    14    20    1
    34    13    18    1
