@<TRIPOS>MOLECULE
mol_data/opt/cam/geoms/mol2/13gf13gf-13gf-.out
 32 34 0 0 0
SMALL
GASTEIGER

@<TRIPOS>ATOM
      1 C           1.1761   -0.2943   -0.1210 C.ar    1  LIG1        0.0191
      2 C           0.7978    0.9325    0.3666 C.ar    1  LIG1        0.0643
      3 C          -0.6268    0.9553    0.3898 C.ar    1  LIG1        0.1566
      4 C          -1.0774   -0.2631   -0.0866 C.ar    1  LIG1        0.1072
      5 N           0.0521   -1.0260   -0.3628 N.ar    1  LIG1       -0.3555
      6 H           0.0268   -1.8610   -0.9245 H       1  LIG1        0.1655
      7 H           2.1640   -0.6850   -0.3093 H       1  LIG1        0.0819
      8 S           1.8880    2.1766    0.9776 S.3     1  LIG1       -0.1377
      9 H           1.4514    3.1870    0.2047 H       1  LIG1        0.1073
     10 O          -1.3314    2.0083    0.8476 O.3     1  LIG1       -0.5035
     11 H          -2.2249    1.9953    0.4605 H       1  LIG1        0.2923
     12 C          -2.4014   -0.8302   -0.2066 C.ar    1  LIG1        0.0840
     13 C          -3.6314   -0.2700   -0.4711 C.ar    1  LIG1        0.0739
     14 C          -4.6088   -1.3067   -0.4036 C.ar    1  LIG1        0.1573
     15 C          -3.9603   -2.4854   -0.1121 C.ar    1  LIG1        0.1076
     16 N          -2.5936   -2.1886   -0.0387 N.ar    1  LIG1       -0.3479
     17 H          -1.9888   -2.7011    0.5874 H       1  LIG1        0.1661
     18 S          -3.9493    1.3954   -0.9597 S.3     1  LIG1       -0.1370
     19 H          -5.0538    1.5650   -0.2121 H       1  LIG1        0.1073
     20 O          -5.9115   -1.0697   -0.6462 O.3     1  LIG1       -0.5035
     21 H          -6.4479   -1.7585   -0.2098 H       1  LIG1        0.2923
     22 C          -4.4145   -3.8552   -0.0103 C.ar    1  LIG1        0.0835
     23 C          -5.6168   -4.4229    0.3810 C.ar    1  LIG1        0.0732
     24 C          -5.4713   -5.8354    0.2825 C.ar    1  LIG1        0.1478
     25 C          -4.2056   -6.1043   -0.1610 C.ar    1  LIG1        0.0453
     26 N          -3.5633   -4.8869   -0.3060 N.ar    1  LIG1       -0.3555
     27 H          -2.7002   -4.7535   -0.8059 H       1  LIG1        0.1655
     28 H          -3.7080   -7.0385   -0.3680 H       1  LIG1        0.0845
     29 S          -7.0225   -3.5796    1.0321 S.3     1  LIG1       -0.1370
     30 H          -7.9390   -4.0546    0.1680 H       1  LIG1        0.1073
     31 O          -6.4825   -6.6830    0.6015 O.3     1  LIG1       -0.5042
     32 H          -6.1829   -7.5930    0.4993 H       1  LIG1        0.2923
@<TRIPOS>BOND
     1    18    13    1
     2    18    19    1
     3     6     5    1
     4    27    26    1
     5    20    14    1
     6    20    21    1
     7    13    14   ar
     8    13    12   ar
     9    14    15   ar
    10    28    25    1
    11     5     1   ar
    12     5     4   ar
    13     7     1    1
    14    26    25   ar
    15    26    22   ar
    16    12     4    1
    17    12    16   ar
    18    25    24   ar
    19     1     2   ar
    20    15    16   ar
    21    15    22    1
    22     4     3   ar
    23    16    17    1
    24    22    23   ar
    25    30    29    1
    26     9     8    1
    27    24    23   ar
    28    24    31    1
    29     2     3   ar
    30     2     8    1
    31    23    29    1
    32     3    10    1
    33    11    10    1
    34    32    31    1
