@<TRIPOS>MOLECULE
mol_data/opt/cam/geoms/mol2/13gf13gf-13gf-13gf-.out
 42 45 0 0 0
SMALL
GASTEIGER

@<TRIPOS>ATOM
      1 C           0.9810   -0.0323    1.2390 C.ar    1  LIG1        0.0191
      2 C           0.8589    0.9189    0.2615 C.ar    1  LIG1        0.0643
      3 C          -0.4685    0.8311   -0.2474 C.ar    1  LIG1        0.1566
      4 C          -1.1206   -0.1784    0.4305 C.ar    1  LIG1        0.1072
      5 N          -0.2012   -0.7267    1.3172 N.ar    1  LIG1       -0.3555
      6 H          -0.4838   -1.2214    2.1487 H       1  LIG1        0.1655
      7 H           1.8137   -0.2649    1.8842 H       1  LIG1        0.0819
      8 S           2.1058    2.0164   -0.3319 S.3     1  LIG1       -0.1377
      9 H           1.2438    2.8098   -0.9896 H       1  LIG1        0.1073
     10 O          -0.9095    1.6134   -1.2581 O.3     1  LIG1       -0.5035
     11 H          -1.8689    1.7543   -1.1524 H       1  LIG1        0.2923
     12 C          -2.4372   -0.7555    0.2650 C.ar    1  LIG1        0.0840
     13 C          -3.6662   -0.1985   -0.0538 C.ar    1  LIG1        0.0739
     14 C          -4.6313   -1.2387   -0.0416 C.ar    1  LIG1        0.1573
     15 C          -3.9849   -2.4184    0.2815 C.ar    1  LIG1        0.1077
     16 N          -2.6492   -2.0898    0.4740 N.ar    1  LIG1       -0.3479
     17 H          -1.9274   -2.7479    0.7157 H       1  LIG1        0.1661
     18 S          -4.0056    1.5136   -0.3102 S.3     1  LIG1       -0.1370
     19 H          -4.6482    1.3921   -1.4858 H       1  LIG1        0.1073
     20 O          -5.9243   -1.0297   -0.3596 O.3     1  LIG1       -0.5035
     21 H          -6.4787   -1.7131    0.0587 H       1  LIG1        0.2923
     22 C          -4.4389   -3.7883    0.3289 C.ar    1  LIG1        0.0840
     23 C          -5.6457   -4.3464    0.6847 C.ar    1  LIG1        0.0739
     24 C          -5.5570   -5.7546    0.4751 C.ar    1  LIG1        0.1573
     25 C          -4.2936   -6.0365    0.0075 C.ar    1  LIG1        0.1076
     26 N          -3.5949   -4.8230   -0.0360 N.ar    1  LIG1       -0.3479
     27 H          -2.9001   -4.6649   -0.7527 H       1  LIG1        0.1661
     28 S          -7.0167   -3.5110    1.4166 S.3     1  LIG1       -0.1370
     29 H          -7.9713   -4.1775    0.7447 H       1  LIG1        0.1073
     30 O          -6.5810   -6.5787    0.7644 O.3     1  LIG1       -0.5035
     31 H          -6.4911   -7.3975    0.2404 H       1  LIG1        0.2923
     32 C          -3.6145   -7.2778   -0.2950 C.ar    1  LIG1        0.0835
     33 C          -4.0597   -8.5072   -0.7543 C.ar    1  LIG1        0.0732
     34 C          -2.9216   -9.3532   -0.8742 C.ar    1  LIG1        0.1478
     35 C          -1.8182   -8.6406   -0.4917 C.ar    1  LIG1        0.0453
     36 N          -2.2535   -7.3673   -0.1698 N.ar    1  LIG1       -0.3555
     37 H          -1.7059   -6.6863    0.3293 H       1  LIG1        0.1655
     38 H          -0.7773   -8.9172   -0.4356 H       1  LIG1        0.0845
     39 S          -5.7003   -8.9195   -1.2539 S.3     1  LIG1       -0.1370
     40 H          -5.8650  -10.0010   -0.4695 H       1  LIG1        0.1073
     41 O          -3.0258  -10.6356   -1.3060 O.3     1  LIG1       -0.5042
     42 H          -2.1488  -11.0322   -1.3507 H       1  LIG1        0.2923
@<TRIPOS>BOND
     1    19    18    1
     2    42    41    1
     3    41    34    1
     4    10    11    1
     5    10     3    1
     6    39    33    1
     7    39    40    1
     8     9     8    1
     9    34    33   ar
    10    34    35   ar
    11    33    32   ar
    12    27    26    1
    13    35    38    1
    14    35    36   ar
    15    20    14    1
    16    20    21    1
    17     8     2    1
    18    18    13    1
    19    32    36   ar
    20    32    25    1
    21     3     2   ar
    22     3     4   ar
    23    36    37    1
    24    13    14   ar
    25    13    12   ar
    26    14    15   ar
    27    26    25   ar
    28    26    22   ar
    29    25    24   ar
    30    31    30    1
    31     2     1   ar
    32    12     4    1
    33    12    16   ar
    34    15    22    1
    35    15    16   ar
    36    22    23   ar
    37     4     5   ar
    38    16    17    1
    39    24    23   ar
    40    24    30    1
    41    23    28    1
    42    29    28    1
    43     1     5   ar
    44     1     7    1
    45     5     6    1
