@<TRIPOS>MOLECULE
mol_data/opt/cam/geoms/mol2/13gg13gg13gg-.out
 32 34 0 0 0
SMALL
GASTEIGER

@<TRIPOS>ATOM
      1 C           0.8586   -0.1563    1.4759 C.ar    1  LIG1        0.0165
      2 C           0.9046    0.7262    0.4260 C.ar    1  LIG1        0.0359
      3 C          -0.3522    0.6511   -0.2495 C.ar    1  LIG1        0.0447
      4 C          -1.1222   -0.2792    0.4196 C.ar    1  LIG1        0.0784
      5 N          -0.3605   -0.7710    1.4565 N.ar    1  LIG1       -0.3576
      6 H          -0.7195   -1.3685    2.1839 H       1  LIG1        0.1654
      7 H           1.6001   -0.3800    2.2266 H       1  LIG1        0.0818
      8 S           2.3350    1.6562   -0.0301 S.3     1  LIG1       -0.1401
      9 H           1.7241    2.8469   -0.1596 H       1  LIG1        0.1072
     10 S          -0.7813    1.5477   -1.7091 S.3     1  LIG1       -0.1395
     11 H          -1.9157    2.0891   -1.2239 H       1  LIG1        0.1072
     12 C          -2.4611   -0.7978    0.1701 C.ar    1  LIG1        0.0789
     13 C          -3.7013   -0.1859    0.1052 C.ar    1  LIG1        0.0454
     14 C          -4.6727   -1.2024   -0.1146 C.ar    1  LIG1        0.0454
     15 C          -4.0075   -2.4091   -0.1880 C.ar    1  LIG1        0.0789
     16 N          -2.6679   -2.1394    0.0064 N.ar    1  LIG1       -0.3501
     17 H          -1.9349   -2.8300   -0.0267 H       1  LIG1        0.1661
     18 S          -4.0126    1.5297    0.3865 S.3     1  LIG1       -0.1395
     19 H          -4.6609    1.7790   -0.7673 H       1  LIG1        0.1072
     20 S          -6.4001   -0.8978   -0.2769 S.3     1  LIG1       -0.1395
     21 H          -6.7483   -2.1924   -0.3660 H       1  LIG1        0.1072
     22 C          -4.4955   -3.7565   -0.4561 C.ar    1  LIG1        0.0784
     23 C          -5.2264   -4.6331    0.3183 C.ar    1  LIG1        0.0447
     24 C          -5.4190   -5.8249   -0.4463 C.ar    1  LIG1        0.0359
     25 C          -4.8069   -5.6289   -1.6635 C.ar    1  LIG1        0.0165
     26 N          -4.2466   -4.3941   -1.6598 N.ar    1  LIG1       -0.3576
     27 H          -3.7946   -3.9520   -2.4443 H       1  LIG1        0.1654
     28 H          -4.7455   -6.2877   -2.5158 H       1  LIG1        0.0818
     29 S          -5.7565   -4.3173    1.9695 S.3     1  LIG1       -0.1395
     30 H          -6.5882   -5.3738    2.0189 H       1  LIG1        0.1072
     31 S          -6.3482   -7.2537    0.0120 S.3     1  LIG1       -0.1401
     32 H          -5.4136   -7.8669    0.7644 H       1  LIG1        0.1072
@<TRIPOS>BOND
     1    28    25    1
     2    27    26    1
     3    10    11    1
     4    10     3    1
     5    25    26   ar
     6    25    24   ar
     7    26    22   ar
     8    19    18    1
     9    22    15    1
    10    22    23   ar
    11    24    31    1
    12    24    23   ar
    13    21    20    1
    14    20    14    1
    15     3     4   ar
    16     3     2   ar
    17    15    14   ar
    18    15    16   ar
    19     9     8    1
    20    14    13   ar
    21     8     2    1
    22    17    16    1
    23    16    12   ar
    24    31    32    1
    25    13    12   ar
    26    13    18    1
    27    12     4    1
    28    23    29    1
    29     4     5   ar
    30     2     1   ar
    31     5     1   ar
    32     5     6    1
    33     1     7    1
    34    29    30    1
