@<TRIPOS>MOLECULE
mol_data/opt/cam/geoms/mol2/13gg13gg13gg.out
 32 34 0 0 0
SMALL
GASTEIGER

@<TRIPOS>ATOM
      1 C           1.1991    0.0299    0.4079 C.ar    1  LIG1        0.0165
      2 C           0.7882    0.9503   -0.5236 C.ar    1  LIG1        0.0359
      3 C          -0.6151    0.7644   -0.7176 C.ar    1  LIG1        0.0447
      4 C          -1.0101   -0.2676    0.1118 C.ar    1  LIG1        0.0784
      5 N           0.1135   -0.7101    0.7768 N.ar    1  LIG1       -0.3576
      6 H           0.0933   -1.3716    1.5356 H       1  LIG1        0.1654
      7 H           2.1782   -0.1406    0.8275 H       1  LIG1        0.0818
      8 S           1.8718    2.0456   -1.3872 S.3     1  LIG1       -0.1401
      9 H           1.1681    3.1728   -1.1807 H       1  LIG1        0.1072
     10 S          -1.5994    1.6572   -1.8815 S.3     1  LIG1       -0.1395
     11 H          -2.6178    1.9430   -1.0461 H       1  LIG1        0.1072
     12 C          -2.3087   -0.8927    0.3178 C.ar    1  LIG1        0.0789
     13 C          -3.5153   -0.3748    0.7347 C.ar    1  LIG1        0.0454
     14 C          -4.4649   -1.4412    0.7492 C.ar    1  LIG1        0.0454
     15 C          -3.8051   -2.5860    0.3418 C.ar    1  LIG1        0.0789
     16 N          -2.4982   -2.2438    0.1060 N.ar    1  LIG1       -0.3501
     17 H          -1.8563   -2.8145   -0.4227 H       1  LIG1        0.1661
     18 S          -3.7690    1.2943    1.2457 S.3     1  LIG1       -0.1395
     19 H          -5.1117    1.2097    1.2426 H       1  LIG1        0.1072
     20 S          -6.1298   -1.3231    1.3282 S.3     1  LIG1       -0.1395
     21 H          -6.7533   -1.6212    0.1712 H       1  LIG1        0.1072
     22 C          -4.2935   -3.9427    0.1487 C.ar    1  LIG1        0.0784
     23 C          -5.2881   -4.4348   -0.6680 C.ar    1  LIG1        0.0447
     24 C          -5.3562   -5.8467   -0.4570 C.ar    1  LIG1        0.0359
     25 C          -4.3864   -6.1663    0.4645 C.ar    1  LIG1        0.0165
     26 N          -3.7461   -5.0221    0.8176 N.ar    1  LIG1       -0.3576
     27 H          -3.0645   -4.9387    1.5541 H       1  LIG1        0.1654
     28 H          -4.1224   -7.1261    0.8807 H       1  LIG1        0.0818
     29 S          -6.2323   -3.4703   -1.8005 S.3     1  LIG1       -0.1395
     30 H          -6.9152   -4.5180   -2.2964 H       1  LIG1        0.1072
     31 S          -6.4020   -7.0011   -1.2879 S.3     1  LIG1       -0.1401
     32 H          -7.4886   -6.8854   -0.4997 H       1  LIG1        0.1072
@<TRIPOS>BOND
     1    30    29    1
     2    10    11    1
     3    10     3    1
     4    29    23    1
     5     8     9    1
     6     8     2    1
     7    31    32    1
     8    31    24    1
     9     3     2   ar
    10     3     4   ar
    11    23    24   ar
    12    23    22   ar
    13     2     1   ar
    14    24    25   ar
    15    17    16    1
    16    16    12   ar
    17    16    15   ar
    18     4    12    1
    19     4     5   ar
    20    22    15    1
    21    22    26   ar
    22    21    20    1
    23    12    13   ar
    24    15    14   ar
    25     1     5   ar
    26     1     7    1
    27    25    26   ar
    28    25    28    1
    29    13    14   ar
    30    13    18    1
    31    14    20    1
    32     5     6    1
    33    26    27    1
    34    19    18    1
