@<TRIPOS>MOLECULE
mol_data/opt/cam/geoms/mol2/13gg13gg.out
 22 23 0 0 0
SMALL
GASTEIGER

@<TRIPOS>ATOM
      1 C           0.3972    0.6988    1.3240 C.ar    1  LIG1        0.0165
      2 C           0.6654    0.9968    0.0124 C.ar    1  LIG1        0.0359
      3 C          -0.4131    0.4733   -0.7645 C.ar    1  LIG1        0.0447
      4 C          -1.2995   -0.1392    0.1133 C.ar    1  LIG1        0.0784
      5 N          -0.7822    0.0195    1.3707 N.ar    1  LIG1       -0.3576
      6 H          -1.2367   -0.3521    2.1957 H       1  LIG1        0.1654
      7 H           0.9615    0.9241    2.2153 H       1  LIG1        0.0818
      8 S           2.0266    1.9745   -0.5412 S.3     1  LIG1       -0.1401
      9 H           2.6141    1.0478   -1.3201 H       1  LIG1        0.1072
     10 S          -0.5111    0.5090   -2.5299 S.3     1  LIG1       -0.1395
     11 H          -0.7920    1.8164   -2.6881 H       1  LIG1        0.1072
     12 C          -2.5576   -0.8392   -0.1014 C.ar    1  LIG1        0.0784
     13 C          -3.4603   -1.4258    0.7780 C.ar    1  LIG1        0.0447
     14 C          -4.5342   -1.9565   -0.0029 C.ar    1  LIG1        0.0359
     15 C          -4.2506   -1.6775   -1.3158 C.ar    1  LIG1        0.0165
     16 N          -3.0627   -1.0150   -1.3617 N.ar    1  LIG1       -0.3576
     17 H          -2.5934   -0.6707   -2.1900 H       1  LIG1        0.1654
     18 H          -4.8086   -1.9116   -2.2088 H       1  LIG1        0.0818
     19 S          -3.2937   -1.5729    2.5328 S.3     1  LIG1       -0.1395
     20 H          -4.1241   -0.5784    2.9034 H       1  LIG1        0.1072
     21 S          -5.9242   -2.8969    0.5449 S.3     1  LIG1       -0.1401
     22 H          -6.6357   -1.8931    1.0918 H       1  LIG1        0.1072
@<TRIPOS>BOND
     1    11    10    1
     2    10     3    1
     3    18    15    1
     4    17    16    1
     5    16    15   ar
     6    16    12   ar
     7     9     8    1
     8    15    14   ar
     9     3     2   ar
    10     3     4   ar
    11     8     2    1
    12    12     4    1
    13    12    13   ar
    14    14    21    1
    15    14    13   ar
    16     2     1   ar
    17     4     5   ar
    18    21    22    1
    19    13    19    1
    20     1     5   ar
    21     1     7    1
    22     5     6    1
    23    19    20    1
