@<TRIPOS>MOLECULE
mol_data/opt/cam/geoms/mol2/13gg.out
 12 12 0 0 0
SMALL
GASTEIGER

@<TRIPOS>ATOM
      1 C           1.0631   -0.3408   -0.0437 C.ar    1  LIG1        0.0160
      2 C           0.5148    0.9007    0.1607 C.ar    1  LIG1        0.0352
      3 C          -0.9006    0.7180    0.2913 C.ar    1  LIG1        0.0352
      4 C          -1.1461   -0.6260    0.1600 C.ar    1  LIG1        0.0160
      5 N           0.0500   -1.2578   -0.0339 N.ar    1  LIG1       -0.3651
      6 H           0.1673   -2.2505   -0.1511 H       1  LIG1        0.1648
      7 H          -2.0797   -1.1655    0.1962 H       1  LIG1        0.0818
      8 H           2.0933   -0.6267   -0.1887 H       1  LIG1        0.0818
      9 S           1.4501    2.3896    0.3290 S.3     1  LIG1       -0.1401
     10 H           1.1124    2.9652   -0.8403 H       1  LIG1        0.1072
     11 S          -2.1346    1.9268    0.6597 S.3     1  LIG1       -0.1401
     12 H          -2.1679    2.5423   -0.5372 H       1  LIG1        0.1072
@<TRIPOS>BOND
     1    10     9    1
     2    12    11    1
     3     8     1    1
     4     6     5    1
     5     1     5   ar
     6     1     2   ar
     7     5     4   ar
     8     4     7    1
     9     4     3   ar
    10     2     3   ar
    11     2     9    1
    12     3    11    1
