@<TRIPOS>MOLECULE
mol_data/opt/cam/geoms/mol2/13gg13gg-.out
 22 23 0 0 0
SMALL
GASTEIGER

@<TRIPOS>ATOM
      1 C           1.0843   -0.1884   -0.7817 C.ar    1  LIG1        0.0165
      2 C           0.7822    0.9215   -0.0342 C.ar    1  LIG1        0.0359
      3 C          -0.5694    0.7783    0.4062 C.ar    1  LIG1        0.0447
      4 C          -1.0439   -0.4219   -0.0938 C.ar    1  LIG1        0.0784
      5 N          -0.0229   -0.9958   -0.8044 N.ar    1  LIG1       -0.3576
      6 H          -0.1296   -1.8154   -1.3797 H       1  LIG1        0.1654
      7 H           1.9935   -0.4605   -1.2943 H       1  LIG1        0.0818
      8 S           1.8982    2.2422    0.3219 S.3     1  LIG1       -0.1401
      9 H           0.9752    3.0068    0.9323 H       1  LIG1        0.1072
     10 S          -1.4259    1.8736    1.4958 S.3     1  LIG1       -0.1395
     11 H          -2.3077    2.3792    0.6118 H       1  LIG1        0.1072
     12 C          -2.3498   -1.0535    0.0291 C.ar    1  LIG1        0.0784
     13 C          -3.5948   -0.6374   -0.3876 C.ar    1  LIG1        0.0447
     14 C          -4.5345   -1.6424   -0.0018 C.ar    1  LIG1        0.0359
     15 C          -3.8248   -2.6436    0.6202 C.ar    1  LIG1        0.0165
     16 N          -2.5145   -2.2883    0.6292 N.ar    1  LIG1       -0.3576
     17 H          -1.7791   -2.7783    1.1125 H       1  LIG1        0.1654
     18 H          -4.1737   -3.5705    1.0480 H       1  LIG1        0.0818
     19 S          -3.9133    0.8536   -1.2717 S.3     1  LIG1       -0.1395
     20 H          -5.2106    0.5763   -1.4953 H       1  LIG1        0.1072
     21 S          -6.2656   -1.6761   -0.3455 S.3     1  LIG1       -0.1401
     22 H          -6.6886   -0.9276    0.6918 H       1  LIG1        0.1072
@<TRIPOS>BOND
     1    20    19    1
     2     6     5    1
     3     7     1    1
     4    19    13    1
     5     5     1   ar
     6     5     4   ar
     7     1     2   ar
     8    13    14   ar
     9    13    12   ar
    10    21    14    1
    11    21    22    1
    12     4    12    1
    13     4     3   ar
    14     2     8    1
    15     2     3   ar
    16    14    15   ar
    17    12    16   ar
    18     8     9    1
    19     3    10    1
    20    11    10    1
    21    15    16   ar
    22    15    18    1
    23    16    17    1
