@<TRIPOS>MOLECULE
mol_data/opt/cam/geoms/mol2/13gh13gh-13gh.out
 35 37 0 0 0
SMALL
GASTEIGER

@<TRIPOS>ATOM
      1 C           0.8690   -0.2251    1.1091 C.ar    1  LIG1        0.0173
      2 C           0.7999    0.8624    0.2742 C.ar    1  LIG1        0.0434
      3 C          -0.5258    0.9202   -0.2630 C.ar    1  LIG1        0.0650
      4 C          -1.2255   -0.1481    0.2689 C.ar    1  LIG1        0.0860
      5 N          -0.3377   -0.8488    1.0891 N.ar    1  LIG1       -0.3570
      6 H          -0.6400   -1.5187    1.7780 H       1  LIG1        0.1655
      7 H           1.6913   -0.5816    1.7100 H       1  LIG1        0.0819
      8 S           2.1434    1.9151   -0.1737 S.3     1  LIG1       -0.1394
      9 H           1.7438    3.0281    0.4717 H       1  LIG1        0.1072
     10 N          -0.9571    1.9108   -1.1255 N.pl3   1  LIG1       -0.3554
     11 H          -0.2656    2.1965   -1.8051 H       1  LIG1        0.1424
     12 H          -1.8835    1.7878   -1.5040 H       1  LIG1        0.1424
     13 C          -2.5461   -0.6981    0.0250 C.ar    1  LIG1        0.0804
     14 C          -3.8108   -0.1381   -0.1286 C.ar    1  LIG1        0.0529
     15 C          -4.7502   -1.2026   -0.2823 C.ar    1  LIG1        0.0657
     16 C          -4.0478   -2.3877   -0.2162 C.ar    1  LIG1        0.0865
     17 N          -2.7110   -2.0513   -0.0270 N.ar    1  LIG1       -0.3494
     18 H          -1.9555   -2.7160    0.0014 H       1  LIG1        0.1661
     19 S          -4.2406    1.5700   -0.1930 S.3     1  LIG1       -0.1388
     20 H          -4.3769    1.8237    1.1230 H       1  LIG1        0.1072
     21 N          -6.1197   -1.0417   -0.4203 N.pl3   1  LIG1       -0.3554
     22 H          -6.3843   -0.1449   -0.8041 H       1  LIG1        0.1424
     23 H          -6.5899   -1.8160   -0.8670 H       1  LIG1        0.1424
     24 C          -4.4801   -3.7649   -0.3733 C.ar    1  LIG1        0.0799
     25 C          -5.4633   -4.5032    0.2667 C.ar    1  LIG1        0.0522
     26 C          -5.4934   -5.8044   -0.3234 C.ar    1  LIG1        0.0561
     27 C          -4.5213   -5.8300   -1.2916 C.ar    1  LIG1        0.0241
     28 N          -3.9078   -4.5920   -1.3032 N.ar    1  LIG1       -0.3570
     29 H          -3.2903   -4.2665   -2.0281 H       1  LIG1        0.1655
     30 H          -4.2009   -6.6255   -1.9459 H       1  LIG1        0.0826
     31 S          -6.5042   -3.9578    1.5839 S.3     1  LIG1       -0.1388
     32 H          -6.0151   -4.7653    2.5458 H       1  LIG1        0.1072
     33 N          -6.3104   -6.8475    0.1182 N.pl3   1  LIG1       -0.3560
     34 H          -7.1746   -6.5017    0.5183 H       1  LIG1        0.1424
     35 H          -6.4998   -7.5418   -0.5916 H       1  LIG1        0.1424
@<TRIPOS>BOND
     1    29    28    1
     2    30    27    1
     3    11    10    1
     4    12    10    1
     5    28    27   ar
     6    28    24   ar
     7    27    26   ar
     8    10     3    1
     9    23    21    1
    10    22    21    1
    11    35    33    1
    12    21    15    1
    13    24    16    1
    14    24    25   ar
    15    26    33    1
    16    26    25   ar
    17    15    16   ar
    18    15    14   ar
    19     3     4   ar
    20     3     2   ar
    21    16    17   ar
    22    19    14    1
    23    19    20    1
    24     8     2    1
    25     8     9    1
    26    14    13   ar
    27    17    18    1
    28    17    13   ar
    29    13     4    1
    30    33    34    1
    31    25    31    1
    32     4     5   ar
    33     2     1   ar
    34     5     1   ar
    35     5     6    1
    36     1     7    1
    37    31    32    1
