@<TRIPOS>MOLECULE
mol_data/opt/cam/geoms/mol2/13gh13gh13gh-13gh-.out
 46 49 0 0 0
SMALL
GASTEIGER

@<TRIPOS>ATOM
      1 C           0.5104    0.0734    1.9092 C.ar    1  LIG1        0.0173
      2 C           0.7364    0.9015    0.8378 C.ar    1  LIG1        0.0434
      3 C          -0.3959    0.8107   -0.0335 C.ar    1  LIG1        0.0650
      4 C          -1.2814   -0.0811    0.5443 C.ar    1  LIG1        0.0860
      5 N          -0.6886   -0.5381    1.7243 N.ar    1  LIG1       -0.3570
      6 H          -1.2066   -0.9978    2.4559 H       1  LIG1        0.1655
      7 H           1.1209   -0.1086    2.7801 H       1  LIG1        0.0819
      8 S           2.2197    1.8008    0.5147 S.3     1  LIG1       -0.1394
      9 H           1.7467    3.0439    0.7289 H       1  LIG1        0.1072
     10 N          -0.5194    1.5349   -1.2043 N.pl3   1  LIG1       -0.3554
     11 H           0.3445    1.6387   -1.7188 H       1  LIG1        0.1424
     12 H          -1.3172    1.3065   -1.7771 H       1  LIG1        0.1424
     13 C          -2.5259   -0.6794    0.0988 C.ar    1  LIG1        0.0804
     14 C          -3.6695   -0.1780   -0.5153 C.ar    1  LIG1        0.0529
     15 C          -4.6055   -1.2479   -0.6463 C.ar    1  LIG1        0.0657
     16 C          -4.0226   -2.3779   -0.1113 C.ar    1  LIG1        0.0865
     17 N          -2.7584   -2.0038    0.3330 N.ar    1  LIG1       -0.3494
     18 H          -2.0912   -2.6271    0.7568 H       1  LIG1        0.1661
     19 S          -3.9553    1.4576   -1.1070 S.3     1  LIG1       -0.1388
     20 H          -4.3837    2.0416    0.0289 H       1  LIG1        0.1072
     21 N          -5.8839   -1.1334   -1.1701 N.pl3   1  LIG1       -0.3554
     22 H          -6.0008   -0.3372   -1.7816 H       1  LIG1        0.1424
     23 H          -6.2621   -1.9870   -1.5557 H       1  LIG1        0.1424
     24 C          -4.5090   -3.7400   -0.0225 C.ar    1  LIG1        0.0804
     25 C          -5.6974   -4.2557    0.4588 C.ar    1  LIG1        0.0529
     26 C          -5.6592   -5.6738    0.3195 C.ar    1  LIG1        0.0657
     27 C          -4.4356   -6.0021   -0.2377 C.ar    1  LIG1        0.0865
     28 N          -3.7585   -4.8114   -0.4467 N.ar    1  LIG1       -0.3494
     29 H          -2.8194   -4.7461   -0.8028 H       1  LIG1        0.1661
     30 S          -7.0403   -3.3521    1.1643 S.3     1  LIG1       -0.1388
     31 H          -7.3935   -4.3484    1.9992 H       1  LIG1        0.1072
     32 N          -6.6907   -6.5076    0.7599 N.pl3   1  LIG1       -0.3554
     33 H          -7.5718   -6.3352    0.2905 H       1  LIG1        0.1424
     34 H          -6.4478   -7.4890    0.7560 H       1  LIG1        0.1424
     35 C          -3.8521   -7.2486   -0.7014 C.ar    1  LIG1        0.0799
     36 C          -3.8007   -8.5372   -0.1863 C.ar    1  LIG1        0.0522
     37 C          -3.0449   -9.3476   -1.0928 C.ar    1  LIG1        0.0561
     38 C          -2.6564   -8.5371   -2.1278 C.ar    1  LIG1        0.0241
     39 N          -3.1351   -7.2657   -1.8662 N.ar    1  LIG1       -0.3570
     40 H          -3.1725   -6.5222   -2.5439 H       1  LIG1        0.1655
     41 H          -2.0613   -8.7469   -3.0022 H       1  LIG1        0.0826
     42 S          -4.5422   -9.1442    1.2936 S.3     1  LIG1       -0.1388
     43 H          -3.5908   -8.8114    2.1877 H       1  LIG1        0.1072
     44 N          -2.7133  -10.6842   -0.8757 N.pl3   1  LIG1       -0.3560
     45 H          -3.3293  -11.1269   -0.2058 H       1  LIG1        0.1424
     46 H          -2.6409  -11.2326   -1.7210 H       1  LIG1        0.1424
@<TRIPOS>BOND
     1    41    38    1
     2    40    39    1
     3    38    39   ar
     4    38    37   ar
     5    39    35   ar
     6    22    21    1
     7    12    10    1
     8    46    44    1
     9    11    10    1
    10    23    21    1
    11    10     3    1
    12    21    15    1
    13    19    14    1
    14    19    20    1
    15    37    44    1
    16    37    36   ar
    17    44    45    1
    18    29    28    1
    19    35    27    1
    20    35    36   ar
    21    15    14   ar
    22    15    16   ar
    23    14    13   ar
    24    28    27   ar
    25    28    24   ar
    26    27    26   ar
    27    36    42    1
    28    16    24    1
    29    16    17   ar
    30     3     4   ar
    31     3     2   ar
    32    24    25   ar
    33    13    17   ar
    34    13     4    1
    35    33    32    1
    36    26    25   ar
    37    26    32    1
    38    17    18    1
    39    25    30    1
    40     8     9    1
    41     8     2    1
    42     4     5   ar
    43    34    32    1
    44     2     1   ar
    45    30    31    1
    46    42    43    1
    47     5     1   ar
    48     5     6    1
    49     1     7    1
