@<TRIPOS>MOLECULE
mol_data/opt/cam/geoms/mol2/13gh13gh13gh-.out
 35 37 0 0 0
SMALL
GASTEIGER

@<TRIPOS>ATOM
      1 C           0.8533   -0.0136    1.3085 C.ar    1  LIG1        0.0173
      2 C           0.8002    0.9045    0.2849 C.ar    1  LIG1        0.0434
      3 C          -0.4921    0.8087   -0.3164 C.ar    1  LIG1        0.0650
      4 C          -1.1892   -0.1646    0.3704 C.ar    1  LIG1        0.0860
      5 N          -0.3329   -0.6706    1.3460 N.ar    1  LIG1       -0.3570
      6 H          -0.6358   -1.2734    2.0933 H       1  LIG1        0.1655
      7 H           1.6547   -0.2308    1.9976 H       1  LIG1        0.0819
      8 S           2.1336    1.9121   -0.2804 S.3     1  LIG1       -0.1394
      9 H           1.7114    3.0973    0.2016 H       1  LIG1        0.1072
     10 N          -0.9295    1.5856   -1.3800 N.pl3   1  LIG1       -0.3554
     11 H          -0.1820    1.8540   -2.0070 H       1  LIG1        0.1424
     12 H          -1.7240    1.2020   -1.8723 H       1  LIG1        0.1424
     13 C          -2.5094   -0.7287    0.1525 C.ar    1  LIG1        0.0804
     14 C          -3.7624   -0.1425    0.0429 C.ar    1  LIG1        0.0529
     15 C          -4.7174   -1.1783   -0.1777 C.ar    1  LIG1        0.0657
     16 C          -4.0330   -2.3774   -0.1804 C.ar    1  LIG1        0.0865
     17 N          -2.6905   -2.0756    0.0120 N.ar    1  LIG1       -0.3494
     18 H          -1.9487   -2.7558    0.0325 H       1  LIG1        0.1661
     19 S          -4.1358    1.5798    0.1394 S.3     1  LIG1       -0.1388
     20 H          -4.8654    1.5392    1.2713 H       1  LIG1        0.1072
     21 N          -6.0851   -0.9727   -0.3019 N.pl3   1  LIG1       -0.3554
     22 H          -6.3109   -0.0981   -0.7584 H       1  LIG1        0.1424
     23 H          -6.5822   -1.7544   -0.7059 H       1  LIG1        0.1424
     24 C          -4.4845   -3.7375   -0.4172 C.ar    1  LIG1        0.0799
     25 C          -5.4828   -4.5010    0.1696 C.ar    1  LIG1        0.0522
     26 C          -5.5134   -5.7696   -0.4889 C.ar    1  LIG1        0.0561
     27 C          -4.5291   -5.7504   -1.4447 C.ar    1  LIG1        0.0241
     28 N          -3.9072   -4.5180   -1.3817 N.ar    1  LIG1       -0.3570
     29 H          -3.2712   -4.1611   -2.0752 H       1  LIG1        0.1655
     30 H          -4.2056   -6.5115   -2.1372 H       1  LIG1        0.0826
     31 S          -6.5413   -4.0216    1.4979 S.3     1  LIG1       -0.1388
     32 H          -5.9906   -4.7804    2.4659 H       1  LIG1        0.1072
     33 N          -6.3428   -6.8290   -0.1175 N.pl3   1  LIG1       -0.3560
     34 H          -7.1939   -6.5015    0.3237 H       1  LIG1        0.1424
     35 H          -6.5533   -7.4654   -0.8738 H       1  LIG1        0.1424
@<TRIPOS>BOND
     1    30    27    1
     2    29    28    1
     3    11    10    1
     4    12    10    1
     5    27    28   ar
     6    27    26   ar
     7    28    24   ar
     8    10     3    1
     9    35    33    1
    10    22    21    1
    11    23    21    1
    12    26    33    1
    13    26    25   ar
    14    24    16    1
    15    24    25   ar
    16     3     2   ar
    17     3     4   ar
    18    21    15    1
    19     8     9    1
    20     8     2    1
    21    16    15   ar
    22    16    17   ar
    23    15    14   ar
    24    33    34    1
    25    17    18    1
    26    17    13   ar
    27    14    19    1
    28    14    13   ar
    29    19    20    1
    30    13     4    1
    31    25    31    1
    32     2     1   ar
    33     4     5   ar
    34     1     5   ar
    35     1     7    1
    36     5     6    1
    37    31    32    1
