@<TRIPOS>MOLECULE
mol_data/opt/cam/geoms/mol2/13gh13gh-13gh13gh-.out
 46 49 0 0 0
SMALL
GASTEIGER

@<TRIPOS>ATOM
      1 C           0.5093    0.0811    1.9368 C.ar    1  LIG1        0.0173
      2 C           0.7338    0.9064    0.8630 C.ar    1  LIG1        0.0434
      3 C          -0.3990    0.8124   -0.0071 C.ar    1  LIG1        0.0650
      4 C          -1.2835   -0.0785    0.5736 C.ar    1  LIG1        0.0860
      5 N          -0.6894   -0.5319    1.7545 N.ar    1  LIG1       -0.3570
      6 H          -1.2065   -0.9900    2.4877 H       1  LIG1        0.1655
      7 H           1.1205   -0.0981    2.8078 H       1  LIG1        0.0819
      8 S           2.2162    1.8060    0.5364 S.3     1  LIG1       -0.1394
      9 H           1.7424    3.0494    0.7476 H       1  LIG1        0.1072
     10 N          -0.5239    1.5334   -1.1799 N.pl3   1  LIG1       -0.3554
     11 H           0.3394    1.6365   -1.6953 H       1  LIG1        0.1424
     12 H          -1.3220    1.3028   -1.7514 H       1  LIG1        0.1424
     13 C          -2.5277   -0.6790    0.1307 C.ar    1  LIG1        0.0804
     14 C          -3.6723   -0.1802   -0.4839 C.ar    1  LIG1        0.0529
     15 C          -4.6075   -1.2511   -0.6113 C.ar    1  LIG1        0.0657
     16 C          -4.0233   -2.3792   -0.0737 C.ar    1  LIG1        0.0865
     17 N          -2.7590   -2.0030    0.3687 N.ar    1  LIG1       -0.3494
     18 H          -2.0910   -2.6245    0.7936 H       1  LIG1        0.1661
     19 S          -3.9597    1.4536   -1.0798 S.3     1  LIG1       -0.1388
     20 H          -4.3878    2.0403    0.0549 H       1  LIG1        0.1072
     21 N          -5.8863   -1.1391   -1.1345 N.pl3   1  LIG1       -0.3554
     22 H          -6.0044   -0.3446   -1.7481 H       1  LIG1        0.1424
     23 H          -6.2641   -1.9940   -1.5176 H       1  LIG1        0.1424
     24 C          -4.5086   -3.7415    0.0191 C.ar    1  LIG1        0.0804
     25 C          -5.6962   -4.2568    0.5027 C.ar    1  LIG1        0.0529
     26 C          -5.6570   -5.6753    0.3672 C.ar    1  LIG1        0.0657
     27 C          -4.4335   -6.0041   -0.1900 C.ar    1  LIG1        0.0865
     28 N          -3.7575   -4.8134   -0.4027 N.ar    1  LIG1       -0.3494
     29 H          -2.8188   -4.7483   -0.7597 H       1  LIG1        0.1661
     30 S          -7.0393   -3.3523    1.2067 S.3     1  LIG1       -0.1388
     31 H          -7.3911   -4.3467    2.0446 H       1  LIG1        0.1072
     32 N          -6.6875   -6.5087    0.8106 N.pl3   1  LIG1       -0.3554
     33 H          -7.5691   -6.3382    0.3414 H       1  LIG1        0.1424
     34 H          -6.4438   -7.4899    0.8092 H       1  LIG1        0.1424
     35 C          -3.8494   -7.2514   -0.6507 C.ar    1  LIG1        0.0799
     36 C          -3.7966   -8.5385   -0.1321 C.ar    1  LIG1        0.0522
     37 C          -3.0409   -9.3508   -1.0370 C.ar    1  LIG1        0.0561
     38 C          -2.6538   -8.5428   -2.0745 C.ar    1  LIG1        0.0241
     39 N          -3.1332   -7.2711   -1.8161 N.ar    1  LIG1       -0.3570
     40 H          -3.1717   -6.5295   -2.4957 H       1  LIG1        0.1655
     41 H          -2.0591   -8.7545   -2.9488 H       1  LIG1        0.0826
     42 S          -4.5366   -9.1421    1.3499 S.3     1  LIG1       -0.1388
     43 H          -3.5847   -8.8061    2.2424 H       1  LIG1        0.1072
     44 N          -2.7080  -10.6866   -0.8166 N.pl3   1  LIG1       -0.3560
     45 H          -3.3232  -11.1279   -0.1450 H       1  LIG1        0.1424
     46 H          -2.6358  -11.2372   -1.6605 H       1  LIG1        0.1424
@<TRIPOS>BOND
     1    41    38    1
     2    40    39    1
     3    38    39   ar
     4    38    37   ar
     5    39    35   ar
     6    12    10    1
     7    22    21    1
     8    11    10    1
     9    46    44    1
    10    23    21    1
    11    10     3    1
    12    21    15    1
    13    19    14    1
    14    19    20    1
    15    37    44    1
    16    37    36   ar
    17    44    45    1
    18    29    28    1
    19    35    27    1
    20    35    36   ar
    21    15    14   ar
    22    15    16   ar
    23    14    13   ar
    24    28    27   ar
    25    28    24   ar
    26    27    26   ar
    27    36    42    1
    28    16    24    1
    29    16    17   ar
    30     3     4   ar
    31     3     2   ar
    32    24    25   ar
    33    13    17   ar
    34    13     4    1
    35    33    32    1
    36    26    25   ar
    37    26    32    1
    38    17    18    1
    39    25    30    1
    40     8     9    1
    41     8     2    1
    42     4     5   ar
    43    34    32    1
    44     2     1   ar
    45    30    31    1
    46    42    43    1
    47     5     1   ar
    48     5     6    1
    49     1     7    1
