@<TRIPOS>MOLECULE
mol_data/opt/cam/geoms/mol2/13gh13gh13gh13gh.out
 46 49 0 0 0
SMALL
GASTEIGER

@<TRIPOS>ATOM
      1 C           0.4985    0.0779    1.9343 C.ar    1  LIG1        0.0173
      2 C           0.7333    0.9015    0.8613 C.ar    1  LIG1        0.0434
      3 C          -0.3924    0.8082   -0.0181 C.ar    1  LIG1        0.0650
      4 C          -1.2831   -0.0805    0.5565 C.ar    1  LIG1        0.0860
      5 N          -0.6996   -0.5333    1.7428 N.ar    1  LIG1       -0.3570
      6 H          -1.2236   -0.9896    2.4724 H       1  LIG1        0.1655
      7 H           1.1022   -0.1011    2.8105 H       1  LIG1        0.0819
      8 S           2.2199    1.7981    0.5458 S.3     1  LIG1       -0.1394
      9 H           1.7465    3.0425    0.7515 H       1  LIG1        0.1072
     10 N          -0.5064    1.5278   -1.1928 N.pl3   1  LIG1       -0.3554
     11 H           0.3614    1.6287   -1.7011 H       1  LIG1        0.1424
     12 H          -1.3001    1.2978   -1.7706 H       1  LIG1        0.1424
     13 C          -2.5247   -0.6795    0.1041 C.ar    1  LIG1        0.0804
     14 C          -3.6633   -0.1796   -0.5206 C.ar    1  LIG1        0.0529
     15 C          -4.5992   -1.2491   -0.6544 C.ar    1  LIG1        0.0657
     16 C          -4.0214   -2.3775   -0.1104 C.ar    1  LIG1        0.0865
     17 N          -2.7602   -2.0028    0.3419 N.ar    1  LIG1       -0.3494
     18 H          -2.0968   -2.6249    0.7732 H       1  LIG1        0.1661
     19 S          -3.9430    1.4539   -1.1211 S.3     1  LIG1       -0.1388
     20 H          -4.3795    2.0428    0.0092 H       1  LIG1        0.1072
     21 N          -5.8735   -1.1357   -1.1883 N.pl3   1  LIG1       -0.3554
     22 H          -5.9851   -0.3419   -1.8039 H       1  LIG1        0.1424
     23 H          -6.2496   -1.9904   -1.5732 H       1  LIG1        0.1424
     24 C          -4.5097   -3.7388   -0.0198 C.ar    1  LIG1        0.0804
     25 C          -5.7022   -4.2515    0.4546 C.ar    1  LIG1        0.0529
     26 C          -5.6643   -5.6702    0.3213 C.ar    1  LIG1        0.0657
     27 C          -4.4367   -6.0018   -0.2253 C.ar    1  LIG1        0.0865
     28 N          -3.7570   -4.8125   -0.4340 N.ar    1  LIG1       -0.3494
     29 H          -2.8152   -4.7495   -0.7833 H       1  LIG1        0.1661
     30 S          -7.0495   -3.3438    1.1463 S.3     1  LIG1       -0.1388
     31 H          -7.4099   -4.3365    1.9825 H       1  LIG1        0.1072
     32 N          -6.6998   -6.5013    0.7573 N.pl3   1  LIG1       -0.3554
     33 H          -7.5771   -6.3300    0.2805 H       1  LIG1        0.1424
     34 H          -6.4578   -7.4829    0.7592 H       1  LIG1        0.1424
     35 C          -3.8510   -7.2507   -0.6795 C.ar    1  LIG1        0.0799
     36 C          -3.8046   -8.5372   -0.1588 C.ar    1  LIG1        0.0522
     37 C          -3.0428   -9.3520   -1.0563 C.ar    1  LIG1        0.0561
     38 C          -2.6458   -8.5461   -2.0917 C.ar    1  LIG1        0.0241
     39 N          -3.1252   -7.2732   -1.8388 N.ar    1  LIG1       -0.3570
     40 H          -3.1568   -6.5324   -2.5197 H       1  LIG1        0.1655
     41 H          -2.0443   -8.7600   -2.9607 H       1  LIG1        0.0826
     42 S          -4.5579   -9.1376    1.3178 S.3     1  LIG1       -0.1388
     43 H          -3.6129   -8.8021    2.2177 H       1  LIG1        0.1072
     44 N          -2.7140  -10.6880   -0.8314 N.pl3   1  LIG1       -0.3560
     45 H          -3.3355  -11.1275   -0.1643 H       1  LIG1        0.1424
     46 H          -2.6357  -11.2399   -1.6739 H       1  LIG1        0.1424
@<TRIPOS>BOND
     1    41    38    1
     2    40    39    1
     3    38    39   ar
     4    38    37   ar
     5    39    35   ar
     6    22    21    1
     7    12    10    1
     8    11    10    1
     9    46    44    1
    10    23    21    1
    11    10     3    1
    12    21    15    1
    13    19    14    1
    14    19    20    1
    15    37    44    1
    16    37    36   ar
    17    44    45    1
    18    29    28    1
    19    35    27    1
    20    35    36   ar
    21    15    14   ar
    22    15    16   ar
    23    14    13   ar
    24    28    27   ar
    25    28    24   ar
    26    27    26   ar
    27    36    42    1
    28    16    24    1
    29    16    17   ar
    30    24    25   ar
    31     3     4   ar
    32     3     2   ar
    33    13    17   ar
    34    13     4    1
    35    33    32    1
    36    26    25   ar
    37    26    32    1
    38    17    18    1
    39    25    30    1
    40     8     9    1
    41     8     2    1
    42     4     5   ar
    43    32    34    1
    44     2     1   ar
    45    30    31    1
    46    42    43    1
    47     5     1   ar
    48     5     6    1
    49     1     7    1
