@<TRIPOS>MOLECULE
mol_data/opt/cam/geoms/mol2/13gh13gh-13gh-13gh-.out
 46 49 0 0 0
SMALL
GASTEIGER

@<TRIPOS>ATOM
      1 C           0.5409    0.0717    1.8849 C.ar    1  LIG1        0.0173
      2 C           0.7550    0.8969    0.8089 C.ar    1  LIG1        0.0434
      3 C          -0.3881    0.8059   -0.0482 C.ar    1  LIG1        0.0650
      4 C          -1.2679   -0.0832    0.5425 C.ar    1  LIG1        0.0860
      5 N          -0.6613   -0.5383    1.7162 N.ar    1  LIG1       -0.3570
      6 H          -1.1710   -0.9955    2.4552 H       1  LIG1        0.1655
      7 H           1.1617   -0.1093    2.7487 H       1  LIG1        0.0819
      8 S           2.2357    1.7930    0.4654 S.3     1  LIG1       -0.1394
      9 H           1.7673    3.0374    0.6825 H       1  LIG1        0.1072
     10 N          -0.5248    1.5275   -1.2192 N.pl3   1  LIG1       -0.3554
     11 H           0.3328    1.6288   -1.7445 H       1  LIG1        0.1424
     12 H          -1.3299    1.2991   -1.7815 H       1  LIG1        0.1424
     13 C          -2.5186   -0.6805    0.1137 C.ar    1  LIG1        0.0804
     14 C          -3.6690   -0.1787   -0.4874 C.ar    1  LIG1        0.0529
     15 C          -4.6082   -1.2473   -0.6044 C.ar    1  LIG1        0.0657
     16 C          -4.0205   -2.3770   -0.0740 C.ar    1  LIG1        0.0865
     17 N          -2.7503   -2.0040    0.3539 N.ar    1  LIG1       -0.3494
     18 H          -2.0789   -2.6273    0.7708 H       1  LIG1        0.1661
     19 S          -3.9594    1.4560   -1.0793 S.3     1  LIG1       -0.1388
     20 H          -4.3729    2.0433    0.0604 H       1  LIG1        0.1072
     21 N          -5.8927   -1.1320   -1.1127 N.pl3   1  LIG1       -0.3554
     22 H          -6.0159   -0.3371   -1.7246 H       1  LIG1        0.1424
     23 H          -6.2770   -1.9858   -1.4917 H       1  LIG1        0.1424
     24 C          -4.5079   -3.7382    0.0240 C.ar    1  LIG1        0.0804
     25 C          -5.6911   -4.2508    0.5210 C.ar    1  LIG1        0.0529
     26 C          -5.6569   -5.6693    0.3846 C.ar    1  LIG1        0.0657
     27 C          -4.4407   -6.0009   -0.1869 C.ar    1  LIG1        0.0865
     28 N          -3.7644   -4.8117   -0.4069 N.ar    1  LIG1       -0.3494
     29 H          -2.8297   -4.7488   -0.7748 H       1  LIG1        0.1661
     30 S          -7.0238   -3.3434    1.2409 S.3     1  LIG1       -0.1388
     31 H          -7.3683   -4.3373    2.0824 H       1  LIG1        0.1072
     32 N          -6.6842   -6.5005    0.8395 N.pl3   1  LIG1       -0.3554
     33 H          -7.5707   -6.3277    0.3806 H       1  LIG1        0.1424
     34 H          -6.4429   -7.4822    0.8349 H       1  LIG1        0.1424
     35 C          -3.8650   -7.2494   -0.6548 C.ar    1  LIG1        0.0799
     36 C          -3.8092   -8.5368   -0.1373 C.ar    1  LIG1        0.0522
     37 C          -3.0660   -9.3506   -1.0512 C.ar    1  LIG1        0.0561
     38 C          -2.6890   -8.5431   -2.0928 C.ar    1  LIG1        0.0241
     39 N          -3.1624   -7.2703   -1.8283 N.ar    1  LIG1       -0.3570
     40 H          -3.2069   -6.5284   -2.5072 H       1  LIG1        0.1655
     41 H          -2.1050   -8.7559   -2.9740 H       1  LIG1        0.0826
     42 S          -4.5335   -9.1393    1.3529 S.3     1  LIG1       -0.1388
     43 H          -3.5706   -8.8059    2.2345 H       1  LIG1        0.1072
     44 N          -2.7338  -10.6872   -0.8351 N.pl3   1  LIG1       -0.3560
     45 H          -3.3422  -11.1274   -0.1566 H       1  LIG1        0.1424
     46 H          -2.6727  -11.2377   -1.6800 H       1  LIG1        0.1424
@<TRIPOS>BOND
     1    41    38    1
     2    40    39    1
     3    38    39   ar
     4    38    37   ar
     5    39    35   ar
     6    12    10    1
     7    11    10    1
     8    22    21    1
     9    46    44    1
    10    23    21    1
    11    10     3    1
    12    21    15    1
    13    19    14    1
    14    19    20    1
    15    37    44    1
    16    37    36   ar
    17    44    45    1
    18    29    28    1
    19    35    27    1
    20    35    36   ar
    21    15    14   ar
    22    15    16   ar
    23    14    13   ar
    24    28    27   ar
    25    28    24   ar
    26    27    26   ar
    27    36    42    1
    28    16    24    1
    29    16    17   ar
    30     3     4   ar
    31     3     2   ar
    32    24    25   ar
    33    13    17   ar
    34    13     4    1
    35    17    18    1
    36    33    32    1
    37    26    25   ar
    38    26    32    1
    39     8     9    1
    40     8     2    1
    41    25    30    1
    42     4     5   ar
    43     2     1   ar
    44    34    32    1
    45    30    31    1
    46    42    43    1
    47     5     1   ar
    48     5     6    1
    49     1     7    1
