@<TRIPOS>MOLECULE
mol_data/opt/cam/geoms/mol2/13gh13gh-13gh-13gh.out
 46 49 0 0 0
SMALL
GASTEIGER

@<TRIPOS>ATOM
      1 C           0.5093    0.0967    1.8984 C.ar    1  LIG1        0.0173
      2 C           0.7339    0.9136    0.8181 C.ar    1  LIG1        0.0434
      3 C          -0.3990    0.8127   -0.0512 C.ar    1  LIG1        0.0650
      4 C          -1.2835   -0.0736    0.5366 C.ar    1  LIG1        0.0860
      5 N          -0.6894   -0.5176    1.7209 N.ar    1  LIG1       -0.3570
      6 H          -1.2065   -0.9699    2.4578 H       1  LIG1        0.1655
      7 H           1.1206   -0.0755    2.7708 H       1  LIG1        0.0819
      8 S           2.2163    1.8104    0.4843 S.3     1  LIG1       -0.1394
      9 H           1.7426    3.0554    0.6857 H       1  LIG1        0.1072
     10 N          -0.5239    1.5244   -1.2297 N.pl3   1  LIG1       -0.3554
     11 H           0.3394    1.6233   -1.7459 H       1  LIG1        0.1424
     12 H          -1.3220    1.2893   -1.7993 H       1  LIG1        0.1424
     13 C          -2.5278   -0.6775    0.0985 C.ar    1  LIG1        0.0804
     14 C          -3.6723   -0.1836   -0.5200 C.ar    1  LIG1        0.0529
     15 C          -4.6076   -1.2554   -0.6390 C.ar    1  LIG1        0.0657
     16 C          -4.0234   -2.3792   -0.0924 C.ar    1  LIG1        0.0865
     17 N          -2.7591   -1.9995    0.3470 N.ar    1  LIG1       -0.3494
     18 H          -2.0912   -2.6177    0.7768 H       1  LIG1        0.1661
     19 S          -3.9597    1.4455   -1.1290 S.3     1  LIG1       -0.1388
     20 H          -4.3876    2.0412    0.0009 H       1  LIG1        0.1072
     21 N          -5.8864   -1.1475   -1.1630 N.pl3   1  LIG1       -0.3554
     22 H          -6.0044   -0.3580   -1.7829 H       1  LIG1        0.1424
     23 H          -6.2643   -2.0054   -1.5391 H       1  LIG1        0.1424
     24 C          -4.5088   -3.7407    0.0113 C.ar    1  LIG1        0.0804
     25 C          -5.6964   -4.2520    0.4990 C.ar    1  LIG1        0.0529
     26 C          -5.6573   -5.6716    0.3748 C.ar    1  LIG1        0.0657
     27 C          -4.4338   -6.0049   -0.1798 C.ar    1  LIG1        0.0865
     28 N          -3.7578   -4.8159   -0.4020 N.ar    1  LIG1       -0.3494
     29 H          -2.8190   -4.7538   -0.7595 H       1  LIG1        0.1661
     30 S          -7.0394   -3.3419    1.1959 S.3     1  LIG1       -0.1388
     31 H          -7.3913   -4.3296    2.0415 H       1  LIG1        0.1072
     32 N          -6.6878   -6.5014    0.8248 N.pl3   1  LIG1       -0.3554
     33 H          -7.5694   -6.3347    0.3542 H       1  LIG1        0.1424
     34 H          -6.4442   -7.4825    0.8313 H       1  LIG1        0.1424
     35 C          -3.8498   -7.2558   -0.6306 C.ar    1  LIG1        0.0799
     36 C          -3.7970   -8.5388   -0.1017 C.ar    1  LIG1        0.0522
     37 C          -3.0413   -9.3583   -1.0001 C.ar    1  LIG1        0.0561
     38 C          -2.6542   -8.5586   -2.0441 C.ar    1  LIG1        0.0241
     39 N          -3.1336   -7.2849   -1.7957 N.ar    1  LIG1       -0.3570
     40 H          -3.1721   -6.5487   -2.4812 H       1  LIG1        0.1655
     41 H          -2.0596   -8.7773   -2.9166 H       1  LIG1        0.0826
     42 S          -4.5370   -9.1306    1.3850 S.3     1  LIG1       -0.1388
     43 H          -3.5851   -8.7875    2.2748 H       1  LIG1        0.1072
     44 N          -2.7085  -10.6923   -0.7691 N.pl3   1  LIG1       -0.3560
     45 H          -3.3237  -11.1283   -0.0940 H       1  LIG1        0.1424
     46 H          -2.6363  -11.2496   -1.6086 H       1  LIG1        0.1424
@<TRIPOS>BOND
     1    41    38    1
     2    40    39    1
     3    38    39   ar
     4    38    37   ar
     5    12    10    1
     6    39    35   ar
     7    22    21    1
     8    11    10    1
     9    46    44    1
    10    23    21    1
    11    10     3    1
    12    21    15    1
    13    19    14    1
    14    19    20    1
    15    37    44    1
    16    37    36   ar
    17    44    45    1
    18    29    28    1
    19    15    14   ar
    20    15    16   ar
    21    35    27    1
    22    35    36   ar
    23    14    13   ar
    24    28    27   ar
    25    28    24   ar
    26    27    26   ar
    27    36    42    1
    28    16    24    1
    29    16    17   ar
    30     3     4   ar
    31     3     2   ar
    32    24    25   ar
    33    13    17   ar
    34    13     4    1
    35    17    18    1
    36    33    32    1
    37    26    25   ar
    38    26    32    1
    39     8     9    1
    40     8     2    1
    41    25    30    1
    42     4     5   ar
    43     2     1   ar
    44    32    34    1
    45    30    31    1
    46    42    43    1
    47     5     1   ar
    48     5     6    1
    49     1     7    1
