@<TRIPOS>MOLECULE
mol_data/opt/cam/geoms/mol2/13gh13gh13gh.out
 35 37 0 0 0
SMALL
GASTEIGER

@<TRIPOS>ATOM
      1 C           0.8585   -0.2326    1.1401 C.ar    1  LIG1        0.0173
      2 C           0.7977    0.8590    0.3098 C.ar    1  LIG1        0.0434
      3 C          -0.5230    0.9201   -0.2394 C.ar    1  LIG1        0.0650
      4 C          -1.2281   -0.1505    0.2808 C.ar    1  LIG1        0.0860
      5 N          -0.3483   -0.8556    1.1058 N.ar    1  LIG1       -0.3570
      6 H          -0.6572   -1.5287    1.7886 H       1  LIG1        0.1655
      7 H           1.6750   -0.5924    1.7468 H       1  LIG1        0.0819
      8 S           2.1456    1.9132   -0.1204 S.3     1  LIG1       -0.1394
      9 H           1.7406    3.0232    0.5266 H       1  LIG1        0.1072
     10 N          -0.9459    1.9151   -1.1010 N.pl3   1  LIG1       -0.3554
     11 H          -0.2480    2.2037   -1.7727 H       1  LIG1        0.1424
     12 H          -1.8688    1.7943   -1.4886 H       1  LIG1        0.1424
     13 C          -2.5466   -0.6987    0.0221 C.ar    1  LIG1        0.0804
     14 C          -3.8096   -0.1372   -0.1406 C.ar    1  LIG1        0.0529
     15 C          -4.7480   -1.2005   -0.3081 C.ar    1  LIG1        0.0657
     16 C          -4.0468   -2.3863   -0.2413 C.ar    1  LIG1        0.0865
     17 N          -2.7116   -2.0514   -0.0381 N.ar    1  LIG1       -0.3494
     18 H          -1.9568   -2.7166   -0.0058 H       1  LIG1        0.1661
     19 S          -4.2380    1.5714   -0.2007 S.3     1  LIG1       -0.1388
     20 H          -4.3864    1.8187    1.1152 H       1  LIG1        0.1072
     21 N          -6.1161   -1.0383   -0.4581 N.pl3   1  LIG1       -0.3554
     22 H          -6.3767   -0.1395   -0.8400 H       1  LIG1        0.1424
     23 H          -6.5825   -1.8102   -0.9129 H       1  LIG1        0.1424
     24 C          -4.4782   -3.7625   -0.4091 C.ar    1  LIG1        0.0799
     25 C          -5.4676   -4.5034    0.2182 C.ar    1  LIG1        0.0522
     26 C          -5.4928   -5.8018   -0.3785 C.ar    1  LIG1        0.0561
     27 C          -4.5118   -5.8231   -1.3377 C.ar    1  LIG1        0.0241
     28 N          -3.8977   -4.5854   -1.3376 N.ar    1  LIG1       -0.3570
     29 H          -3.2733   -4.2566   -2.0552 H       1  LIG1        0.1655
     30 H          -4.1857   -6.6156   -1.9929 H       1  LIG1        0.0826
     31 S          -6.5205   -3.9640    1.5283 S.3     1  LIG1       -0.1388
     32 H          -6.0407   -4.7763    2.4908 H       1  LIG1        0.1072
     33 N          -6.3143   -6.8466    0.0504 N.pl3   1  LIG1       -0.3560
     34 H          -7.1821   -6.5023    0.4442 H       1  LIG1        0.1424
     35 H          -6.4975   -7.5372   -0.6645 H       1  LIG1        0.1424
@<TRIPOS>BOND
     1    29    28    1
     2    30    27    1
     3    11    10    1
     4    12    10    1
     5    27    28   ar
     6    27    26   ar
     7    28    24   ar
     8    10     3    1
     9    23    21    1
    10    22    21    1
    11    35    33    1
    12    21    15    1
    13    24    16    1
    14    24    25   ar
    15    26    33    1
    16    26    25   ar
    17    15    16   ar
    18    15    14   ar
    19    16    17   ar
    20     3     4   ar
    21     3     2   ar
    22    19    14    1
    23    19    20    1
    24    14    13   ar
    25     8     2    1
    26     8     9    1
    27    17    18    1
    28    17    13   ar
    29    13     4    1
    30    33    34    1
    31    25    31    1
    32     4     5   ar
    33     2     1   ar
    34     5     1   ar
    35     5     6    1
    36     1     7    1
    37    31    32    1
