@<TRIPOS>MOLECULE
mol_data/opt/cam/geoms/mol2/13gh13gh-.out
 24 25 0 0 0
SMALL
GASTEIGER

@<TRIPOS>ATOM
      1 C           1.0541   -0.2644    0.4045 C.ar    1  LIG1        0.0173
      2 C           0.7509    0.9519   -0.1570 C.ar    1  LIG1        0.0434
      3 C          -0.6583    0.9819   -0.4042 C.ar    1  LIG1        0.0650
      4 C          -1.1705   -0.2305    0.0209 C.ar    1  LIG1        0.0860
      5 N          -0.0940   -0.9843    0.4917 N.ar    1  LIG1       -0.3570
      6 H          -0.2072   -1.8154    1.0488 H       1  LIG1        0.1655
      7 H           2.0031   -0.6495    0.7441 H       1  LIG1        0.0819
      8 S           1.9103    2.1960   -0.6274 S.3     1  LIG1       -0.1394
      9 H           1.5966    3.1196    0.3018 H       1  LIG1        0.1072
     10 N          -1.3189    2.0718   -0.9434 N.pl3   1  LIG1       -0.3554
     11 H          -0.7991    2.5457   -1.6697 H       1  LIG1        0.1424
     12 H          -2.2895    1.9187   -1.1709 H       1  LIG1        0.1424
     13 C          -2.4828   -0.8445   -0.0648 C.ar    1  LIG1        0.0799
     14 C          -3.7766   -0.3850    0.1457 C.ar    1  LIG1        0.0522
     15 C          -4.6748   -1.4801   -0.0674 C.ar    1  LIG1        0.0561
     16 C          -3.9112   -2.5696   -0.3964 C.ar    1  LIG1        0.0241
     17 N          -2.5855   -2.1736   -0.3715 N.ar    1  LIG1       -0.3570
     18 H          -1.8228   -2.7054   -0.7569 H       1  LIG1        0.1655
     19 H          -4.1919   -3.5886   -0.6103 H       1  LIG1        0.0826
     20 S          -4.2953    1.2458    0.5700 S.3     1  LIG1       -0.1388
     21 H          -4.1268    1.2030    1.9060 H       1  LIG1        0.1072
     22 N          -6.0554   -1.4246    0.1256 N.pl3   1  LIG1       -0.3560
     23 H          -6.4002   -0.4729    0.1205 H       1  LIG1        0.1424
     24 H          -6.5822   -2.0043   -0.5125 H       1  LIG1        0.1424
@<TRIPOS>BOND
     1    11    10    1
     2    12    10    1
     3    10     3    1
     4    18    17    1
     5     8     2    1
     6     8     9    1
     7    19    16    1
     8    24    22    1
     9     3     2   ar
    10     3     4   ar
    11    16    17   ar
    12    16    15   ar
    13    17    13   ar
    14     2     1   ar
    15    15    22    1
    16    15    14   ar
    17    13     4    1
    18    13    14   ar
    19     4     5   ar
    20    23    22    1
    21    14    20    1
    22     1     5   ar
    23     1     7    1
    24     5     6    1
    25    20    21    1
