@<TRIPOS>MOLECULE
mol_data/opt/cam/geoms/mol2/13gh13gh.out
 24 25 0 0 0
SMALL
GASTEIGER

@<TRIPOS>ATOM
      1 C           1.0358   -0.2700    0.5122 C.ar    1  LIG1        0.0173
      2 C           0.7464    0.9634   -0.0184 C.ar    1  LIG1        0.0434
      3 C          -0.6537    0.9969   -0.3123 C.ar    1  LIG1        0.0650
      4 C          -1.1747   -0.2307    0.0547 C.ar    1  LIG1        0.0860
      5 N          -0.1114   -0.9962    0.5364 N.ar    1  LIG1       -0.3570
      6 H          -0.2397   -1.8458    1.0614 H       1  LIG1        0.1655
      7 H           1.9745   -0.6631    0.8709 H       1  LIG1        0.0819
      8 S           1.9155    2.2263   -0.4075 S.3     1  LIG1       -0.1394
      9 H           1.5664    3.1173    0.5406 H       1  LIG1        0.1072
     10 N          -1.3006    2.1020   -0.8371 N.pl3   1  LIG1       -0.3554
     11 H          -0.7586    2.6016   -1.5291 H       1  LIG1        0.1424
     12 H          -2.2622    1.9533   -1.1024 H       1  LIG1        0.1424
     13 C          -2.4806   -0.8459   -0.0960 C.ar    1  LIG1        0.0799
     14 C          -3.7828   -0.3980    0.0856 C.ar    1  LIG1        0.0522
     15 C          -4.6684   -1.4884   -0.1942 C.ar    1  LIG1        0.0561
     16 C          -3.8892   -2.5637   -0.5331 C.ar    1  LIG1        0.0241
     17 N          -2.5669   -2.1644   -0.4500 N.ar    1  LIG1       -0.3570
     18 H          -1.7892   -2.6805   -0.8267 H       1  LIG1        0.1655
     19 H          -4.1580   -3.5759   -0.7902 H       1  LIG1        0.0826
     20 S          -4.3228    1.2160    0.5459 S.3     1  LIG1       -0.1388
     21 H          -4.1995    1.1292    1.8848 H       1  LIG1        0.1072
     22 N          -6.0550   -1.4439   -0.0465 N.pl3   1  LIG1       -0.3560
     23 H          -6.4036   -0.4938   -0.0317 H       1  LIG1        0.1424
     24 H          -6.5573   -2.0038   -0.7210 H       1  LIG1        0.1424
@<TRIPOS>BOND
     1    11    10    1
     2    12    10    1
     3    10     3    1
     4    18    17    1
     5    19    16    1
     6    24    22    1
     7    16    17   ar
     8    16    15   ar
     9    17    13   ar
    10     8     2    1
    11     8     9    1
    12     3     2   ar
    13     3     4   ar
    14    15    22    1
    15    15    14   ar
    16    13     4    1
    17    13    14   ar
    18    22    23    1
    19     2     1   ar
    20     4     5   ar
    21    14    20    1
    22     1     5   ar
    23     1     7    1
    24     5     6    1
    25    20    21    1
