@<TRIPOS>MOLECULE
mol_data/opt/cam/geoms/mol2/13gh13gh13gh13gh-.out
 46 49 0 0 0
SMALL
GASTEIGER

@<TRIPOS>ATOM
      1 C           0.4819    0.1004    1.9225 C.ar    1  LIG1        0.0173
      2 C           0.7188    0.9174    0.8450 C.ar    1  LIG1        0.0434
      3 C          -0.4034    0.8156   -0.0380 C.ar    1  LIG1        0.0650
      4 C          -1.2941   -0.0715    0.5391 C.ar    1  LIG1        0.0860
      5 N          -0.7140   -0.5150    1.7305 N.ar    1  LIG1       -0.3570
      6 H          -1.2396   -0.9677    2.4611 H       1  LIG1        0.1655
      7 H           1.0827   -0.0714    2.8022 H       1  LIG1        0.0819
      8 S           2.2044    1.8156    0.5292 S.3     1  LIG1       -0.1394
      9 H           1.7272    3.0602    0.7248 H       1  LIG1        0.1072
     10 N          -0.5146    1.5271   -1.2178 N.pl3   1  LIG1       -0.3554
     11 H           0.3548    1.6268   -1.7236 H       1  LIG1        0.1424
     12 H          -1.3056    1.2914   -1.7971 H       1  LIG1        0.1424
     13 C          -2.5325   -0.6765    0.0859 C.ar    1  LIG1        0.0804
     14 C          -3.6699   -0.1835   -0.5463 C.ar    1  LIG1        0.0529
     15 C          -4.6027   -1.2561   -0.6766 C.ar    1  LIG1        0.0657
     16 C          -4.0243   -2.3795   -0.1230 C.ar    1  LIG1        0.0865
     17 N          -2.7657   -1.9987    0.3316 N.ar    1  LIG1       -0.3494
     18 H          -2.1025   -2.6163    0.7695 H       1  LIG1        0.1661
     19 S          -3.9513    1.4453   -1.1586 S.3     1  LIG1       -0.1388
     20 H          -4.3935    2.0406   -0.0339 H       1  LIG1        0.1072
     21 N          -5.8752   -1.1493   -1.2161 N.pl3   1  LIG1       -0.3554
     22 H          -5.9864   -0.3599   -1.8373 H       1  LIG1        0.1424
     23 H          -6.2478   -2.0075   -1.5968 H       1  LIG1        0.1424
     24 C          -4.5096   -3.7413   -0.0253 C.ar    1  LIG1        0.0804
     25 C          -5.7026   -4.2538    0.4480 C.ar    1  LIG1        0.0529
     26 C          -5.6608   -5.6733    0.3242 C.ar    1  LIG1        0.0657
     27 C          -4.4304   -6.0055   -0.2156 C.ar    1  LIG1        0.0865
     28 N          -3.7528   -4.8160   -0.4295 N.ar    1  LIG1       -0.3494
     29 H          -2.8098   -4.7529   -0.7757 H       1  LIG1        0.1661
     30 S          -7.0548   -3.3449    1.1286 S.3     1  LIG1       -0.1388
     31 H          -7.4159   -4.3329    1.9700 H       1  LIG1        0.1072
     32 N          -6.6960   -6.5040    0.7617 N.pl3   1  LIG1       -0.3554
     33 H          -7.5719   -6.3380    0.2806 H       1  LIG1        0.1424
     34 H          -6.4516   -7.4849    0.7710 H       1  LIG1        0.1424
     35 C          -3.8399   -7.2559   -0.6593 C.ar    1  LIG1        0.0799
     36 C          -3.7924   -8.5388   -0.1299 C.ar    1  LIG1        0.0522
     37 C          -3.0252   -9.3576   -1.0192 C.ar    1  LIG1        0.0561
     38 C          -2.6262   -8.5576   -2.0583 C.ar    1  LIG1        0.0241
     39 N          -3.1097   -7.2843   -1.8157 N.ar    1  LIG1       -0.3570
     40 H          -3.1405   -6.5481   -2.5016 H       1  LIG1        0.1655
     41 H          -2.0209   -8.7757   -2.9236 H       1  LIG1        0.0826
     42 S          -4.5498   -9.1313    1.3478 S.3     1  LIG1       -0.1388
     43 H          -3.6091   -8.7875    2.2490 H       1  LIG1        0.1072
     44 N          -2.6941  -10.6914   -0.7842 N.pl3   1  LIG1       -0.3560
     45 H          -3.3170  -11.1279   -0.1166 H       1  LIG1        0.1424
     46 H          -2.6112  -11.2486   -1.6227 H       1  LIG1        0.1424
@<TRIPOS>BOND
     1    41    38    1
     2    40    39    1
     3    38    39   ar
     4    38    37   ar
     5    22    21    1
     6    39    35   ar
     7    12    10    1
     8    11    10    1
     9    46    44    1
    10    23    21    1
    11    10     3    1
    12    21    15    1
    13    19    14    1
    14    19    20    1
    15    37    44    1
    16    37    36   ar
    17    44    45    1
    18    29    28    1
    19    15    14   ar
    20    15    16   ar
    21    35    27    1
    22    35    36   ar
    23    14    13   ar
    24    28    27   ar
    25    28    24   ar
    26    27    26   ar
    27    36    42    1
    28    16    24    1
    29    16    17   ar
    30     3     4   ar
    31     3     2   ar
    32    24    25   ar
    33    13    17   ar
    34    13     4    1
    35    33    32    1
    36    26    25   ar
    37    26    32    1
    38    17    18    1
    39    25    30    1
    40     8     9    1
    41     8     2    1
    42     4     5   ar
    43    32    34    1
    44     2     1   ar
    45    30    31    1
    46    42    43    1
    47     5     1   ar
    48     5     6    1
    49     1     7    1
