@<TRIPOS>MOLECULE
mol_data/opt/cam/geoms/mol2/13gh13gh-13gh-.out
 35 37 0 0 0
SMALL
GASTEIGER

@<TRIPOS>ATOM
      1 C           0.8525    0.0003    1.3063 C.ar    1  LIG1        0.0173
      2 C           0.7994    0.9087    0.2741 C.ar    1  LIG1        0.0434
      3 C          -0.4926    0.8069   -0.3267 C.ar    1  LIG1        0.0650
      4 C          -1.1897   -0.1600    0.3691 C.ar    1  LIG1        0.0860
      5 N          -0.3336   -0.6566    1.3497 N.ar    1  LIG1       -0.3570
      6 H          -0.6365   -1.2523    2.1026 H       1  LIG1        0.1655
      7 H           1.6537   -0.2101    1.9976 H       1  LIG1        0.0819
      8 S           2.1328    1.9112   -0.3004 S.3     1  LIG1       -0.1394
      9 H           1.7101    3.1008    0.1703 H       1  LIG1        0.1072
     10 N          -0.9299    1.5736   -1.3977 N.pl3   1  LIG1       -0.3554
     11 H          -0.1823    1.8362   -2.0270 H       1  LIG1        0.1424
     12 H          -1.7242    1.1851   -1.8865 H       1  LIG1        0.1424
     13 C          -2.5097   -0.7266    0.1562 C.ar    1  LIG1        0.0804
     14 C          -3.7629   -0.1418    0.0406 C.ar    1  LIG1        0.0529
     15 C          -4.7175   -1.1798   -0.1704 C.ar    1  LIG1        0.0657
     16 C          -4.0328   -2.3787   -0.1615 C.ar    1  LIG1        0.0865
     17 N          -2.6904   -2.0748    0.0284 N.ar    1  LIG1       -0.3494
     18 H          -1.9484   -2.7545    0.0556 H       1  LIG1        0.1661
     19 S          -4.1367    1.5813    0.1206 S.3     1  LIG1       -0.1388
     20 H          -4.8666    1.5513    1.2527 H       1  LIG1        0.1072
     21 N          -6.0852   -0.9758   -0.2969 N.pl3   1  LIG1       -0.3554
     22 H          -6.3111   -0.1056   -0.7618 H       1  LIG1        0.1424
     23 H          -6.5820   -1.7613   -0.6937 H       1  LIG1        0.1424
     24 C          -4.4839   -3.7411   -0.3856 C.ar    1  LIG1        0.0799
     25 C          -5.4821   -4.4993    0.2082 C.ar    1  LIG1        0.0522
     26 C          -5.5122   -5.7741   -0.4383 C.ar    1  LIG1        0.0561
     27 C          -4.5276   -5.7637   -1.3939 C.ar    1  LIG1        0.0241
     28 N          -3.9060   -4.5306   -1.3424 N.ar    1  LIG1       -0.3570
     29 H          -3.2699   -4.1801   -2.0391 H       1  LIG1        0.1655
     30 H          -4.2037   -6.5312   -2.0791 H       1  LIG1        0.0826
     31 S          -6.5413   -4.0075    1.5315 S.3     1  LIG1       -0.1388
     32 H          -5.9906   -4.7570    2.5069 H       1  LIG1        0.1072
     33 N          -6.3415   -6.8301   -0.0571 N.pl3   1  LIG1       -0.3560
     34 H          -7.1928   -6.4987    0.3806 H       1  LIG1        0.1424
     35 H          -6.5516   -7.4737   -0.8074 H       1  LIG1        0.1424
@<TRIPOS>BOND
     1    30    27    1
     2    29    28    1
     3    11    10    1
     4    12    10    1
     5    10     3    1
     6    27    28   ar
     7    27    26   ar
     8    28    24   ar
     9    35    33    1
    10    22    21    1
    11    23    21    1
    12    26    33    1
    13    26    25   ar
    14    24    16    1
    15    24    25   ar
    16     3     2   ar
    17     3     4   ar
    18     8     9    1
    19     8     2    1
    20    21    15    1
    21    15    16   ar
    22    15    14   ar
    23    16    17   ar
    24    33    34    1
    25    17    18    1
    26    17    13   ar
    27    14    19    1
    28    14    13   ar
    29    19    20    1
    30    13     4    1
    31    25    31    1
    32     2     1   ar
    33     4     5   ar
    34     1     5   ar
    35     1     7    1
    36     5     6    1
    37    31    32    1
