@<TRIPOS>MOLECULE
mol_data/opt/cam/geoms/mol2/13gi13gi13gi13gi-.out
 50 53 0 0 0
SMALL
GASTEIGER

@<TRIPOS>ATOM
      1 C           0.2315    0.3303   -2.4671 C.ar    1  LIG1        0.0157
      2 C           0.6393    0.8923   -1.2817 C.ar    1  LIG1        0.0256
      3 C          -0.3569    0.6187   -0.2942 C.ar    1  LIG1       -0.0106
      4 C          -1.3494   -0.0962   -0.9286 C.ar    1  LIG1        0.0680
      5 N          -0.9640   -0.2821   -2.2447 N.ar    1  LIG1       -0.3583
      6 H          -1.5606   -0.6686   -2.9579 H       1  LIG1        0.1654
      7 H           0.7097    0.3253   -3.4343 H       1  LIG1        0.0818
      8 S           2.1988    1.6905   -1.0351 S.3     1  LIG1       -0.1409
      9 H           1.7593    2.9597   -0.9374 H       1  LIG1        0.1072
     10 C          -0.3081    1.0076    1.1466 C.3     1  LIG1       -0.0366
     11 H          -1.0087    0.4121    1.7360 H       1  LIG1        0.0279
     12 H          -0.5748    2.0595    1.2885 H       1  LIG1        0.0279
     13 H           0.6978    0.8668    1.5506 H       1  LIG1        0.0279
     14 C          -2.5900   -0.6770   -0.4337 C.ar    1  LIG1        0.0772
     15 C          -3.6807   -0.1341    0.2225 C.ar    1  LIG1        0.0351
     16 C          -4.6315   -1.1723    0.4552 C.ar    1  LIG1       -0.0099
     17 C          -4.1008   -2.3235   -0.0863 C.ar    1  LIG1        0.0685
     18 N          -2.8628   -2.0091   -0.6085 N.ar    1  LIG1       -0.3508
     19 H          -2.2436   -2.6635   -1.0593 H       1  LIG1        0.1660
     20 S          -3.8315    1.5550    0.7257 S.3     1  LIG1       -0.1403
     21 H          -4.8467    1.8989   -0.0890 H       1  LIG1        0.1072
     22 C          -5.9405   -1.0314    1.1593 C.3     1  LIG1       -0.0366
     23 H          -6.3251   -2.0063    1.4671 H       1  LIG1        0.0279
     24 H          -6.6975   -0.5705    0.5169 H       1  LIG1        0.0279
     25 H          -5.8353   -0.4004    2.0458 H       1  LIG1        0.0279
     26 C          -4.5982   -3.6919   -0.1232 C.ar    1  LIG1        0.0772
     27 C          -5.7665   -4.2462   -0.6149 C.ar    1  LIG1        0.0351
     28 C          -5.7255   -5.6556   -0.3984 C.ar    1  LIG1       -0.0099
     29 C          -4.5161   -5.9276    0.2050 C.ar    1  LIG1        0.0685
     30 N          -3.8522   -4.7303    0.3735 N.ar    1  LIG1       -0.3508
     31 H          -2.9527   -4.6295    0.8156 H       1  LIG1        0.1660
     32 S          -7.0979   -3.3338   -1.3384 S.3     1  LIG1       -0.1403
     33 H          -7.0436   -3.8793   -2.5679 H       1  LIG1        0.1072
     34 C          -6.7952   -6.6362   -0.7493 C.3     1  LIG1       -0.0366
     35 H          -6.6546   -7.5752   -0.2098 H       1  LIG1        0.0279
     36 H          -6.7939   -6.8717   -1.8185 H       1  LIG1        0.0279
     37 H          -7.7817   -6.2349   -0.5023 H       1  LIG1        0.0279
     38 C          -3.9354   -7.1736    0.6864 C.ar    1  LIG1        0.0768
     39 C          -3.6761   -8.3815    0.0655 C.ar    1  LIG1        0.0344
     40 C          -3.0921   -9.2642    1.0267 C.ar    1  LIG1       -0.0193
     41 C          -3.0032   -8.5568    2.1965 C.ar    1  LIG1        0.0062
     42 N          -3.5044   -7.2977    1.9855 N.ar    1  LIG1       -0.3584
     43 H          -3.6945   -6.6205    2.7062 H       1  LIG1        0.1654
     44 H          -2.6224   -8.8543    3.1621 H       1  LIG1        0.0810
     45 S          -4.0411   -8.7643   -1.6225 S.3     1  LIG1       -0.1403
     46 H          -2.7746   -8.8935   -2.0621 H       1  LIG1        0.1072
     47 C          -2.6463  -10.6704    0.7882 C.3     1  LIG1       -0.0372
     48 H          -2.3428  -11.1486    1.7223 H       1  LIG1        0.0278
     49 H          -1.7950  -10.7162    0.1009 H       1  LIG1        0.0278
     50 H          -3.4478  -11.2664    0.3431 H       1  LIG1        0.0278
@<TRIPOS>BOND
     1     7     1    1
     2     6     5    1
     3    33    32    1
     4     1     5   ar
     5     1     2   ar
     6     5     4   ar
     7    46    45    1
     8    36    34    1
     9    45    39    1
    10    32    27    1
    11     2     8    1
    12     2     3   ar
    13    19    18    1
    14     8     9    1
    15     4    14    1
    16     4     3   ar
    17    34    37    1
    18    34    28    1
    19    34    35    1
    20    27    28   ar
    21    27    26   ar
    22    18    14   ar
    23    18    17   ar
    24    14    15   ar
    25    28    29   ar
    26     3    10    1
    27    26    17    1
    28    26    30   ar
    29    21    20    1
    30    17    16   ar
    31    39    38   ar
    32    39    40   ar
    33    49    47    1
    34    29    30   ar
    35    29    38    1
    36    15    16   ar
    37    15    20    1
    38    50    47    1
    39    30    31    1
    40    16    22    1
    41    24    22    1
    42    38    42   ar
    43    47    40    1
    44    47    48    1
    45    40    41   ar
    46    10    12    1
    47    10    13    1
    48    10    11    1
    49    22    23    1
    50    22    25    1
    51    42    41   ar
    52    42    43    1
    53    41    44    1
