@<TRIPOS>MOLECULE
mol_data/opt/cam/geoms/mol2/13gi13gi13gi13gi.out
 50 53 0 0 0
SMALL
GASTEIGER

@<TRIPOS>ATOM
      1 C           0.2401    0.3386   -2.4394 C.ar    1  LIG1        0.0157
      2 C           0.6455    0.8950   -1.2505 C.ar    1  LIG1        0.0256
      3 C          -0.3533    0.6177   -0.2666 C.ar    1  LIG1       -0.0106
      4 C          -1.3447   -0.0936   -0.9065 C.ar    1  LIG1        0.0680
      5 N          -0.9563   -0.2739   -2.2226 N.ar    1  LIG1       -0.3583
      6 H          -1.5514   -0.6569   -2.9389 H       1  LIG1        0.1654
      7 H           0.7207    0.3375   -3.4054 H       1  LIG1        0.0818
      8 S           2.2049    1.6910   -0.9966 S.3     1  LIG1       -0.1409
      9 H           1.7661    2.9601   -0.8944 H       1  LIG1        0.1072
     10 C          -0.3077    1.0002    1.1760 C.3     1  LIG1       -0.0366
     11 H          -1.0102    0.4027    1.7611 H       1  LIG1        0.0279
     12 H          -0.5739    2.0517    1.3219 H       1  LIG1        0.0279
     13 H           0.6972    0.8569    1.5818 H       1  LIG1        0.0279
     14 C          -2.5869   -0.6757   -0.4172 C.ar    1  LIG1        0.0772
     15 C          -3.6788   -0.1350    0.2387 C.ar    1  LIG1        0.0351
     16 C          -4.6309   -1.1735    0.4645 C.ar    1  LIG1       -0.0099
     17 C          -4.0997   -2.3226   -0.0807 C.ar    1  LIG1        0.0685
     18 N          -2.8602   -2.0069   -0.5986 N.ar    1  LIG1       -0.3508
     19 H          -2.2404   -2.6597   -1.0508 H       1  LIG1        0.1660
     20 S          -3.8296    1.5520    0.7490 S.3     1  LIG1       -0.1403
     21 H          -4.8428    1.9001   -0.0665 H       1  LIG1        0.1072
     22 C          -5.9415   -1.0348    1.1661 C.3     1  LIG1       -0.0366
     23 H          -6.3275   -2.0107    1.4687 H       1  LIG1        0.0279
     24 H          -6.6967   -0.5705    0.5240 H       1  LIG1        0.0279
     25 H          -5.8380   -0.4078    2.0556 H       1  LIG1        0.0279
     26 C          -4.5980   -3.6905   -0.1249 C.ar    1  LIG1        0.0772
     27 C          -5.7655   -4.2418   -0.6219 C.ar    1  LIG1        0.0351
     28 C          -5.7261   -5.6522   -0.4115 C.ar    1  LIG1       -0.0099
     29 C          -4.5182   -5.9277    0.1936 C.ar    1  LIG1        0.0685
     30 N          -3.8539   -4.7316    0.3689 N.ar    1  LIG1       -0.3508
     31 H          -2.9554   -4.6334    0.8136 H       1  LIG1        0.1660
     32 S          -7.0946   -3.3253   -1.3445 S.3     1  LIG1       -0.1403
     33 H          -7.0376   -3.8653   -2.5764 H       1  LIG1        0.1072
     34 C          -6.7956   -6.6305   -0.7694 C.3     1  LIG1       -0.0366
     35 H          -6.6569   -7.5720   -0.2336 H       1  LIG1        0.0279
     36 H          -6.7919   -6.8612   -1.8395 H       1  LIG1        0.0279
     37 H          -7.7824   -6.2295   -0.5230 H       1  LIG1        0.0279
     38 C          -3.9396   -7.1762    0.6708 C.ar    1  LIG1        0.0768
     39 C          -3.6797   -8.3816    0.0452 C.ar    1  LIG1        0.0344
     40 C          -3.0986   -9.2689    1.0038 C.ar    1  LIG1       -0.0193
     41 C          -3.0121   -8.5668    2.1770 C.ar    1  LIG1        0.0062
     42 N          -3.5118   -7.3065    1.9704 N.ar    1  LIG1       -0.3584
     43 H          -3.7032   -6.6323    2.6936 H       1  LIG1        0.1654
     44 H          -2.6338   -8.8689    3.1422 H       1  LIG1        0.0810
     45 S          -4.0408   -8.7566   -1.6454 S.3     1  LIG1       -0.1403
     46 H          -2.7734   -8.8848   -2.0825 H       1  LIG1        0.1072
     47 C          -2.6532  -10.6744    0.7602 C.3     1  LIG1       -0.0372
     48 H          -2.3523  -11.1570    1.6928 H       1  LIG1        0.0278
     49 H          -1.8003  -10.7177    0.0747 H       1  LIG1        0.0278
     50 H          -3.4541  -11.2679    0.3105 H       1  LIG1        0.0278
@<TRIPOS>BOND
     1     7     1    1
     2     6     5    1
     3    33    32    1
     4     1     5   ar
     5     1     2   ar
     6     5     4   ar
     7    46    45    1
     8    36    34    1
     9    45    39    1
    10    32    27    1
    11     2     8    1
    12     2     3   ar
    13    19    18    1
    14     8     9    1
    15     4    14    1
    16     4     3   ar
    17    34    37    1
    18    34    28    1
    19    34    35    1
    20    27    28   ar
    21    27    26   ar
    22    18    14   ar
    23    18    17   ar
    24    14    15   ar
    25    28    29   ar
    26     3    10    1
    27    26    17    1
    28    26    30   ar
    29    17    16   ar
    30    21    20    1
    31    39    38   ar
    32    39    40   ar
    33    49    47    1
    34    29    30   ar
    35    29    38    1
    36    15    16   ar
    37    15    20    1
    38    50    47    1
    39    30    31    1
    40    16    22    1
    41    24    22    1
    42    38    42   ar
    43    47    40    1
    44    47    48    1
    45    40    41   ar
    46    22    23    1
    47    22    25    1
    48    10    12    1
    49    10    13    1
    50    10    11    1
    51    42    41   ar
    52    42    43    1
    53    41    44    1
