@<TRIPOS>MOLECULE
mol_data/opt/cam/geoms/mol2/13gi13gi-.out
 26 27 0 0 0
SMALL
GASTEIGER

@<TRIPOS>ATOM
      1 C           1.0540   -0.2626   -0.7071 C.ar    1  LIG1        0.0157
      2 C           0.7813    0.9597   -0.1421 C.ar    1  LIG1        0.0256
      3 C          -0.5915    0.9698    0.2553 C.ar    1  LIG1       -0.0106
      4 C          -1.1099   -0.2564   -0.1010 C.ar    1  LIG1        0.0680
      5 N          -0.0890   -1.0011   -0.6647 N.ar    1  LIG1       -0.3583
      6 H          -0.2224   -1.8947   -1.1087 H       1  LIG1        0.1654
      7 H           1.9725   -0.6458   -1.1238 H       1  LIG1        0.0818
      8 S           1.9874    2.2219    0.1441 S.3     1  LIG1       -0.1409
      9 H           1.5761    3.1037   -0.7868 H       1  LIG1        0.1072
     10 C          -1.3060    2.0822    0.9492 C.3     1  LIG1       -0.0366
     11 H          -2.2193    1.7211    1.4272 H       1  LIG1        0.0279
     12 H          -1.5945    2.8737    0.2504 H       1  LIG1        0.0279
     13 H          -0.6669    2.5343    1.7121 H       1  LIG1        0.0279
     14 C          -2.4353   -0.8346    0.0723 C.ar    1  LIG1        0.0767
     15 C          -3.6977   -0.4039   -0.2929 C.ar    1  LIG1        0.0344
     16 C          -4.6477   -1.3820    0.1381 C.ar    1  LIG1       -0.0193
     17 C          -3.9283   -2.3816    0.7379 C.ar    1  LIG1        0.0062
     18 N          -2.5977   -2.0515    0.6889 N.ar    1  LIG1       -0.3584
     19 H          -1.8599   -2.5329    1.1765 H       1  LIG1        0.1654
     20 H          -4.2620   -3.3013    1.1949 H       1  LIG1        0.0810
     21 S          -4.0637    1.1141   -1.1238 S.3     1  LIG1       -0.1403
     22 H          -4.4566    0.5933   -2.3020 H       1  LIG1        0.1072
     23 C          -6.1286   -1.3296   -0.0547 C.3     1  LIG1       -0.0372
     24 H          -6.6211   -2.1521    0.4693 H       1  LIG1        0.0278
     25 H          -6.4037   -1.3982   -1.1124 H       1  LIG1        0.0278
     26 H          -6.5408   -0.3888    0.3208 H       1  LIG1        0.0278
@<TRIPOS>BOND
     1    22    21    1
     2     7     1    1
     3    21    15    1
     4    25    23    1
     5     6     5    1
     6     9     8    1
     7     1     5   ar
     8     1     2   ar
     9     5     4   ar
    10    15    14   ar
    11    15    16   ar
    12     2     8    1
    13     2     3   ar
    14     4    14    1
    15     4     3   ar
    16    23    16    1
    17    23    26    1
    18    23    24    1
    19    14    18   ar
    20    16    17   ar
    21    12    10    1
    22     3    10    1
    23    18    17   ar
    24    18    19    1
    25    17    20    1
    26    10    11    1
    27    10    13    1
