@<TRIPOS>MOLECULE
mol_data/opt/cam/geoms/mol2/13gi13gi13gi-13gi.out
 50 53 0 0 0
SMALL
GASTEIGER

@<TRIPOS>ATOM
      1 C           0.2192    0.3557   -2.4527 C.ar    1  LIG1        0.0157
      2 C           0.6335    0.9050   -1.2636 C.ar    1  LIG1        0.0256
      3 C          -0.3575    0.6209   -0.2737 C.ar    1  LIG1       -0.0106
      4 C          -1.3535   -0.0870   -0.9104 C.ar    1  LIG1        0.0680
      5 N          -0.9752   -0.2588   -2.2305 N.ar    1  LIG1       -0.3583
      6 H          -1.5756   -0.6376   -2.9446 H       1  LIG1        0.1654
      7 H           0.6923    0.3609   -3.4224 H       1  LIG1        0.0818
      8 S           2.1944    1.7003   -1.0168 S.3     1  LIG1       -0.1409
      9 H           1.7557    2.9684   -0.9033 H       1  LIG1        0.1072
     10 C          -0.3009    0.9945    1.1708 C.3     1  LIG1       -0.0366
     11 H          -0.9985    0.3928    1.7577 H       1  LIG1        0.0279
     12 H          -0.5666    2.0448    1.3254 H       1  LIG1        0.0279
     13 H           0.7072    0.8492    1.5680 H       1  LIG1        0.0279
     14 C          -2.5915   -0.6728   -0.4151 C.ar    1  LIG1        0.0772
     15 C          -3.6786   -0.1368    0.2527 C.ar    1  LIG1        0.0351
     16 C          -4.6283   -1.1773    0.4794 C.ar    1  LIG1       -0.0099
     17 C          -4.1008   -2.3227   -0.0771 C.ar    1  LIG1        0.0685
     18 N          -2.8655   -2.0030   -0.6026 N.ar    1  LIG1       -0.3508
     19 H          -2.2489   -2.6526   -1.0637 H       1  LIG1        0.1660
     20 S          -3.8263    1.5469    0.7747 S.3     1  LIG1       -0.1403
     21 H          -4.8459    1.8995   -0.0308 H       1  LIG1        0.1072
     22 C          -5.9335   -1.0437    1.1920 C.3     1  LIG1       -0.0366
     23 H          -6.3167   -2.0217    1.4914 H       1  LIG1        0.0279
     24 H          -6.6939   -0.5759    0.5586 H       1  LIG1        0.0279
     25 H          -5.8235   -0.4222    2.0845 H       1  LIG1        0.0279
     26 C          -4.5986   -3.6905   -0.1260 C.ar    1  LIG1        0.0772
     27 C          -5.7697   -4.2394   -0.6174 C.ar    1  LIG1        0.0351
     28 C          -5.7279   -5.6510   -0.4161 C.ar    1  LIG1       -0.0099
     29 C          -4.5153   -5.9296    0.1779 C.ar    1  LIG1        0.0685
     30 N          -3.8503   -4.7343    0.3555 N.ar    1  LIG1       -0.3508
     31 H          -2.9484   -4.6384    0.7939 H       1  LIG1        0.1660
     32 S          -7.1048   -3.3192   -1.3239 S.3     1  LIG1       -0.1403
     33 H          -7.0572   -3.8515   -2.5595 H       1  LIG1        0.1072
     34 C          -6.7996   -6.6277   -0.7717 C.3     1  LIG1       -0.0366
     35 H          -6.6563   -7.5724   -0.2430 H       1  LIG1        0.0279
     36 H          -6.8041   -6.8517   -1.8433 H       1  LIG1        0.0279
     37 H          -7.7847   -6.2289   -0.5152 H       1  LIG1        0.0279
     38 C          -3.9323   -7.1808    0.6429 C.ar    1  LIG1        0.0768
     39 C          -3.6766   -8.3820    0.0077 C.ar    1  LIG1        0.0344
     40 C          -3.0876   -9.2750    0.9562 C.ar    1  LIG1       -0.0193
     41 C          -2.9924   -8.5802    2.1331 C.ar    1  LIG1        0.0062
     42 N          -3.4944   -7.3189    1.9382 N.ar    1  LIG1       -0.3584
     43 H          -3.6805   -6.6494    2.6671 H       1  LIG1        0.1654
     44 H          -2.6065   -8.8880    3.0934 H       1  LIG1        0.0810
     45 S          -4.0506   -8.7468   -1.6823 S.3     1  LIG1       -0.1403
     46 H          -2.7866   -8.8714   -2.1300 H       1  LIG1        0.1072
     47 C          -2.6434  -10.6787    0.7004 C.3     1  LIG1       -0.0372
     48 H          -2.3350  -11.1669    1.6276 H       1  LIG1        0.0278
     49 H          -1.7958  -10.7173    0.0080 H       1  LIG1        0.0278
     50 H          -3.4474  -11.2698    0.2532 H       1  LIG1        0.0278
@<TRIPOS>BOND
     1     7     1    1
     2     6     5    1
     3    33    32    1
     4     1     5   ar
     5     1     2   ar
     6     5     4   ar
     7    46    45    1
     8    36    34    1
     9    45    39    1
    10    32    27    1
    11     2     8    1
    12     2     3   ar
    13    19    18    1
    14     8     9    1
    15     4    14    1
    16     4     3   ar
    17    34    37    1
    18    34    28    1
    19    34    35    1
    20    27    28   ar
    21    27    26   ar
    22    18    14   ar
    23    18    17   ar
    24    28    29   ar
    25    14    15   ar
    26     3    10    1
    27    26    17    1
    28    26    30   ar
    29    17    16   ar
    30    21    20    1
    31    39    38   ar
    32    39    40   ar
    33    49    47    1
    34    29    30   ar
    35    29    38    1
    36    15    16   ar
    37    15    20    1
    38    50    47    1
    39    30    31    1
    40    16    22    1
    41    24    22    1
    42    38    42   ar
    43    47    40    1
    44    47    48    1
    45    40    41   ar
    46    10    12    1
    47    10    13    1
    48    10    11    1
    49    22    23    1
    50    22    25    1
    51    42    41   ar
    52    42    43    1
    53    41    44    1
