@<TRIPOS>MOLECULE
mol_data/opt/cam/geoms/mol2/13gi.out
 14 14 0 0 0
SMALL
GASTEIGER

@<TRIPOS>ATOM
      1 C           1.1110   -0.3572    0.0142 C.ar    1  LIG1        0.0152
      2 C           0.6513    0.9360    0.0856 C.ar    1  LIG1        0.0250
      3 C          -0.7794    0.8956    0.0873 C.ar    1  LIG1       -0.0200
      4 C          -1.1246   -0.4284    0.0071 C.ar    1  LIG1        0.0056
      5 N           0.0252   -1.1792   -0.0333 N.ar    1  LIG1       -0.3658
      6 H           0.0604   -2.1832   -0.0817 H       1  LIG1        0.1648
      7 H          -2.0986   -0.8937   -0.0209 H       1  LIG1        0.0810
      8 H           2.1211   -0.7360   -0.0002 H       1  LIG1        0.0818
      9 S           1.6809    2.3639    0.2600 S.3     1  LIG1       -0.1409
     10 H           1.5823    2.8413   -0.9959 H       1  LIG1        0.1072
     11 C          -1.7069    2.0657    0.1567 C.3     1  LIG1       -0.0373
     12 H          -2.7447    1.7381    0.2531 H       1  LIG1        0.0278
     13 H          -1.6377    2.6913   -0.7392 H       1  LIG1        0.0278
     14 H          -1.4708    2.7064    1.0110 H       1  LIG1        0.0278
@<TRIPOS>BOND
     1    10     9    1
     2    13    11    1
     3     6     5    1
     4     5     4   ar
     5     5     1   ar
     6     7     4    1
     7     8     1    1
     8     4     3   ar
     9     1     2   ar
    10     2     3   ar
    11     2     9    1
    12     3    11    1
    13    11    12    1
    14    11    14    1
