@<TRIPOS>MOLECULE
mol_data/opt/cam/geoms/mol2/13gi13gi.out
 26 27 0 0 0
SMALL
GASTEIGER

@<TRIPOS>ATOM
      1 C           1.0496   -0.2594   -0.7245 C.ar    1  LIG1        0.0157
      2 C           0.7803    0.9606   -0.1531 C.ar    1  LIG1        0.0256
      3 C          -0.5901    0.9689    0.2529 C.ar    1  LIG1       -0.0106
      4 C          -1.1105   -0.2559   -0.1049 C.ar    1  LIG1        0.0680
      5 N          -0.0931   -0.9982   -0.6779 N.ar    1  LIG1       -0.3583
      6 H          -0.2292   -1.8902   -1.1245 H       1  LIG1        0.1654
      7 H           1.9654   -0.6410   -1.1485 H       1  LIG1        0.0818
      8 S           1.9880    2.2218    0.1305 S.3     1  LIG1       -0.1409
      9 H           1.5708    3.1072   -0.7944 H       1  LIG1        0.1072
     10 C          -1.3003    2.0786    0.9556 C.3     1  LIG1       -0.0366
     11 H          -2.2105    1.7155    1.4379 H       1  LIG1        0.0279
     12 H          -1.5932    2.8727    0.2617 H       1  LIG1        0.0279
     13 H          -0.6565    2.5278    1.7162 H       1  LIG1        0.0279
     14 C          -2.4348   -0.8349    0.0744 C.ar    1  LIG1        0.0767
     15 C          -3.6995   -0.4029   -0.2813 C.ar    1  LIG1        0.0344
     16 C          -4.6467   -1.3829    0.1519 C.ar    1  LIG1       -0.0193
     17 C          -3.9235   -2.3847    0.7433 C.ar    1  LIG1        0.0062
     18 N          -2.5932   -2.0542    0.6873 N.ar    1  LIG1       -0.3584
     19 H          -1.8524   -2.5374    1.1685 H       1  LIG1        0.1654
     20 H          -4.2542   -3.3062    1.1988 H       1  LIG1        0.0810
     21 S          -4.0708    1.1182   -1.1039 S.3     1  LIG1       -0.1403
     22 H          -4.4708    0.6019   -2.2818 H       1  LIG1        0.1072
     23 C          -6.1288   -1.3299   -0.0314 C.3     1  LIG1       -0.0372
     24 H          -6.6179   -2.1544    0.4925 H       1  LIG1        0.0278
     25 H          -6.4104   -1.3946   -1.0877 H       1  LIG1        0.0278
     26 H          -6.5386   -0.3905    0.3501 H       1  LIG1        0.0278
@<TRIPOS>BOND
     1    22    21    1
     2     7     1    1
     3     6     5    1
     4    21    15    1
     5    25    23    1
     6     9     8    1
     7     1     5   ar
     8     1     2   ar
     9     5     4   ar
    10    15    14   ar
    11    15    16   ar
    12     2     8    1
    13     2     3   ar
    14     4    14    1
    15     4     3   ar
    16    23    16    1
    17    23    26    1
    18    23    24    1
    19    14    18   ar
    20    16    17   ar
    21     3    10    1
    22    12    10    1
    23    18    17   ar
    24    18    19    1
    25    17    20    1
    26    10    11    1
    27    10    13    1
