@<TRIPOS>MOLECULE
mol_data/opt/cam/geoms/mol2/13gi13gi13gi.out
 38 40 0 0 0
SMALL
GASTEIGER

@<TRIPOS>ATOM
      1 C           0.8215   -0.0698   -1.4879 C.ar    1  LIG1        0.0157
      2 C           0.8007    0.8756   -0.4914 C.ar    1  LIG1        0.0256
      3 C          -0.4727    0.8125    0.1546 C.ar    1  LIG1       -0.0106
      4 C          -1.1896   -0.1714   -0.4910 C.ar    1  LIG1        0.0680
      5 N          -0.3782   -0.7134   -1.4724 N.ar    1  LIG1       -0.3583
      6 H          -0.6963   -1.3669   -2.1693 H       1  LIG1        0.1654
      7 H           1.6010   -0.3215   -2.1902 H       1  LIG1        0.0818
      8 S           2.1829    1.8812   -0.0356 S.3     1  LIG1       -0.1409
      9 H           1.7310    3.0618   -0.4996 H       1  LIG1        0.1072
     10 C          -0.9178    1.6333    1.3198 C.3     1  LIG1       -0.0366
     11 H          -1.7787    1.1768    1.8132 H       1  LIG1        0.0279
     12 H          -1.2146    2.6409    1.0124 H       1  LIG1        0.0279
     13 H          -0.1106    1.7374    2.0496 H       1  LIG1        0.0279
     14 C          -2.5258   -0.7029   -0.2610 C.ar    1  LIG1        0.0772
     15 C          -3.7729   -0.1057   -0.2063 C.ar    1  LIG1        0.0351
     16 C          -4.7492   -1.1175    0.0364 C.ar    1  LIG1       -0.0099
     17 C          -4.0696   -2.3151    0.1025 C.ar    1  LIG1        0.0685
     18 N          -2.7273   -2.0454   -0.0682 N.ar    1  LIG1       -0.3508
     19 H          -1.9934   -2.7349   -0.0433 H       1  LIG1        0.1660
     20 S          -4.0789    1.6293   -0.3620 S.3     1  LIG1       -0.1403
     21 H          -4.7919    1.5871   -1.5032 H       1  LIG1        0.1072
     22 C          -6.2185   -0.9079    0.1982 C.3     1  LIG1       -0.0366
     23 H          -6.6846   -1.7703    0.6797 H       1  LIG1        0.0279
     24 H          -6.7158   -0.7650   -0.7665 H       1  LIG1        0.0279
     25 H          -6.4158   -0.0196    0.8042 H       1  LIG1        0.0279
     26 C          -4.5279   -3.6738    0.3573 C.ar    1  LIG1        0.0768
     27 C          -5.4780   -4.4679   -0.2581 C.ar    1  LIG1        0.0344
     28 C          -5.5150   -5.7282    0.4163 C.ar    1  LIG1       -0.0193
     29 C          -4.5747   -5.6619    1.4104 C.ar    1  LIG1        0.0062
     30 N          -3.9782   -4.4277    1.3664 N.ar    1  LIG1       -0.3584
     31 H          -3.3595   -4.0566    2.0689 H       1  LIG1        0.1654
     32 H          -4.2863   -6.3986    2.1452 H       1  LIG1        0.0810
     33 S          -6.4902   -3.9816   -1.6247 S.3     1  LIG1       -0.1403
     34 H          -5.9783   -4.8219   -2.5444 H       1  LIG1        0.1072
     35 C          -6.3915   -6.8912    0.0814 C.3     1  LIG1       -0.0372
     36 H          -6.2924   -7.6836    0.8268 H       1  LIG1        0.0278
     37 H          -6.1422   -7.3212   -0.8944 H       1  LIG1        0.0278
     38 H          -7.4423   -6.5914    0.0383 H       1  LIG1        0.0278
@<TRIPOS>BOND
     1    34    33    1
     2     7     1    1
     3     6     5    1
     4    33    27    1
     5    21    20    1
     6     1     5   ar
     7     1     2   ar
     8     5     4   ar
     9    37    35    1
    10    24    22    1
    11     9     8    1
    12     2     8    1
    13     2     3   ar
    14     4    14    1
    15     4     3   ar
    16    20    15    1
    17    14    15   ar
    18    14    18   ar
    19    27    26   ar
    20    27    28   ar
    21    15    16   ar
    22    18    19    1
    23    18    17   ar
    24    16    17   ar
    25    16    22    1
    26    38    35    1
    27    35    28    1
    28    35    36    1
    29    17    26    1
    30     3    10    1
    31    22    23    1
    32    22    25    1
    33    26    30   ar
    34    28    29   ar
    35    12    10    1
    36    10    11    1
    37    10    13    1
    38    30    29   ar
    39    30    31    1
    40    29    32    1
