@<TRIPOS>MOLECULE
mol_data/opt/cam/geoms/mol2/13gi13gi-13gi13gi-.out
 50 53 0 0 0
SMALL
GASTEIGER

@<TRIPOS>ATOM
      1 C           0.2396    0.3143   -2.4512 C.ar    1  LIG1        0.0157
      2 C           0.6452    0.8826   -1.2680 C.ar    1  LIG1        0.0256
      3 C          -0.3535    0.6151   -0.2812 C.ar    1  LIG1       -0.0106
      4 C          -1.3450   -0.1027   -0.9138 C.ar    1  LIG1        0.0680
      5 N          -0.9568   -0.2961   -2.2280 N.ar    1  LIG1       -0.3583
      6 H          -1.5520   -0.6862   -2.9404 H       1  LIG1        0.1654
      7 H           0.7200    0.3036   -3.4172 H       1  LIG1        0.0818
      8 S           2.2046    1.6811   -1.0223 S.3     1  LIG1       -0.1409
      9 H           1.7657    2.9511   -0.9327 H       1  LIG1        0.1072
     10 C          -0.3076    1.0120    1.1575 C.3     1  LIG1       -0.0366
     11 H          -1.0099    0.4202    1.7487 H       1  LIG1        0.0279
     12 H          -0.5738    2.0648    1.2930 H       1  LIG1        0.0279
     13 H           0.6974    0.8727    1.5646 H       1  LIG1        0.0279
     14 C          -2.5870   -0.6799   -0.4184 C.ar    1  LIG1        0.0772
     15 C          -3.6789   -0.1327    0.2323 C.ar    1  LIG1        0.0351
     16 C          -4.6308   -1.1689    0.4687 C.ar    1  LIG1       -0.0099
     17 C          -4.0997   -2.3234   -0.0652 C.ar    1  LIG1        0.0685
     18 N          -2.8603   -2.0128   -0.5864 N.ar    1  LIG1       -0.3508
     19 H          -2.2405   -2.6701   -1.0322 H       1  LIG1        0.1660
     20 S          -3.8296    1.5593    0.7258 S.3     1  LIG1       -0.1403
     21 H          -4.8429    1.8992   -0.0930 H       1  LIG1        0.1072
     22 C          -5.9413   -1.0233    1.1691 C.3     1  LIG1       -0.0366
     23 H          -6.3272   -1.9962    1.4814 H       1  LIG1        0.0279
     24 H          -6.6966   -0.5655    0.5225 H       1  LIG1        0.0279
     25 H          -5.8377   -0.3874    2.0523 H       1  LIG1        0.0279
     26 C          -4.5979   -3.6917   -0.0956 C.ar    1  LIG1        0.0772
     27 C          -5.7655   -4.2480   -0.5869 C.ar    1  LIG1        0.0351
     28 C          -5.7260   -5.6562   -0.3625 C.ar    1  LIG1       -0.0099
     29 C          -4.5180   -5.9256    0.2451 C.ar    1  LIG1        0.0685
     30 N          -3.8537   -4.7278    0.4084 N.ar    1  LIG1       -0.3508
     31 H          -2.9551   -4.6251    0.8520 H       1  LIG1        0.1660
     32 S          -7.0948   -3.3388   -1.3183 S.3     1  LIG1       -0.1403
     33 H          -7.0380   -3.8911   -2.5447 H       1  LIG1        0.1072
     34 C          -6.7955   -6.6381   -0.7103 C.3     1  LIG1       -0.0366
     35 H          -6.6567   -7.5742   -0.1652 H       1  LIG1        0.0279
     36 H          -6.7920   -6.8795   -1.7781 H       1  LIG1        0.0279
     37 H          -7.7823   -6.2347   -0.4677 H       1  LIG1        0.0279
     38 C          -3.9392   -7.1693    0.7347 C.ar    1  LIG1        0.0768
     39 C          -3.6794   -8.3808    0.1211 C.ar    1  LIG1        0.0344
     40 C          -3.0980   -9.2585    1.0884 C.ar    1  LIG1       -0.0193
     41 C          -3.0113   -8.5447    2.2545 C.ar    1  LIG1        0.0062
     42 N          -3.5111   -7.2865    2.0354 N.ar    1  LIG1       -0.3584
     43 H          -3.7024   -6.6052    2.7519 H       1  LIG1        0.1654
     44 H          -2.6328   -8.8371    3.2226 H       1  LIG1        0.0810
     45 S          -4.0408   -8.7728   -1.5656 S.3     1  LIG1       -0.1403
     46 H          -2.7735   -8.9052   -2.0016 H       1  LIG1        0.1072
     47 C          -2.6526  -10.6663    0.8587 C.3     1  LIG1       -0.0372
     48 H          -2.3514  -11.1395    1.7961 H       1  LIG1        0.0278
     49 H          -1.7999  -10.7165    0.1735 H       1  LIG1        0.0278
     50 H          -3.4536  -11.2643    0.4152 H       1  LIG1        0.0278
@<TRIPOS>BOND
     1     7     1    1
     2     6     5    1
     3    33    32    1
     4     1     5   ar
     5     1     2   ar
     6     5     4   ar
     7    46    45    1
     8    36    34    1
     9    45    39    1
    10    32    27    1
    11     2     8    1
    12     2     3   ar
    13    19    18    1
    14     8     9    1
    15     4    14    1
    16     4     3   ar
    17    34    37    1
    18    34    28    1
    19    34    35    1
    20    27    28   ar
    21    27    26   ar
    22    18    14   ar
    23    18    17   ar
    24    14    15   ar
    25    28    29   ar
    26     3    10    1
    27    26    17    1
    28    26    30   ar
    29    21    20    1
    30    17    16   ar
    31    39    38   ar
    32    39    40   ar
    33    49    47    1
    34    15    16   ar
    35    15    20    1
    36    29    30   ar
    37    29    38    1
    38    30    31    1
    39    50    47    1
    40    16    22    1
    41    24    22    1
    42    38    42   ar
    43    47    40    1
    44    47    48    1
    45    40    41   ar
    46    10    12    1
    47    10    13    1
    48    10    11    1
    49    22    23    1
    50    22    25    1
    51    42    41   ar
    52    42    43    1
    53    41    44    1
