@<TRIPOS>MOLECULE
mol_data/opt/cam/geoms/mol2/13gi13gi13gi-.out
 38 40 0 0 0
SMALL
GASTEIGER

@<TRIPOS>ATOM
      1 C           0.8216   -0.0731   -1.4892 C.ar    1  LIG1        0.0157
      2 C           0.8019    0.8730   -0.4934 C.ar    1  LIG1        0.0256
      3 C          -0.4712    0.8111    0.1534 C.ar    1  LIG1       -0.0106
      4 C          -1.1890   -0.1729   -0.4911 C.ar    1  LIG1        0.0680
      5 N          -0.3784   -0.7161   -1.4725 N.ar    1  LIG1       -0.3583
      6 H          -0.6973   -1.3699   -2.1688 H       1  LIG1        0.1654
      7 H           1.6006   -0.3257   -2.1918 H       1  LIG1        0.0818
      8 S           2.1849    1.8782   -0.0391 S.3     1  LIG1       -0.1409
      9 H           1.7334    3.0587   -0.5037 H       1  LIG1        0.1072
     10 C          -0.9151    1.6329    1.3183 C.3     1  LIG1       -0.0366
     11 H          -1.7760    1.1772    1.8125 H       1  LIG1        0.0279
     12 H          -1.2116    2.6405    1.0103 H       1  LIG1        0.0279
     13 H          -0.1074    1.7372    2.0475 H       1  LIG1        0.0279
     14 C          -2.5254   -0.7035   -0.2599 C.ar    1  LIG1        0.0772
     15 C          -3.7721   -0.1056   -0.2049 C.ar    1  LIG1        0.0351
     16 C          -4.7488   -1.1167    0.0392 C.ar    1  LIG1       -0.0099
     17 C          -4.0698   -2.3146    0.1057 C.ar    1  LIG1        0.0685
     18 N          -2.7274   -2.0458   -0.0660 N.ar    1  LIG1       -0.3508
     19 H          -1.9939   -2.7357   -0.0410 H       1  LIG1        0.1660
     20 S          -4.0772    1.6295   -0.3617 S.3     1  LIG1       -0.1403
     21 H          -4.7909    1.5868   -1.5025 H       1  LIG1        0.1072
     22 C          -6.2179   -0.9061    0.2017 C.3     1  LIG1       -0.0366
     23 H          -6.6841   -1.7680    0.6840 H       1  LIG1        0.0279
     24 H          -6.7156   -0.7638   -0.7629 H       1  LIG1        0.0279
     25 H          -6.4143   -0.0173    0.8071 H       1  LIG1        0.0279
     26 C          -4.5287   -3.6729    0.3617 C.ar    1  LIG1        0.0768
     27 C          -5.4796   -4.4669   -0.2525 C.ar    1  LIG1        0.0344
     28 C          -5.5168   -5.7267    0.4228 C.ar    1  LIG1       -0.0193
     29 C          -4.5760   -5.6602    1.4163 C.ar    1  LIG1        0.0062
     30 N          -3.9788   -4.4264    1.3711 N.ar    1  LIG1       -0.3584
     31 H          -3.3594   -4.0551    2.0729 H       1  LIG1        0.1654
     32 H          -4.2875   -6.3965    2.1515 H       1  LIG1        0.0810
     33 S          -6.4923   -3.9811   -1.6189 S.3     1  LIG1       -0.1403
     34 H          -5.9814   -4.8223   -2.5383 H       1  LIG1        0.1072
     35 C          -6.3942   -6.8895    0.0893 C.3     1  LIG1       -0.0372
     36 H          -6.2950   -7.6814    0.8352 H       1  LIG1        0.0278
     37 H          -6.1456   -7.3203   -0.8864 H       1  LIG1        0.0278
     38 H          -7.4448   -6.5891    0.0466 H       1  LIG1        0.0278
@<TRIPOS>BOND
     1    34    33    1
     2     7     1    1
     3     6     5    1
     4    33    27    1
     5    21    20    1
     6     1     5   ar
     7     1     2   ar
     8     5     4   ar
     9    37    35    1
    10    24    22    1
    11     9     8    1
    12     2     8    1
    13     2     3   ar
    14     4    14    1
    15     4     3   ar
    16    20    15    1
    17    14    15   ar
    18    14    18   ar
    19    27    26   ar
    20    27    28   ar
    21    15    16   ar
    22    18    19    1
    23    18    17   ar
    24    16    17   ar
    25    16    22    1
    26    38    35    1
    27    35    28    1
    28    35    36    1
    29    17    26    1
    30     3    10    1
    31    22    23    1
    32    22    25    1
    33    26    30   ar
    34    28    29   ar
    35    12    10    1
    36    10    11    1
    37    10    13    1
    38    30    29   ar
    39    30    31    1
    40    29    32    1
