@<TRIPOS>MOLECULE
mol_data/opt/cam/geoms/mol2/13gi13gi-13gi-.out
 38 40 0 0 0
SMALL
GASTEIGER

@<TRIPOS>ATOM
      1 C           0.8305   -0.0948   -1.4761 C.ar    1  LIG1        0.0157
      2 C           0.8068    0.8633   -0.4918 C.ar    1  LIG1        0.0256
      3 C          -0.4694    0.8103    0.1495 C.ar    1  LIG1       -0.0106
      4 C          -1.1851   -0.1807   -0.4866 C.ar    1  LIG1        0.0680
      5 N          -0.3703   -0.7364   -1.4575 N.ar    1  LIG1       -0.3583
      6 H          -0.6864   -1.3983   -2.1474 H       1  LIG1        0.1654
      7 H           1.6125   -0.3565   -2.1718 H       1  LIG1        0.0818
      8 S           2.1886    1.8727   -0.0430 S.3     1  LIG1       -0.1409
      9 H           1.7404    3.0478   -0.5239 H       1  LIG1        0.1072
     10 C          -0.9183    1.6465    1.3022 C.3     1  LIG1       -0.0366
     11 H          -1.7819    1.1975    1.7977 H       1  LIG1        0.0279
     12 H          -1.2123    2.6505    0.9807 H       1  LIG1        0.0279
     13 H          -0.1140    1.7588    2.0340 H       1  LIG1        0.0279
     14 C          -2.5230   -0.7073   -0.2555 C.ar    1  LIG1        0.0772
     15 C          -3.7695   -0.1077   -0.2137 C.ar    1  LIG1        0.0351
     16 C          -4.7483   -1.1150    0.0377 C.ar    1  LIG1       -0.0099
     17 C          -4.0707   -2.3126    0.1219 C.ar    1  LIG1        0.0685
     18 N          -2.7273   -2.0470   -0.0465 N.ar    1  LIG1       -0.3508
     19 H          -1.9946   -2.7372   -0.0097 H       1  LIG1        0.1660
     20 S          -4.0721    1.6256   -0.3929 S.3     1  LIG1       -0.1403
     21 H          -4.7804    1.5698   -1.5365 H       1  LIG1        0.1072
     22 C          -6.2180   -0.9011    0.1905 C.3     1  LIG1       -0.0366
     23 H          -6.6873   -1.7567    0.6809 H       1  LIG1        0.0279
     24 H          -6.7109   -0.7699   -0.7781 H       1  LIG1        0.0279
     25 H          -6.4165   -0.0049    0.7843 H       1  LIG1        0.0279
     26 C          -4.5321   -3.6673    0.3920 C.ar    1  LIG1        0.0768
     27 C          -5.4808   -4.4678   -0.2172 C.ar    1  LIG1        0.0344
     28 C          -5.5225   -5.7193    0.4730 C.ar    1  LIG1       -0.0193
     29 C          -4.5864   -5.6417    1.4701 C.ar    1  LIG1        0.0062
     30 N          -3.9879   -4.4090    1.4130 N.ar    1  LIG1       -0.3584
     31 H          -3.3715   -4.0299    2.1133 H       1  LIG1        0.1654
     32 H          -4.3022   -6.3694    2.2155 H       1  LIG1        0.0810
     33 S          -6.4864   -3.9975   -1.5943 S.3     1  LIG1       -0.1403
     34 H          -5.9719   -4.8501   -2.5010 H       1  LIG1        0.1072
     35 C          -6.3994   -6.8852    0.1492 C.3     1  LIG1       -0.0372
     36 H          -6.3046   -7.6682    0.9051 H       1  LIG1        0.0278
     37 H          -6.1465   -7.3280   -0.8200 H       1  LIG1        0.0278
     38 H          -7.4495   -6.5845    0.0977 H       1  LIG1        0.0278
@<TRIPOS>BOND
     1    34    33    1
     2     7     1    1
     3     6     5    1
     4    33    27    1
     5    21    20    1
     6     1     5   ar
     7     1     2   ar
     8     5     4   ar
     9    37    35    1
    10    24    22    1
    11     9     8    1
    12     2     8    1
    13     2     3   ar
    14     4    14    1
    15     4     3   ar
    16    20    15    1
    17    14    15   ar
    18    14    18   ar
    19    27    26   ar
    20    27    28   ar
    21    15    16   ar
    22    18    19    1
    23    18    17   ar
    24    16    17   ar
    25    16    22    1
    26    38    35    1
    27    17    26    1
    28    35    28    1
    29    35    36    1
    30     3    10    1
    31    22    23    1
    32    22    25    1
    33    26    30   ar
    34    28    29   ar
    35    12    10    1
    36    10    11    1
    37    10    13    1
    38    30    29   ar
    39    30    31    1
    40    29    32    1
