@<TRIPOS>MOLECULE
mol_data/opt/cam/geoms/mol2/13gi13gi13gi-13gi-.out
 50 53 0 0 0
SMALL
GASTEIGER

@<TRIPOS>ATOM
      1 C           0.2118    0.3574   -2.4624 C.ar    1  LIG1        0.0157
      2 C           0.6291    0.9064   -1.2742 C.ar    1  LIG1        0.0256
      3 C          -0.3593    0.6218   -0.2818 C.ar    1  LIG1       -0.0106
      4 C          -1.3568   -0.0862   -0.9161 C.ar    1  LIG1        0.0680
      5 N          -0.9819   -0.2575   -2.2372 N.ar    1  LIG1       -0.3583
      6 H          -1.5841   -0.6362   -2.9499 H       1  LIG1        0.1654
      7 H           0.6823    0.3631   -3.4333 H       1  LIG1        0.0818
      8 S           2.1904    1.7020   -1.0313 S.3     1  LIG1       -0.1409
      9 H           1.7517    2.9700   -0.9161 H       1  LIG1        0.1072
     10 C          -0.2990    0.9949    1.1627 C.3     1  LIG1       -0.0366
     11 H          -0.9949    0.3928    1.7512 H       1  LIG1        0.0279
     12 H          -0.5646    2.0451    1.3183 H       1  LIG1        0.0279
     13 H           0.7102    0.8498    1.5572 H       1  LIG1        0.0279
     14 C          -2.5933   -0.6725   -0.4177 C.ar    1  LIG1        0.0772
     15 C          -3.6788   -0.1370    0.2530 C.ar    1  LIG1        0.0351
     16 C          -4.6276   -1.1778    0.4820 C.ar    1  LIG1       -0.0099
     17 C          -4.1013   -2.3229   -0.0764 C.ar    1  LIG1        0.0685
     18 N          -2.8675   -2.0027   -0.6049 N.ar    1  LIG1       -0.3508
     19 H          -2.2519   -2.6520   -1.0679 H       1  LIG1        0.1660
     20 S          -3.8255    1.5465    0.7760 S.3     1  LIG1       -0.1403
     21 H          -4.8474    1.8991   -0.0266 H       1  LIG1        0.1072
     22 C          -5.9310   -1.0448    1.1980 C.3     1  LIG1       -0.0366
     23 H          -6.3131   -2.0230    1.4981 H       1  LIG1        0.0279
     24 H          -6.6932   -0.5769    0.5668 H       1  LIG1        0.0279
     25 H          -5.8188   -0.4235    2.0905 H       1  LIG1        0.0279
     26 C          -4.5989   -3.6908   -0.1243 C.ar    1  LIG1        0.0772
     27 C          -5.7711   -4.2398   -0.6128 C.ar    1  LIG1        0.0351
     28 C          -5.7284   -5.6515   -0.4121 C.ar    1  LIG1       -0.0099
     29 C          -4.5142   -5.9300    0.1786 C.ar    1  LIG1        0.0685
     30 N          -3.8490   -4.7345    0.3549 N.ar    1  LIG1       -0.3508
     31 H          -2.9459   -4.6385    0.7909 H       1  LIG1        0.1660
     32 S          -7.1083   -3.3197   -1.3155 S.3     1  LIG1       -0.1403
     33 H          -7.0638   -3.8516   -2.5514 H       1  LIG1        0.1072
     34 C          -6.8008   -6.6284   -0.7653 C.3     1  LIG1       -0.0366
     35 H          -6.6559   -7.5732   -0.2372 H       1  LIG1        0.0279
     36 H          -6.8080   -6.8521   -1.8369 H       1  LIG1        0.0279
     37 H          -7.7853   -6.2299   -0.5060 H       1  LIG1        0.0279
     38 C          -3.9296   -7.1811    0.6416 C.ar    1  LIG1        0.0768
     39 C          -3.6753   -8.3821    0.0054 C.ar    1  LIG1        0.0344
     40 C          -3.0836   -9.2753    0.9521 C.ar    1  LIG1       -0.0193
     41 C          -2.9854   -8.5808    2.1289 C.ar    1  LIG1        0.0062
     42 N          -3.4883   -7.3196    1.9358 N.ar    1  LIG1       -0.3584
     43 H          -3.6726   -6.6503    2.6653 H       1  LIG1        0.1654
     44 H          -2.5969   -8.8889    3.0881 H       1  LIG1        0.0810
     45 S          -4.0537   -8.7464   -1.6837 S.3     1  LIG1       -0.1403
     46 H          -2.7907   -8.8706   -2.1348 H       1  LIG1        0.1072
     47 C          -2.6397  -10.6787    0.6946 C.3     1  LIG1       -0.0372
     48 H          -2.3287  -11.1672    1.6209 H       1  LIG1        0.0278
     49 H          -1.7939  -10.7169    0.0000 H       1  LIG1        0.0278
     50 H          -3.4447  -11.2700    0.2494 H       1  LIG1        0.0278
@<TRIPOS>BOND
     1     7     1    1
     2     6     5    1
     3    33    32    1
     4     1     5   ar
     5     1     2   ar
     6     5     4   ar
     7    46    45    1
     8    36    34    1
     9    45    39    1
    10    32    27    1
    11     2     8    1
    12     2     3   ar
    13    19    18    1
    14     8     9    1
    15     4    14    1
    16     4     3   ar
    17    34    37    1
    18    34    28    1
    19    34    35    1
    20    27    28   ar
    21    27    26   ar
    22    18    14   ar
    23    18    17   ar
    24    14    15   ar
    25    28    29   ar
    26     3    10    1
    27    26    17    1
    28    26    30   ar
    29    17    16   ar
    30    21    20    1
    31    49    47    1
    32    39    38   ar
    33    39    40   ar
    34    29    30   ar
    35    29    38    1
    36    50    47    1
    37    15    16   ar
    38    15    20    1
    39    30    31    1
    40    16    22    1
    41    24    22    1
    42    38    42   ar
    43    47    40    1
    44    47    48    1
    45    40    41   ar
    46    10    12    1
    47    10    13    1
    48    10    11    1
    49    22    23    1
    50    22    25    1
    51    42    41   ar
    52    42    43    1
    53    41    44    1
