@<TRIPOS>MOLECULE
mol_data/opt/cam/geoms/mol2/13gi13gi-13gi-13gi.out
 50 53 0 0 0
SMALL
GASTEIGER

@<TRIPOS>ATOM
      1 C           0.2247    0.3235   -2.4665 C.ar    1  LIG1        0.0157
      2 C           0.6376    0.8873   -1.2836 C.ar    1  LIG1        0.0256
      3 C          -0.3549    0.6160   -0.2918 C.ar    1  LIG1       -0.0106
      4 C          -1.3504   -0.0992   -0.9210 C.ar    1  LIG1        0.0680
      5 N          -0.9703   -0.2876   -2.2384 N.ar    1  LIG1       -0.3583
      6 H          -1.5699   -0.6749   -2.9486 H       1  LIG1        0.1654
      7 H           0.6992    0.3165   -3.4355 H       1  LIG1        0.0818
      8 S           2.1986    1.6848   -1.0445 S.3     1  LIG1       -0.1409
      9 H           1.7604    2.9544   -0.9472 H       1  LIG1        0.1072
     10 C          -0.3002    1.0073    1.1481 C.3     1  LIG1       -0.0366
     11 H          -0.9989    0.4133    1.7414 H       1  LIG1        0.0279
     12 H          -0.5657    2.0597    1.2893 H       1  LIG1        0.0279
     13 H           0.7072    0.8666    1.5485 H       1  LIG1        0.0279
     14 C          -2.5894   -0.6783   -0.4203 C.ar    1  LIG1        0.0772
     15 C          -3.6772   -0.1336    0.2391 C.ar    1  LIG1        0.0351
     16 C          -4.6278   -1.1706    0.4774 C.ar    1  LIG1       -0.0099
     17 C          -4.1001   -2.3231   -0.0642 C.ar    1  LIG1        0.0685
     18 N          -2.8638   -2.0105   -0.5918 N.ar    1  LIG1       -0.3508
     19 H          -2.2469   -2.6661   -1.0439 H       1  LIG1        0.1660
     20 S          -3.8248    1.5565    0.7401 S.3     1  LIG1       -0.1403
     21 H          -4.8430    1.8997   -0.0712 H       1  LIG1        0.1072
     22 C          -5.9339   -1.0277    1.1864 C.3     1  LIG1       -0.0366
     23 H          -6.3180   -2.0017    1.4973 H       1  LIG1        0.0279
     24 H          -6.6932   -0.5673    0.5461 H       1  LIG1        0.0279
     25 H          -5.8249   -0.3952    2.0713 H       1  LIG1        0.0279
     26 C          -4.5985   -3.6912   -0.0969 C.ar    1  LIG1        0.0772
     27 C          -5.7692   -4.2455   -0.5831 C.ar    1  LIG1        0.0351
     28 C          -5.7284   -5.6546   -0.3644 C.ar    1  LIG1       -0.0099
     29 C          -4.5167   -5.9264    0.2348 C.ar    1  LIG1        0.0685
     30 N          -3.8514   -4.7293    0.3986 N.ar    1  LIG1       -0.3508
     31 H          -2.9500   -4.6284    0.8371 H       1  LIG1        0.1660
     32 S          -7.1028   -3.3335   -1.3029 S.3     1  LIG1       -0.1403
     33 H          -7.0537   -3.8811   -2.5317 H       1  LIG1        0.1072
     34 C          -6.8001   -6.6351   -0.7095 C.3     1  LIG1       -0.0366
     35 H          -6.6580   -7.5733   -0.1689 H       1  LIG1        0.0279
     36 H          -6.8031   -6.8723   -1.7782 H       1  LIG1        0.0279
     37 H          -7.7853   -6.2326   -0.4593 H       1  LIG1        0.0279
     38 C          -3.9350   -7.1720    0.7160 C.ar    1  LIG1        0.0768
     39 C          -3.6791   -8.3812    0.0961 C.ar    1  LIG1        0.0344
     40 C          -3.0919   -9.2627    1.0565 C.ar    1  LIG1       -0.0193
     41 C          -2.9980   -8.5533    2.2248 C.ar    1  LIG1        0.0062
     42 N          -3.4991   -7.2943    2.0136 N.ar    1  LIG1       -0.3584
     43 H          -3.6859   -6.6158    2.7339 H       1  LIG1        0.1654
     44 H          -2.6136   -8.8495    3.1894 H       1  LIG1        0.0810
     45 S          -4.0508   -8.7666   -1.5898 S.3     1  LIG1       -0.1403
     46 H          -2.7862   -8.8973   -2.0341 H       1  LIG1        0.1072
     47 C          -2.6481  -10.6696    0.8187 C.3     1  LIG1       -0.0372
     48 H          -2.3413  -11.1465    1.7524 H       1  LIG1        0.0278
     49 H          -1.7994  -10.7172    0.1281 H       1  LIG1        0.0278
     50 H          -3.4518  -11.2658    0.3776 H       1  LIG1        0.0278
@<TRIPOS>BOND
     1     7     1    1
     2     6     5    1
     3    33    32    1
     4     1     5   ar
     5     1     2   ar
     6     5     4   ar
     7    46    45    1
     8    36    34    1
     9    45    39    1
    10    32    27    1
    11     2     8    1
    12     2     3   ar
    13     8     9    1
    14    19    18    1
    15     4    14    1
    16     4     3   ar
    17    34    37    1
    18    34    28    1
    19    34    35    1
    20    18    14   ar
    21    18    17   ar
    22    27    28   ar
    23    27    26   ar
    24    14    15   ar
    25    28    29   ar
    26     3    10    1
    27    26    17    1
    28    26    30   ar
    29    21    20    1
    30    17    16   ar
    31    39    38   ar
    32    39    40   ar
    33    49    47    1
    34    29    30   ar
    35    29    38    1
    36    15    16   ar
    37    15    20    1
    38    50    47    1
    39    30    31    1
    40    16    22    1
    41    24    22    1
    42    38    42   ar
    43    47    40    1
    44    47    48    1
    45    40    41   ar
    46    10    12    1
    47    10    13    1
    48    10    11    1
    49    22    23    1
    50    22    25    1
    51    42    41   ar
    52    42    43    1
    53    41    44    1
