@<TRIPOS>MOLECULE
mol_data/opt/cam/geoms/mol2/13gi13gi-13gi-13gi-.out
 50 53 0 0 0
SMALL
GASTEIGER

@<TRIPOS>ATOM
      1 C           0.2202    0.3250   -2.4723 C.ar    1  LIG1        0.0157
      2 C           0.6348    0.8885   -1.2898 C.ar    1  LIG1        0.0256
      3 C          -0.3563    0.6167   -0.2966 C.ar    1  LIG1       -0.0106
      4 C          -1.3525   -0.0986   -0.9246 C.ar    1  LIG1        0.0680
      5 N          -0.9743   -0.2864   -2.2426 N.ar    1  LIG1       -0.3583
      6 H          -1.5749   -0.6736   -2.9520 H       1  LIG1        0.1654
      7 H           0.6933    0.3184   -3.4420 H       1  LIG1        0.0818
      8 S           2.1959    1.6862   -1.0527 S.3     1  LIG1       -0.1409
      9 H           1.7576    2.9557   -0.9545 H       1  LIG1        0.1072
     10 C          -0.2995    1.0076    1.1434 C.3     1  LIG1       -0.0366
     11 H          -0.9972    0.4132    1.7374 H       1  LIG1        0.0279
     12 H          -0.5649    2.0598    1.2852 H       1  LIG1        0.0279
     13 H           0.7086    0.8668    1.5422 H       1  LIG1        0.0279
     14 C          -2.5907   -0.6781   -0.4222 C.ar    1  LIG1        0.0772
     15 C          -3.6776   -0.1337    0.2390 C.ar    1  LIG1        0.0351
     16 C          -4.6276   -1.1711    0.4784 C.ar    1  LIG1       -0.0099
     17 C          -4.1004   -2.3233   -0.0644 C.ar    1  LIG1        0.0685
     18 N          -2.8651   -2.0103   -0.5937 N.ar    1  LIG1       -0.3508
     19 H          -2.2486   -2.6656   -1.0470 H       1  LIG1        0.1660
     20 S          -3.8247    1.5562    0.7407 S.3     1  LIG1       -0.1403
     21 H          -4.8443    1.8994   -0.0688 H       1  LIG1        0.1072
     22 C          -5.9327   -1.0286    1.1894 C.3     1  LIG1       -0.0366
     23 H          -6.3161   -2.0028    1.5005 H       1  LIG1        0.0279
     24 H          -6.6930   -0.5681    0.5504 H       1  LIG1        0.0279
     25 H          -5.8225   -0.3964    2.0743 H       1  LIG1        0.0279
     26 C          -4.5987   -3.6915   -0.0967 C.ar    1  LIG1        0.0772
     27 C          -5.7699   -4.2458   -0.5814 C.ar    1  LIG1        0.0351
     28 C          -5.7285   -5.6550   -0.3632 C.ar    1  LIG1       -0.0099
     29 C          -4.5159   -5.9268    0.2341 C.ar    1  LIG1        0.0685
     30 N          -3.8506   -4.7296    0.3973 N.ar    1  LIG1       -0.3508
     31 H          -2.9486   -4.6286    0.8344 H       1  LIG1        0.1660
     32 S          -7.1048   -3.3338   -1.2989 S.3     1  LIG1       -0.1403
     33 H          -7.0573   -3.8810   -2.5280 H       1  LIG1        0.1072
     34 C          -6.8005   -6.6355   -0.7070 C.3     1  LIG1       -0.0366
     35 H          -6.6575   -7.5739   -0.1668 H       1  LIG1        0.0279
     36 H          -6.8051   -6.8725   -1.7758 H       1  LIG1        0.0279
     37 H          -7.7855   -6.2334   -0.4552 H       1  LIG1        0.0279
     38 C          -3.9332   -7.1724    0.7141 C.ar    1  LIG1        0.0768
     39 C          -3.6780   -8.3813    0.0934 C.ar    1  LIG1        0.0344
     40 C          -3.0892   -9.2629    1.0526 C.ar    1  LIG1       -0.0193
     41 C          -2.9937   -8.5540    2.2210 C.ar    1  LIG1        0.0062
     42 N          -3.4953   -7.2950    2.0110 N.ar    1  LIG1       -0.3584
     43 H          -3.6812   -6.6167    2.7317 H       1  LIG1        0.1654
     44 H          -2.6078   -8.8504    3.1849 H       1  LIG1        0.0810
     45 S          -4.0522   -8.7662   -1.5921 S.3     1  LIG1       -0.1403
     46 H          -2.7882   -8.8966   -2.0383 H       1  LIG1        0.1072
     47 C          -2.6454  -10.6697    0.8136 C.3     1  LIG1       -0.0372
     48 H          -2.3371  -11.1468    1.7467 H       1  LIG1        0.0278
     49 H          -1.7979  -10.7169    0.1218 H       1  LIG1        0.0278
     50 H          -3.4497  -11.2660    0.3737 H       1  LIG1        0.0278
@<TRIPOS>BOND
     1     7     1    1
     2     6     5    1
     3    33    32    1
     4     1     5   ar
     5     1     2   ar
     6     5     4   ar
     7    46    45    1
     8    36    34    1
     9    45    39    1
    10    32    27    1
    11     2     8    1
    12     2     3   ar
    13     8     9    1
    14    19    18    1
    15     4    14    1
    16     4     3   ar
    17    34    37    1
    18    34    28    1
    19    34    35    1
    20    18    14   ar
    21    18    17   ar
    22    27    28   ar
    23    27    26   ar
    24    14    15   ar
    25    28    29   ar
    26     3    10    1
    27    26    17    1
    28    26    30   ar
    29    21    20    1
    30    17    16   ar
    31    39    38   ar
    32    39    40   ar
    33    49    47    1
    34    29    30   ar
    35    29    38    1
    36    15    16   ar
    37    15    20    1
    38    50    47    1
    39    30    31    1
    40    16    22    1
    41    24    22    1
    42    38    42   ar
    43    47    40    1
    44    47    48    1
    45    40    41   ar
    46    10    12    1
    47    10    13    1
    48    10    11    1
    49    22    23    1
    50    22    25    1
    51    42    41   ar
    52    42    43    1
    53    41    44    1
