@<TRIPOS>MOLECULE
mol_data/opt/cam/geoms/mol2/13gi13gi-13gi13gi.out
 50 53 0 0 0
SMALL
GASTEIGER

@<TRIPOS>ATOM
      1 C           0.2467    0.3121   -2.4426 C.ar    1  LIG1        0.0157
      2 C           0.6494    0.8810   -1.2587 C.ar    1  LIG1        0.0256
      3 C          -0.3518    0.6143   -0.2743 C.ar    1  LIG1       -0.0106
      4 C          -1.3419   -0.1036   -0.9091 C.ar    1  LIG1        0.0680
      5 N          -0.9503   -0.2979   -2.2222 N.ar    1  LIG1       -0.3583
      6 H          -1.5438   -0.6882   -2.9359 H       1  LIG1        0.1654
      7 H           0.7296    0.3007   -3.4074 H       1  LIG1        0.0818
      8 S           2.2084    1.6794   -1.0095 S.3     1  LIG1       -0.1409
      9 H           1.7695    2.9495   -0.9218 H       1  LIG1        0.1072
     10 C          -0.3096    1.0120    1.1642 C.3     1  LIG1       -0.0366
     11 H          -1.0136    0.4208    1.7540 H       1  LIG1        0.0279
     12 H          -0.5759    2.0650    1.2984 H       1  LIG1        0.0279
     13 H           0.6943    0.8728    1.5740 H       1  LIG1        0.0279
     14 C          -2.5853   -0.6803   -0.4166 C.ar    1  LIG1        0.0772
     15 C          -3.6787   -0.1324    0.2310 C.ar    1  LIG1        0.0351
     16 C          -4.6315   -1.1683    0.4656 C.ar    1  LIG1       -0.0099
     17 C          -4.0993   -2.3233   -0.0663 C.ar    1  LIG1        0.0685
     18 N          -2.8584   -2.0132   -0.5845 N.ar    1  LIG1       -0.3508
     19 H          -2.2377   -2.6709   -1.0283 H       1  LIG1        0.1660
     20 S          -3.8303    1.5598    0.7231 S.3     1  LIG1       -0.1403
     21 H          -4.8414    1.8995   -0.0985 H       1  LIG1        0.1072
     22 C          -5.9437   -1.0221    1.1625 C.3     1  LIG1       -0.0366
     23 H          -6.3306   -1.9947    1.4744 H       1  LIG1        0.0279
     24 H          -6.6973   -0.5644    0.5137 H       1  LIG1        0.0279
     25 H          -5.8423   -0.3856    2.0456 H       1  LIG1        0.0279
     26 C          -4.5976   -3.6915   -0.0972 C.ar    1  LIG1        0.0772
     27 C          -5.7641   -4.2478   -0.5911 C.ar    1  LIG1        0.0351
     28 C          -5.7254   -5.6559   -0.3657 C.ar    1  LIG1       -0.0099
     29 C          -4.5191   -5.9252    0.2451 C.ar    1  LIG1        0.0685
     30 N          -3.8550   -4.7274    0.4094 N.ar    1  LIG1       -0.3508
     31 H          -2.9575   -4.6247    0.8552 H       1  LIG1        0.1660
     32 S          -7.0913   -3.3388   -1.3265 S.3     1  LIG1       -0.1403
     33 H          -7.0315   -3.8918   -2.5524 H       1  LIG1        0.1072
     34 C          -6.7943   -6.6377   -0.7158 C.3     1  LIG1       -0.0366
     35 H          -6.6571   -7.5735   -0.1697 H       1  LIG1        0.0279
     36 H          -6.7881   -6.8798   -1.7834 H       1  LIG1        0.0279
     37 H          -7.7816   -6.2340   -0.4760 H       1  LIG1        0.0279
     38 C          -3.9418   -7.1687    0.7369 C.ar    1  LIG1        0.0768
     39 C          -3.6807   -8.3806    0.1246 C.ar    1  LIG1        0.0344
     40 C          -3.1020   -9.2579    1.0940 C.ar    1  LIG1       -0.0193
     41 C          -3.0181   -8.5434    2.2599 C.ar    1  LIG1        0.0062
     42 N          -3.5171   -7.2853    2.0388 N.ar    1  LIG1       -0.3584
     43 H          -3.7101   -6.6035    2.7544 H       1  LIG1        0.1654
     44 H          -2.6422   -8.8353    3.2291 H       1  LIG1        0.0810
     45 S          -4.0379   -8.7735   -1.5627 S.3     1  LIG1       -0.1403
     46 H          -2.7695   -8.9065   -1.9954 H       1  LIG1        0.1072
     47 C          -2.6563  -10.6659    0.8663 C.3     1  LIG1       -0.0372
     48 H          -2.3576  -11.1386    1.8047 H       1  LIG1        0.0278
     49 H          -1.8018  -10.7167    0.1832 H       1  LIG1        0.0278
     50 H          -3.4563  -11.2640    0.4211 H       1  LIG1        0.0278
@<TRIPOS>BOND
     1     7     1    1
     2     6     5    1
     3    33    32    1
     4     1     5   ar
     5     1     2   ar
     6     5     4   ar
     7    46    45    1
     8    36    34    1
     9    45    39    1
    10    32    27    1
    11     2     8    1
    12     2     3   ar
    13    19    18    1
    14     8     9    1
    15     4    14    1
    16     4     3   ar
    17    34    37    1
    18    34    28    1
    19    34    35    1
    20    27    28   ar
    21    27    26   ar
    22    18    14   ar
    23    18    17   ar
    24    14    15   ar
    25    28    29   ar
    26     3    10    1
    27    21    20    1
    28    26    17    1
    29    26    30   ar
    30    17    16   ar
    31    39    38   ar
    32    39    40   ar
    33    49    47    1
    34    15    16   ar
    35    15    20    1
    36    29    30   ar
    37    29    38    1
    38    30    31    1
    39    50    47    1
    40    16    22    1
    41    24    22    1
    42    38    42   ar
    43    47    40    1
    44    47    48    1
    45    40    41   ar
    46    22    23    1
    47    22    25    1
    48    10    12    1
    49    10    13    1
    50    10    11    1
    51    42    41   ar
    52    42    43    1
    53    41    44    1
