@<TRIPOS>MOLECULE
mol_data/opt/cam/geoms/mol2/13gi13gi-13gi.out
 38 40 0 0 0
SMALL
GASTEIGER

@<TRIPOS>ATOM
      1 C           0.8324   -0.0928   -1.4708 C.ar    1  LIG1        0.0157
      2 C           0.8071    0.8643   -0.4856 C.ar    1  LIG1        0.0256
      3 C          -0.4700    0.8105    0.1537 C.ar    1  LIG1       -0.0106
      4 C          -1.1846   -0.1799   -0.4843 C.ar    1  LIG1        0.0680
      5 N          -0.3683   -0.7346   -1.4546 N.ar    1  LIG1       -0.3583
      6 H          -0.6833   -1.3958   -2.1456 H       1  LIG1        0.1654
      7 H           1.6155   -0.3537   -2.1656 H       1  LIG1        0.0818
      8 S           2.1881    1.8735   -0.0338 S.3     1  LIG1       -0.1409
      9 H           1.7404    3.0491   -0.5143 H       1  LIG1        0.1072
     10 C          -0.9207    1.6456    1.3066 C.3     1  LIG1       -0.0366
     11 H          -1.7850    1.1960    1.8005 H       1  LIG1        0.0279
     12 H          -1.2144    2.6499    0.9857 H       1  LIG1        0.0279
     13 H          -0.1175    1.7573    2.0397 H       1  LIG1        0.0279
     14 C          -2.5229   -0.7070   -0.2557 C.ar    1  LIG1        0.0772
     15 C          -3.7694   -0.1076   -0.2151 C.ar    1  LIG1        0.0351
     16 C          -4.7485   -1.1152    0.0339 C.ar    1  LIG1       -0.0099
     17 C          -4.0709   -2.3128    0.1179 C.ar    1  LIG1        0.0685
     18 N          -2.7272   -2.0469   -0.0483 N.ar    1  LIG1       -0.3508
     19 H          -1.9945   -2.7370   -0.0111 H       1  LIG1        0.1660
     20 S          -4.0721    1.6259   -0.3930 S.3     1  LIG1       -0.1403
     21 H          -4.7787    1.5711   -1.5377 H       1  LIG1        0.1072
     22 C          -6.2184   -0.9017    0.1848 C.3     1  LIG1       -0.0366
     23 H          -6.6884   -1.7578    0.6737 H       1  LIG1        0.0279
     24 H          -6.7099   -0.7695   -0.7844 H       1  LIG1        0.0279
     25 H          -6.4179   -0.0061    0.7792 H       1  LIG1        0.0279
     26 C          -4.5325   -3.6678    0.3860 C.ar    1  LIG1        0.0768
     27 C          -5.4801   -4.4679   -0.2254 C.ar    1  LIG1        0.0344
     28 C          -5.5227   -5.7201    0.4635 C.ar    1  LIG1       -0.0193
     29 C          -4.5880   -5.6434    1.4621 C.ar    1  LIG1        0.0062
     30 N          -3.9896   -4.4105    1.4070 N.ar    1  LIG1       -0.3584
     31 H          -3.3743   -4.0319    2.1086 H       1  LIG1        0.1654
     32 H          -4.3048   -6.3717    2.2072 H       1  LIG1        0.0810
     33 S          -6.4838   -3.9964   -1.6034 S.3     1  LIG1       -0.1403
     34 H          -5.9679   -4.8480   -2.5103 H       1  LIG1        0.1072
     35 C          -6.3989   -6.8858    0.1374 C.3     1  LIG1       -0.0372
     36 H          -6.3051   -7.6695    0.8927 H       1  LIG1        0.0278
     37 H          -6.1445   -7.3276   -0.8319 H       1  LIG1        0.0278
     38 H          -7.4490   -6.5851    0.0846 H       1  LIG1        0.0278
@<TRIPOS>BOND
     1    34    33    1
     2     7     1    1
     3     6     5    1
     4    33    27    1
     5    21    20    1
     6     1     5   ar
     7     1     2   ar
     8     5     4   ar
     9    37    35    1
    10    24    22    1
    11     9     8    1
    12     2     8    1
    13     2     3   ar
    14     4    14    1
    15     4     3   ar
    16    20    15    1
    17    14    15   ar
    18    14    18   ar
    19    27    26   ar
    20    27    28   ar
    21    15    16   ar
    22    18    19    1
    23    18    17   ar
    24    16    17   ar
    25    16    22    1
    26    38    35    1
    27    17    26    1
    28    35    28    1
    29    35    36    1
    30     3    10    1
    31    22    23    1
    32    22    25    1
    33    26    30   ar
    34    28    29   ar
    35    12    10    1
    36    10    11    1
    37    10    13    1
    38    30    29   ar
    39    30    31    1
    40    29    32    1
