@<TRIPOS>MOLECULE
mol_data/opt/cam/geoms/mol2/13gl13gl-13gl13gl.out
 54 57 0 0 0
SMALL
GASTEIGER

@<TRIPOS>ATOM
      1 C           1.3617   -0.5006    0.0644 C.ar    1  LIG1        0.0191
      2 C           1.1087    0.7625   -0.4187 C.ar    1  LIG1        0.0645
      3 C          -0.3137    0.9222   -0.4346 C.ar    1  LIG1        0.1598
      4 C          -0.8736   -0.2443    0.0453 C.ar    1  LIG1        0.1074
      5 N           0.1730   -1.1079    0.3208 N.ar    1  LIG1       -0.3555
      6 H           0.0606   -1.9782    0.8139 H       1  LIG1        0.1655
      7 H           2.3069   -0.9942    0.2294 H       1  LIG1        0.0819
      8 S           2.3517    1.8416   -1.0652 S.3     1  LIG1       -0.1377
      9 H           2.5375    2.6160    0.0214 H       1  LIG1        0.1073
     10 O          -1.0501    1.9513   -0.9231 O.3     1  LIG1       -0.4918
     11 C          -0.7934    3.2350   -0.3640 C.3     1  LIG1        0.0789
     12 H          -1.5686    3.8949   -0.7541 H       1  LIG1        0.0660
     13 H          -0.8644    3.2030    0.7277 H       1  LIG1        0.0660
     14 H           0.1866    3.6114   -0.6658 H       1  LIG1        0.0660
     15 C          -2.2501   -0.6728    0.1797 C.ar    1  LIG1        0.0840
     16 C          -3.3844   -0.0205    0.6111 C.ar    1  LIG1        0.0741
     17 C          -4.4740   -0.9414    0.4985 C.ar    1  LIG1        0.1605
     18 C          -3.9775   -2.1385    0.0319 C.ar    1  LIG1        0.1079
     19 N          -2.6095   -1.9681   -0.1327 N.ar    1  LIG1       -0.3479
     20 H          -2.0837   -2.5247   -0.7896 H       1  LIG1        0.1661
     21 S          -3.4415    1.6143    1.2697 S.3     1  LIG1       -0.1370
     22 H          -4.1834    1.3076    2.3502 H       1  LIG1        0.1073
     23 O          -5.7493   -0.7439    0.9221 O.3     1  LIG1       -0.4918
     24 C          -6.4811    0.2556    0.2091 C.3     1  LIG1        0.0789
     25 H          -7.4805    0.2638    0.6444 H       1  LIG1        0.0660
     26 H          -6.0216    1.2406    0.3199 H       1  LIG1        0.0660
     27 H          -6.5486   -0.0022   -0.8509 H       1  LIG1        0.0660
     28 C          -4.5728   -3.4438   -0.1571 C.ar    1  LIG1        0.0840
     29 C          -5.8207   -3.8625   -0.5692 C.ar    1  LIG1        0.0741
     30 C          -5.8295   -5.2925   -0.5143 C.ar    1  LIG1        0.1605
     31 C          -4.5867   -5.7153   -0.1030 C.ar    1  LIG1        0.1079
     32 N          -3.8189   -4.5753    0.0848 N.ar    1  LIG1       -0.3479
     33 H          -3.0290   -4.5652    0.7120 H       1  LIG1        0.1661
     34 S          -7.1253   -2.8366   -1.1632 S.3     1  LIG1       -0.1370
     35 H          -7.4269   -3.6035   -2.2274 H       1  LIG1        0.1073
     36 O          -6.8275   -6.1108   -0.9396 O.3     1  LIG1       -0.4918
     37 C          -8.0260   -6.0611   -0.1628 C.3     1  LIG1        0.0789
     38 H          -8.7043   -6.7891   -0.6087 H       1  LIG1        0.0660
     39 H          -7.8233   -6.3404    0.8742 H       1  LIG1        0.0660
     40 H          -8.4798   -5.0674   -0.1935 H       1  LIG1        0.0660
     41 C          -3.9842   -7.0282    0.0198 C.ar    1  LIG1        0.0835
     42 C          -4.4346   -8.2320    0.5241 C.ar    1  LIG1        0.0734
     43 C          -3.3725   -9.1735    0.3779 C.ar    1  LIG1        0.1511
     44 C          -2.3085   -8.5300   -0.1955 C.ar    1  LIG1        0.0455
     45 N          -2.6850   -7.2262   -0.3981 N.ar    1  LIG1       -0.3555
     46 H          -2.1839   -6.5635   -0.9659 H       1  LIG1        0.1655
     47 H          -1.3262   -8.8952   -0.4490 H       1  LIG1        0.0845
     48 S          -6.0076   -8.5633    1.2455 S.3     1  LIG1       -0.1370
     49 H          -5.5376   -9.2990    2.2689 H       1  LIG1        0.1073
     50 O          -3.3877  -10.4643    0.8172 O.3     1  LIG1       -0.4925
     51 C          -4.0649  -11.3612   -0.0559 C.3     1  LIG1        0.0789
     52 H          -4.0292  -12.3439    0.4165 H       1  LIG1        0.0660
     53 H          -5.1083  -11.0640   -0.2014 H       1  LIG1        0.0660
     54 H          -3.5658  -11.4074   -1.0305 H       1  LIG1        0.0660
@<TRIPOS>BOND
     1    35    34    1
     2    34    29    1
     3     8     2    1
     4     8     9    1
     5    54    51    1
     6    46    45    1
     7    36    30    1
     8    36    37    1
     9    10     3    1
    10    10    11    1
    11    27    24    1
    12    20    19    1
    13    12    11    1
    14    14    11    1
    15    38    37    1
    16    29    30   ar
    17    29    28   ar
    18    30    31   ar
    19    47    44    1
    20     3     2   ar
    21     3     4   ar
    22     2     1   ar
    23    45    44   ar
    24    45    41   ar
    25    11    13    1
    26    53    51    1
    27    44    43   ar
    28    40    37    1
    29    37    39    1
    30    28    18    1
    31    28    32   ar
    32    19    18   ar
    33    19    15   ar
    34    31    41    1
    35    31    32   ar
    36    51    52    1
    37    51    50    1
    38    41    42   ar
    39    18    17   ar
    40     4    15    1
    41     4     5   ar
    42     1     7    1
    43     1     5   ar
    44    32    33    1
    45    15    16   ar
    46    24    26    1
    47    24    25    1
    48    24    23    1
    49     5     6    1
    50    43    42   ar
    51    43    50    1
    52    17    16   ar
    53    17    23    1
    54    42    48    1
    55    16    21    1
    56    48    49    1
    57    21    22    1
