@<TRIPOS>MOLECULE
mol_data/opt/cam/geoms/mol2/13gl13gl-13gl13gl-.out
 54 57 0 0 0
SMALL
GASTEIGER

@<TRIPOS>ATOM
      1 C           0.9725    0.1317   -2.0056 C.ar    1  LIG1        0.0191
      2 C           1.0726    0.9696   -0.9191 C.ar    1  LIG1        0.0645
      3 C          -0.1732    0.8886   -0.2191 C.ar    1  LIG1        0.1598
      4 C          -0.9869    0.0131   -0.9057 C.ar    1  LIG1        0.1074
      5 N          -0.2538   -0.4550   -1.9837 N.ar    1  LIG1       -0.3555
      6 H          -0.6497   -0.9913   -2.7387 H       1  LIG1        0.1655
      7 H           1.6971   -0.0813   -2.7761 H       1  LIG1        0.0819
      8 S           2.5582    1.7988   -0.4369 S.3     1  LIG1       -0.1377
      9 H           2.3065    3.0056   -0.9802 H       1  LIG1        0.1073
     10 O          -0.5215    1.4508    0.9660 O.3     1  LIG1       -0.4918
     11 C          -0.4638    2.8717    1.0299 C.3     1  LIG1        0.0789
     12 H          -0.9175    3.1506    1.9814 H       1  LIG1        0.0660
     13 H           0.5681    3.2301    1.0042 H       1  LIG1        0.0660
     14 H          -1.0374    3.3205    0.2130 H       1  LIG1        0.0660
     15 C          -2.3154   -0.4929   -0.6169 C.ar    1  LIG1        0.0840
     16 C          -3.4939    0.1422   -0.2780 C.ar    1  LIG1        0.0741
     17 C          -4.4921   -0.8613   -0.1481 C.ar    1  LIG1        0.1605
     18 C          -3.9185   -2.0856   -0.4146 C.ar    1  LIG1        0.1079
     19 N          -2.5891   -1.8408   -0.6853 N.ar    1  LIG1       -0.3479
     20 H          -1.9126   -2.5431   -0.9362 H       1  LIG1        0.1661
     21 S          -3.7230    1.8723   -0.0324 S.3     1  LIG1       -0.1370
     22 H          -4.8921    1.9531   -0.6924 H       1  LIG1        0.1073
     23 O          -5.8067   -0.6496    0.1379 O.3     1  LIG1       -0.4918
     24 C          -6.0847   -0.5127    1.5278 C.3     1  LIG1        0.0789
     25 H          -7.1565   -0.3311    1.6136 H       1  LIG1        0.0660
     26 H          -5.8271   -1.4303    2.0681 H       1  LIG1        0.0660
     27 H          -5.5334    0.3290    1.9590 H       1  LIG1        0.0660
     28 C          -4.4854   -3.4181   -0.4126 C.ar    1  LIG1        0.0840
     29 C          -5.6749   -3.9026   -0.9208 C.ar    1  LIG1        0.0741
     30 C          -5.6985   -5.3008   -0.6680 C.ar    1  LIG1        0.1605
     31 C          -4.5331   -5.6516   -0.0208 C.ar    1  LIG1        0.1079
     32 N          -3.8113   -4.4893    0.1368 N.ar    1  LIG1       -0.3479
     33 H          -2.9087   -4.4323    0.5788 H       1  LIG1        0.1661
     34 S          -6.9339   -2.9862   -1.7487 S.3     1  LIG1       -0.1370
     35 H          -7.3089   -4.0158   -2.5298 H       1  LIG1        0.1073
     36 O          -6.6862   -6.1583   -1.0517 O.3     1  LIG1       -0.4918
     37 C          -7.7618   -6.2549   -0.1235 C.3     1  LIG1        0.0789
     38 H          -8.4851   -6.9468   -0.5563 H       1  LIG1        0.0660
     39 H          -7.4124   -6.6486    0.8370 H       1  LIG1        0.0660
     40 H          -8.2345   -5.2799    0.0340 H       1  LIG1        0.0660
     41 C          -4.0684   -6.9333    0.4678 C.ar    1  LIG1        0.0835
     42 C          -4.1195   -8.1935   -0.0920 C.ar    1  LIG1        0.0734
     43 C          -3.4999   -9.0857    0.8328 C.ar    1  LIG1        0.1511
     44 C          -3.0838   -8.3583    1.9164 C.ar    1  LIG1        0.0455
     45 N          -3.4217   -7.0493    1.6823 N.ar    1  LIG1       -0.3555
     46 H          -3.4152   -6.3260    2.3822 H       1  LIG1        0.1655
     47 H          -2.5640   -8.6705    2.8079 H       1  LIG1        0.0845
     48 S          -4.7663   -8.6341   -1.6729 S.3     1  LIG1       -0.1370
     49 H          -3.8835   -9.6310   -1.8693 H       1  LIG1        0.1073
     50 O          -3.2827  -10.4164    0.6239 O.3     1  LIG1       -0.4925
     51 C          -4.4162  -11.2326    0.8949 C.3     1  LIG1        0.0789
     52 H          -4.1261  -12.2584    0.6635 H       1  LIG1        0.0660
     53 H          -4.7024  -11.1648    1.9507 H       1  LIG1        0.0660
     54 H          -5.2712  -10.9466    0.2736 H       1  LIG1        0.0660
@<TRIPOS>BOND
     1     7     1    1
     2     6     5    1
     3    35    34    1
     4     1     5   ar
     5     1     2   ar
     6     5     4   ar
     7    49    48    1
     8    34    29    1
     9    48    42    1
    10    36    30    1
    11    36    37    1
    12     9     8    1
    13    20    19    1
    14    29    30   ar
    15    29    28   ar
    16     2     8    1
    17     2     3   ar
    18     4    15    1
    19     4     3   ar
    20    22    21    1
    21    19    15   ar
    22    19    18   ar
    23    30    31   ar
    24    15    16   ar
    25    38    37    1
    26    18    28    1
    27    18    17   ar
    28    28    32   ar
    29    16    17   ar
    30    16    21    1
    31     3    10    1
    32    17    23    1
    33    37    40    1
    34    37    39    1
    35    42    41   ar
    36    42    43   ar
    37    31    32   ar
    38    31    41    1
    39    32    33    1
    40    23    24    1
    41    14    11    1
    42    54    51    1
    43    41    45   ar
    44    50    43    1
    45    50    51    1
    46    52    51    1
    47    43    44   ar
    48    51    53    1
    49    10    11    1
    50    13    11    1
    51    11    12    1
    52    24    25    1
    53    24    27    1
    54    24    26    1
    55    45    44   ar
    56    45    46    1
    57    44    47    1
