@<TRIPOS>MOLECULE
mol_data/opt/cam/geoms/mol2/13gl13gl.out
 28 29 0 0 0
SMALL
GASTEIGER

@<TRIPOS>ATOM
      1 C           1.2792   -0.4653    0.2974 C.ar    1  LIG1        0.0191
      2 C           1.0521    0.8095   -0.1672 C.ar    1  LIG1        0.0645
      3 C          -0.3641    0.9462   -0.3246 C.ar    1  LIG1        0.1598
      4 C          -0.9475   -0.2436    0.0558 C.ar    1  LIG1        0.1074
      5 N           0.0814   -1.0986    0.4117 N.ar    1  LIG1       -0.3555
      6 H          -0.0635   -1.9896    0.8576 H       1  LIG1        0.1655
      7 H           2.2115   -0.9507    0.5409 H       1  LIG1        0.0819
      8 S           2.3298    1.9346   -0.6447 S.3     1  LIG1       -0.1377
      9 H           2.3839    2.6755    0.4792 H       1  LIG1        0.1073
     10 O          -1.0645    1.9836   -0.8499 O.3     1  LIG1       -0.4918
     11 C          -0.9154    3.2387   -0.1959 C.3     1  LIG1        0.0789
     12 H          -1.6544    3.9034   -0.6442 H       1  LIG1        0.0660
     13 H          -1.1197    3.1451    0.8753 H       1  LIG1        0.0660
     14 H           0.0834    3.6535   -0.3519 H       1  LIG1        0.0660
     15 C          -2.3263   -0.6942    0.0393 C.ar    1  LIG1        0.0835
     16 C          -3.5014   -0.0991    0.4493 C.ar    1  LIG1        0.0734
     17 C          -4.5543   -1.0285    0.1982 C.ar    1  LIG1        0.1511
     18 C          -4.0028   -2.1588   -0.3439 C.ar    1  LIG1        0.0455
     19 N          -2.6487   -1.9509   -0.4270 N.ar    1  LIG1       -0.3555
     20 H          -2.0126   -2.5258   -0.9545 H       1  LIG1        0.1655
     21 H          -4.4659   -3.0830   -0.6501 H       1  LIG1        0.0845
     22 S          -3.6787    1.4999    1.1688 S.3     1  LIG1       -0.1370
     23 H          -4.5552    1.1285    2.1194 H       1  LIG1        0.1073
     24 O          -5.8665   -0.8529    0.5257 O.3     1  LIG1       -0.4925
     25 C          -6.5897   -0.0574   -0.4066 C.3     1  LIG1        0.0789
     26 H          -7.6068    0.0284   -0.0217 H       1  LIG1        0.0660
     27 H          -6.1510    0.9408   -0.5039 H       1  LIG1        0.0660
     28 H          -6.6127   -0.5363   -1.3923 H       1  LIG1        0.0660
@<TRIPOS>BOND
     1    28    25    1
     2    20    19    1
     3    10     3    1
     4    10    11    1
     5    21    18    1
     6     8     2    1
     7     8     9    1
     8    12    11    1
     9    27    25    1
    10    19    18   ar
    11    19    15   ar
    12    25    26    1
    13    25    24    1
    14    14    11    1
    15    18    17   ar
    16     3     2   ar
    17     3     4   ar
    18    11    13    1
    19     2     1   ar
    20    15     4    1
    21    15    16   ar
    22     4     5   ar
    23    17    16   ar
    24    17    24    1
    25     1     5   ar
    26     1     7    1
    27     5     6    1
    28    16    22    1
    29    22    23    1
