@<TRIPOS>MOLECULE
mol_data/opt/cam/geoms/mol2/13gl13gl13gl-.out
 41 43 0 0 0
SMALL
GASTEIGER

@<TRIPOS>ATOM
      1 C           1.3305   -0.3479    0.8675 C.ar    1  LIG1        0.0191
      2 C           1.1672    0.7973    0.1229 C.ar    1  LIG1        0.0645
      3 C          -0.2267    0.8912   -0.1897 C.ar    1  LIG1        0.1598
      4 C          -0.8608   -0.1921    0.3796 C.ar    1  LIG1        0.1074
      5 N           0.1182   -0.9488    1.0021 N.ar    1  LIG1       -0.3555
      6 H          -0.0800   -1.7149    1.6249 H       1  LIG1        0.1655
      7 H           2.2290   -0.7651    1.2951 H       1  LIG1        0.0819
      8 S           2.5015    1.7986   -0.4636 S.3     1  LIG1       -0.1377
      9 H           2.4664    2.7623    0.4772 H       1  LIG1        0.1073
     10 O          -0.8628    1.7875   -0.9859 O.3     1  LIG1       -0.4918
     11 C          -0.7470    3.1561   -0.6127 C.3     1  LIG1        0.0789
     12 H          -1.4356    3.7046   -1.2560 H       1  LIG1        0.0660
     13 H          -1.0394    3.3003    0.4321 H       1  LIG1        0.0660
     14 H           0.2681    3.5278   -0.7718 H       1  LIG1        0.0660
     15 C          -2.2414   -0.6340    0.3302 C.ar    1  LIG1        0.0840
     16 C          -3.4330    0.0281    0.5497 C.ar    1  LIG1        0.0741
     17 C          -4.4785   -0.9229    0.3999 C.ar    1  LIG1        0.1605
     18 C          -3.9175   -2.1452    0.0999 C.ar    1  LIG1        0.1079
     19 N          -2.5552   -1.9460    0.0509 N.ar    1  LIG1       -0.3479
     20 H          -1.8770   -2.6627   -0.1489 H       1  LIG1        0.1661
     21 S          -3.6359    1.7371    0.9282 S.3     1  LIG1       -0.1370
     22 H          -4.6142    1.5586    1.8335 H       1  LIG1        0.1073
     23 O          -5.8074   -0.6788    0.5757 O.3     1  LIG1       -0.4918
     24 C          -6.4619   -0.1750   -0.5845 C.3     1  LIG1        0.0789
     25 H          -7.5006    0.0016   -0.3034 H       1  LIG1        0.0660
     26 H          -6.0064    0.7632   -0.9175 H       1  LIG1        0.0660
     27 H          -6.4253   -0.9060   -1.3995 H       1  LIG1        0.0660
     28 C          -4.5288   -3.4309   -0.1672 C.ar    1  LIG1        0.0835
     29 C          -5.5730   -4.0893    0.4490 C.ar    1  LIG1        0.0734
     30 C          -5.7438   -5.3304   -0.2335 C.ar    1  LIG1        0.1511
     31 C          -4.8081   -5.4026   -1.2313 C.ar    1  LIG1        0.0455
     32 N          -4.0655   -4.2502   -1.1773 N.ar    1  LIG1       -0.3555
     33 H          -3.4417   -3.9398   -1.9039 H       1  LIG1        0.1655
     34 H          -4.6103   -6.1850   -1.9463 H       1  LIG1        0.0845
     35 S          -6.4987   -3.5450    1.8485 S.3     1  LIG1       -0.1370
     36 H          -6.6873   -4.7852    2.3364 H       1  LIG1        0.1073
     37 O          -6.6291   -6.3093    0.1130 O.3     1  LIG1       -0.4925
     38 C          -7.9490   -6.0863   -0.3688 C.3     1  LIG1        0.0789
     39 H          -8.5587   -6.9155   -0.0071 H       1  LIG1        0.0660
     40 H          -8.3571   -5.1425    0.0076 H       1  LIG1        0.0660
     41 H          -7.9673   -6.0722   -1.4646 H       1  LIG1        0.0660
@<TRIPOS>BOND
     1    34    31    1
     2    33    32    1
     3    41    38    1
     4    27    24    1
     5    12    11    1
     6    31    32   ar
     7    31    30   ar
     8    32    28   ar
     9    10    11    1
    10    10     3    1
    11    26    24    1
    12    14    11    1
    13    11    13    1
    14    24    25    1
    15    24    23    1
    16     8     2    1
    17     8     9    1
    18    38    39    1
    19    38    40    1
    20    38    37    1
    21    30    37    1
    22    30    29   ar
    23     3     2   ar
    24     3     4   ar
    25    28    18    1
    26    28    29   ar
    27    20    19    1
    28    19    18   ar
    29    19    15   ar
    30    18    17   ar
    31     2     1   ar
    32    15     4    1
    33    15    16   ar
    34     4     5   ar
    35    17    16   ar
    36    17    23    1
    37    29    35    1
    38    16    21    1
    39     1     5   ar
    40     1     7    1
    41    21    22    1
    42     5     6    1
    43    35    36    1
