@<TRIPOS>MOLECULE
mol_data/opt/cam/geoms/mol2/13gl13gl-13gl-13gl.out
 54 57 0 0 0
SMALL
GASTEIGER

@<TRIPOS>ATOM
      1 C           1.3863   -0.4431    0.3328 C.ar    1  LIG1        0.0191
      2 C           1.0893    0.8288    0.7659 C.ar    1  LIG1        0.0645
      3 C          -0.3302    0.9795    0.6628 C.ar    1  LIG1        0.1598
      4 C          -0.8439   -0.2004    0.1635 C.ar    1  LIG1        0.1074
      5 N           0.2256   -1.0620   -0.0083 N.ar    1  LIG1       -0.3555
      6 H           0.1564   -1.9516   -0.4737 H       1  LIG1        0.1655
      7 H           2.3437   -0.9350    0.2585 H       1  LIG1        0.0819
      8 S           2.2728    1.9275    1.4866 S.3     1  LIG1       -0.1377
      9 H           2.5352    2.6868    0.4051 H       1  LIG1        0.1073
     10 O          -1.1120    2.0120    1.0666 O.3     1  LIG1       -0.4918
     11 C          -0.8053    3.2922    0.5257 C.3     1  LIG1        0.0789
     12 H          -1.6269    3.9473    0.8160 H       1  LIG1        0.0660
     13 H           0.1299    3.6823    0.9334 H       1  LIG1        0.0660
     14 H          -0.7496    3.2491   -0.5667 H       1  LIG1        0.0660
     15 C          -2.2035   -0.6370   -0.0730 C.ar    1  LIG1        0.0840
     16 C          -3.3093    0.0145   -0.5716 C.ar    1  LIG1        0.0741
     17 C          -4.3995   -0.9134   -0.5411 C.ar    1  LIG1        0.1605
     18 C          -3.9301   -2.1116   -0.0568 C.ar    1  LIG1        0.1079
     19 N          -2.5747   -1.9401    0.2001 N.ar    1  LIG1       -0.3479
     20 H          -2.1059   -2.4836    0.9104 H       1  LIG1        0.1661
     21 S          -3.3392    1.6541   -1.2195 S.3     1  LIG1       -0.1370
     22 H          -4.0622    1.3551   -2.3149 H       1  LIG1        0.1073
     23 O          -5.6454   -0.7128   -1.0445 O.3     1  LIG1       -0.4918
     24 C          -6.4330    0.2535   -0.3450 C.3     1  LIG1        0.0789
     25 H          -7.3982    0.2790   -0.8517 H       1  LIG1        0.0660
     26 H          -6.5760   -0.0490    0.6954 H       1  LIG1        0.0660
     27 H          -5.9720    1.2437   -0.3797 H       1  LIG1        0.0660
     28 C          -4.5385   -3.4200    0.0829 C.ar    1  LIG1        0.0840
     29 C          -5.7583   -3.8494    0.5707 C.ar    1  LIG1        0.0741
     30 C          -5.7667   -5.2688    0.4954 C.ar    1  LIG1        0.1605
     31 C          -4.5617   -5.6875   -0.0252 C.ar    1  LIG1        0.1079
     32 N          -3.8337   -4.5468   -0.2808 N.ar    1  LIG1       -0.3479
     33 H          -2.8983   -4.5301   -0.6520 H       1  LIG1        0.1661
     34 S          -7.0779   -2.8511    1.1750 S.3     1  LIG1       -0.1370
     35 H          -7.3886   -3.6529    2.2090 H       1  LIG1        0.1073
     36 O          -6.7757   -6.0812    0.9169 O.3     1  LIG1       -0.4918
     37 C          -7.7996   -6.2850   -0.0519 C.3     1  LIG1        0.0789
     38 H          -8.5456   -6.9287    0.4153 H       1  LIG1        0.0660
     39 H          -8.2622   -5.3361   -0.3415 H       1  LIG1        0.0660
     40 H          -7.3986   -6.7809   -0.9426 H       1  LIG1        0.0660
     41 C          -4.0650   -7.0150   -0.3226 C.ar    1  LIG1        0.0835
     42 C          -4.1411   -8.1959    0.3865 C.ar    1  LIG1        0.0734
     43 C          -3.4707   -9.1901   -0.3868 C.ar    1  LIG1        0.1511
     44 C          -3.0012   -8.5990   -1.5297 C.ar    1  LIG1        0.0455
     45 N          -3.3545   -7.2739   -1.4779 N.ar    1  LIG1       -0.3555
     46 H          -3.3229   -6.6450   -2.2633 H       1  LIG1        0.1655
     47 H          -2.4352   -9.0149   -2.3478 H       1  LIG1        0.0845
     48 S          -4.8728   -8.4397    1.9729 S.3     1  LIG1       -0.1370
     49 H          -3.9866   -9.3786    2.3533 H       1  LIG1        0.1073
     50 O          -3.2593  -10.4824   -0.0034 O.3     1  LIG1       -0.4925
     51 C          -4.3755  -11.3365   -0.2243 C.3     1  LIG1        0.0789
     52 H          -4.0937  -12.3227    0.1472 H       1  LIG1        0.0660
     53 H          -5.2608  -10.9833    0.3145 H       1  LIG1        0.0660
     54 H          -4.6101  -11.4035   -1.2929 H       1  LIG1        0.0660
@<TRIPOS>BOND
     1    47    44    1
     2    22    21    1
     3    46    45    1
     4    44    45   ar
     5    44    43   ar
     6    45    41   ar
     7    54    51    1
     8    21    16    1
     9    23    17    1
    10    23    24    1
    11    40    37    1
    12    25    24    1
    13    33    32    1
    14    16    17   ar
    15    16    15   ar
    16    14    11    1
    17    17    18   ar
    18     6     5    1
    19    43    50    1
    20    43    42   ar
    21    27    24    1
    22    24    26    1
    23    39    37    1
    24    41    31    1
    25    41    42   ar
    26    32    31   ar
    27    32    28   ar
    28    51    50    1
    29    51    52    1
    30    51    53    1
    31    15     4    1
    32    15    19   ar
    33    18    28    1
    34    18    19   ar
    35    37    38    1
    36    37    36    1
    37    31    30   ar
    38     5     4   ar
    39     5     1   ar
    40    28    29   ar
    41     4     3   ar
    42    19    20    1
    43     7     1    1
    44     1     2   ar
    45    42    48    1
    46     9     8    1
    47    30    29   ar
    48    30    36    1
    49    11    12    1
    50    11    13    1
    51    11    10    1
    52    29    34    1
    53     3     2   ar
    54     3    10    1
    55     2     8    1
    56    34    35    1
    57    48    49    1
