@<TRIPOS>MOLECULE
mol_data/opt/cam/geoms/mol2/13gl13gl13gl-13gl-.out
 54 57 0 0 0
SMALL
GASTEIGER

@<TRIPOS>ATOM
      1 C           1.1037    0.0183    1.4944 C.ar    1  LIG1        0.0191
      2 C           1.1018    0.8161    0.3737 C.ar    1  LIG1        0.0645
      3 C          -0.2150    0.7431   -0.1830 C.ar    1  LIG1        0.1598
      4 C          -0.9669   -0.0878    0.6195 C.ar    1  LIG1        0.1074
      5 N          -0.1299   -0.5382    1.6271 N.ar    1  LIG1       -0.3555
      6 H          -0.4540   -1.0357    2.4405 H       1  LIG1        0.1655
      7 H           1.9040   -0.1863    2.1886 H       1  LIG1        0.0819
      8 S           2.5428    1.5907   -0.2973 S.3     1  LIG1       -0.1377
      9 H           2.3746    2.8228    0.2211 H       1  LIG1        0.1073
     10 O          -0.6786    1.2741   -1.3425 O.3     1  LIG1       -0.4918
     11 C          -0.6023    2.6905   -1.4617 C.3     1  LIG1        0.0789
     12 H          -1.1511    2.9479   -2.3680 H       1  LIG1        0.0660
     13 H          -1.0759    3.1782   -0.6040 H       1  LIG1        0.0660
     14 H           0.4326    3.0273   -1.5596 H       1  LIG1        0.0660
     15 C          -2.3308   -0.5670    0.4998 C.ar    1  LIG1        0.0840
     16 C          -3.5260    0.0894    0.2797 C.ar    1  LIG1        0.0741
     17 C          -4.5558   -0.8897    0.3000 C.ar    1  LIG1        0.1605
     18 C          -3.9823   -2.1208    0.5390 C.ar    1  LIG1        0.1079
     19 N          -2.6261   -1.9040    0.6465 N.ar    1  LIG1       -0.3479
     20 H          -1.9409   -2.6242    0.8041 H       1  LIG1        0.1661
     21 S          -3.7429    1.8169    0.0079 S.3     1  LIG1       -0.1370
     22 H          -4.8391    1.9408    0.7771 H       1  LIG1        0.1073
     23 O          -5.8887   -0.6510    0.1572 O.3     1  LIG1       -0.4918
     24 C          -6.3201   -0.5569   -1.1978 C.3     1  LIG1        0.0789
     25 H          -7.3902   -0.3502   -1.1685 H       1  LIG1        0.0660
     26 H          -5.8026    0.2540   -1.7199 H       1  LIG1        0.0660
     27 H          -6.1462   -1.5000   -1.7270 H       1  LIG1        0.0660
     28 C          -4.5736   -3.4374    0.6303 C.ar    1  LIG1        0.0840
     29 C          -5.7497   -3.8643    1.2069 C.ar    1  LIG1        0.0741
     30 C          -5.8573   -5.2694    0.9554 C.ar    1  LIG1        0.1605
     31 C          -4.7373   -5.6702    0.2625 C.ar    1  LIG1        0.1079
     32 N          -3.9438   -4.5441    0.0938 N.ar    1  LIG1       -0.3479
     33 H          -3.2920   -4.4743   -0.6735 H       1  LIG1        0.1661
     34 S          -6.8447   -2.8794    2.1799 S.3     1  LIG1       -0.1370
     35 H          -7.0925   -3.8457    3.0841 H       1  LIG1        0.1073
     36 O          -6.8128   -6.1033    1.4442 O.3     1  LIG1       -0.4918
     37 C          -8.1260   -5.8912    0.9223 C.3     1  LIG1        0.0789
     38 H          -8.7628   -6.6391    1.3953 H       1  LIG1        0.0660
     39 H          -8.4928   -4.8897    1.1615 H       1  LIG1        0.0660
     40 H          -8.1367   -6.0380   -0.1607 H       1  LIG1        0.0660
     41 C          -4.2493   -6.9664   -0.1648 C.ar    1  LIG1        0.0835
     42 C          -4.8683   -8.0826   -0.6903 C.ar    1  LIG1        0.0734
     43 C          -3.8524   -9.0550   -0.9183 C.ar    1  LIG1        0.1511
     44 C          -2.6470   -8.5194   -0.5425 C.ar    1  LIG1        0.0455
     45 N          -2.9002   -7.2367   -0.1019 N.ar    1  LIG1       -0.3555
     46 H          -2.2651   -6.6985    0.4638 H       1  LIG1        0.1655
     47 H          -1.6489   -8.9238   -0.5646 H       1  LIG1        0.0845
     48 S          -6.5814   -8.3056   -1.0279 S.3     1  LIG1       -0.1370
     49 H          -6.4095   -8.9768   -2.1801 H       1  LIG1        0.1073
     50 O          -4.1335  -10.2576   -1.4719 O.3     1  LIG1       -0.4925
     51 C          -3.0249  -11.1115   -1.6482 C.3     1  LIG1        0.0789
     52 H          -3.4024  -12.0329   -2.0908 H       1  LIG1        0.0660
     53 H          -2.2816  -10.6626   -2.3193 H       1  LIG1        0.0660
     54 H          -2.5451  -11.3394   -0.6883 H       1  LIG1        0.0660
@<TRIPOS>BOND
     1    12    11    1
     2    53    51    1
     3    49    48    1
     4    52    51    1
     5    27    24    1
     6    26    24    1
     7    51    50    1
     8    51    54    1
     9    14    11    1
    10    50    43    1
    11    11    10    1
    12    11    13    1
    13    10     3    1
    14    24    25    1
    15    24    23    1
    16    48    42    1
    17    43    42   ar
    18    43    44   ar
    19    42    41   ar
    20    33    32    1
    21    47    44    1
    22    44    45   ar
    23     8     9    1
    24     8     2    1
    25     3     2   ar
    26     3     4   ar
    27    41    45   ar
    28    41    31    1
    29    40    37    1
    30    45    46    1
    31    21    16    1
    32    21    22    1
    33    32    31   ar
    34    32    28   ar
    35    23    17    1
    36    31    30   ar
    37    16    17   ar
    38    16    15   ar
    39    17    18   ar
    40     2     1   ar
    41    15     4    1
    42    15    19   ar
    43    18    28    1
    44    18    19   ar
    45     4     5   ar
    46    28    29   ar
    47    19    20    1
    48    37    39    1
    49    37    38    1
    50    37    36    1
    51    30    29   ar
    52    30    36    1
    53    29    34    1
    54     1     5   ar
    55     1     7    1
    56     5     6    1
    57    34    35    1
