@<TRIPOS>MOLECULE
mol_data/opt/cam/geoms/mol2/13gl13gl13gl13gl-.out
 54 57 0 0 0
SMALL
GASTEIGER

@<TRIPOS>ATOM
      1 C           1.3510   -0.4844    0.0926 C.ar    1  LIG1        0.0191
      2 C           1.0988    0.7794   -0.3891 C.ar    1  LIG1        0.0645
      3 C          -0.3239    0.9344   -0.4195 C.ar    1  LIG1        0.1598
      4 C          -0.8849   -0.2355    0.0506 C.ar    1  LIG1        0.1074
      5 N           0.1616   -1.0965    0.3343 N.ar    1  LIG1       -0.3555
      6 H           0.0469   -1.9688    0.8233 H       1  LIG1        0.1655
      7 H           2.2960   -0.9753    0.2660 H       1  LIG1        0.0819
      8 S           2.3449    1.8649   -1.0187 S.3     1  LIG1       -0.1377
      9 H           2.5165    2.6364    0.0723 H       1  LIG1        0.1073
     10 O          -1.0585    1.9627   -0.9124 O.3     1  LIG1       -0.4918
     11 C          -0.8122    3.2453   -0.3463 C.3     1  LIG1        0.0789
     12 H          -1.5854    3.9040   -0.7425 H       1  LIG1        0.0660
     13 H          -0.8947    3.2095    0.7444 H       1  LIG1        0.0660
     14 H           0.1697    3.6261   -0.6365 H       1  LIG1        0.0660
     15 C          -2.2612   -0.6691    0.1689 C.ar    1  LIG1        0.0840
     16 C          -3.4023   -0.0221    0.5904 C.ar    1  LIG1        0.0741
     17 C          -4.4876   -0.9463    0.4632 C.ar    1  LIG1        0.1605
     18 C          -3.9820   -2.1401   -0.0021 C.ar    1  LIG1        0.1079
     19 N          -2.6129   -1.9645   -0.1516 N.ar    1  LIG1       -0.3479
     20 H          -2.0783   -2.5172   -0.8047 H       1  LIG1        0.1661
     21 S          -3.4720    1.6103    1.2537 S.3     1  LIG1       -0.1370
     22 H          -4.2242    1.2975    2.3253 H       1  LIG1        0.1073
     23 O          -5.7679   -0.7544    0.8738 O.3     1  LIG1       -0.4918
     24 C          -6.4955    0.2449    0.1564 C.3     1  LIG1        0.0789
     25 H          -7.4995    0.2483    0.5811 H       1  LIG1        0.0660
     26 H          -6.0405    1.2311    0.2753 H       1  LIG1        0.0660
     27 H          -6.5509   -0.0095   -0.9051 H       1  LIG1        0.0660
     28 C          -4.5708   -3.4468   -0.2017 C.ar    1  LIG1        0.0840
     29 C          -5.8129   -3.8683   -0.6284 C.ar    1  LIG1        0.0741
     30 C          -5.8174   -5.2984   -0.5784 C.ar    1  LIG1        0.1605
     31 C          -4.5776   -5.7184   -0.1553 C.ar    1  LIG1        0.1079
     32 N          -3.8158   -4.5765    0.0445 N.ar    1  LIG1       -0.3479
     33 H          -3.0326   -4.5659    0.6801 H       1  LIG1        0.1661
     34 S          -7.1146   -2.8448   -1.2329 S.3     1  LIG1       -0.1370
     35 H          -7.4022   -3.6091   -2.3027 H       1  LIG1        0.1073
     36 O          -6.8080   -6.1187   -1.0169 O.3     1  LIG1       -0.4918
     37 C          -8.0149   -6.0756   -0.2528 C.3     1  LIG1        0.0789
     38 H          -8.6859   -6.8044   -0.7083 H       1  LIG1        0.0660
     39 H          -7.8222   -6.3576    0.7854 H       1  LIG1        0.0660
     40 H          -8.4717   -5.0833   -0.2850 H       1  LIG1        0.0660
     41 C          -3.9720   -7.0297   -0.0303 C.ar    1  LIG1        0.0835
     42 C          -4.4236   -8.2367    0.4651 C.ar    1  LIG1        0.0734
     43 C          -3.3568   -9.1742    0.3272 C.ar    1  LIG1        0.1511
     44 C          -2.2890   -8.5251   -0.2328 C.ar    1  LIG1        0.0455
     45 N          -2.6678   -7.2220   -0.4350 N.ar    1  LIG1       -0.3555
     46 H          -2.1629   -6.5557   -0.9953 H       1  LIG1        0.1655
     47 H          -1.3029   -8.8863   -0.4770 H       1  LIG1        0.0845
     48 S          -6.0031   -8.5757    1.1686 S.3     1  LIG1       -0.1370
     49 H          -5.5415   -9.3132    2.1946 H       1  LIG1        0.1073
     50 O          -3.3724  -10.4664    0.7621 O.3     1  LIG1       -0.4925
     51 C          -4.0372  -11.3627   -0.1211 C.3     1  LIG1        0.0789
     52 H          -4.0031  -12.3468    0.3484 H       1  LIG1        0.0660
     53 H          -5.0800  -11.0686   -0.2767 H       1  LIG1        0.0660
     54 H          -3.5276  -11.4040   -1.0906 H       1  LIG1        0.0660
@<TRIPOS>BOND
     1    35    34    1
     2    34    29    1
     3    54    51    1
     4     8     2    1
     5     8     9    1
     6    36    30    1
     7    36    37    1
     8    46    45    1
     9    10     3    1
    10    10    11    1
    11    27    24    1
    12    20    19    1
    13    12    11    1
    14    38    37    1
    15    14    11    1
    16    29    30   ar
    17    29    28   ar
    18    30    31   ar
    19    47    44    1
    20    45    44   ar
    21    45    41   ar
    22     3     2   ar
    23     3     4   ar
    24     2     1   ar
    25    11    13    1
    26    40    37    1
    27    53    51    1
    28    37    39    1
    29    44    43   ar
    30    28    18    1
    31    28    32   ar
    32    31    41    1
    33    31    32   ar
    34    19    18   ar
    35    19    15   ar
    36    51    52    1
    37    51    50    1
    38    41    42   ar
    39    18    17   ar
    40    32    33    1
    41     4    15    1
    42     4     5   ar
    43     1     7    1
    44     1     5   ar
    45    24    26    1
    46    24    25    1
    47    24    23    1
    48    15    16   ar
    49    43    42   ar
    50    43    50    1
    51     5     6    1
    52    17    16   ar
    53    17    23    1
    54    42    48    1
    55    16    21    1
    56    48    49    1
    57    21    22    1
