@<TRIPOS>MOLECULE
mol_data/opt/cam/geoms/mol2/13gl13gl13gl-13gl.out
 54 57 0 0 0
SMALL
GASTEIGER

@<TRIPOS>ATOM
      1 C           1.0078    0.0880    1.9687 C.ar    1  LIG1        0.0191
      2 C           1.0938    0.9451    0.8961 C.ar    1  LIG1        0.0645
      3 C          -0.1623    0.8786    0.2129 C.ar    1  LIG1        0.1598
      4 C          -0.9676   -0.0076    0.8955 C.ar    1  LIG1        0.1074
      5 N          -0.2198   -0.4961    1.9542 N.ar    1  LIG1       -0.3555
      6 H          -0.6058   -1.0452    2.7052 H       1  LIG1        0.1655
      7 H           1.7431   -0.1399    2.7247 H       1  LIG1        0.0819
      8 S           2.5738    1.7802    0.4072 S.3     1  LIG1       -0.1377
      9 H           2.3324    2.9775    0.9755 H       1  LIG1        0.1073
     10 O          -0.5266    1.4625   -0.9568 O.3     1  LIG1       -0.4918
     11 C          -0.4671    2.8842   -0.9961 C.3     1  LIG1        0.0789
     12 H          -0.9340    3.1809   -1.9358 H       1  LIG1        0.0660
     13 H          -1.0279    3.3193   -0.1631 H       1  LIG1        0.0660
     14 H           0.5657    3.2405   -0.9791 H       1  LIG1        0.0660
     15 C          -2.3011   -0.5062    0.6171 C.ar    1  LIG1        0.0840
     16 C          -3.4831    0.1369    0.3068 C.ar    1  LIG1        0.0741
     17 C          -4.4851   -0.8625    0.1735 C.ar    1  LIG1        0.1605
     18 C          -3.9100   -2.0923    0.4098 C.ar    1  LIG1        0.1079
     19 N          -2.5763   -1.8546    0.6654 N.ar    1  LIG1       -0.3479
     20 H          -1.8977   -2.5624    0.8939 H       1  LIG1        0.1661
     21 S          -3.7124    1.8715    0.0955 S.3     1  LIG1       -0.1370
     22 H          -4.8717    1.9424    0.7738 H       1  LIG1        0.1073
     23 O          -5.8033   -0.6434   -0.0895 O.3     1  LIG1       -0.4918
     24 C          -6.1012   -0.4812   -1.4726 C.3     1  LIG1        0.0789
     25 H          -7.1737   -0.2964   -1.5394 H       1  LIG1        0.0660
     26 H          -5.5546    0.3671   -1.8966 H       1  LIG1        0.0660
     27 H          -5.8532   -1.3895   -2.0328 H       1  LIG1        0.0660
     28 C          -4.4795   -3.4236    0.3922 C.ar    1  LIG1        0.0840
     29 C          -5.6624   -3.9151    0.9089 C.ar    1  LIG1        0.0741
     30 C          -5.6923   -5.3085    0.6315 C.ar    1  LIG1        0.1605
     31 C          -4.5372   -5.6496   -0.0387 C.ar    1  LIG1        0.1079
     32 N          -3.8155   -4.4859   -0.1860 N.ar    1  LIG1       -0.3479
     33 H          -2.9193   -4.4226   -0.6400 H       1  LIG1        0.1661
     34 S          -6.9074   -3.0115    1.7713 S.3     1  LIG1       -0.1370
     35 H          -7.2731   -4.0543    2.5392 H       1  LIG1        0.1073
     36 O          -6.6761   -6.1711    1.0142 O.3     1  LIG1       -0.4918
     37 C          -7.7652   -6.2493    0.1002 C.3     1  LIG1        0.0789
     38 H          -8.4834   -6.9477    0.5310 H       1  LIG1        0.0660
     39 H          -8.2383   -5.2708   -0.0330 H       1  LIG1        0.0660
     40 H          -7.4305   -6.6264   -0.8722 H       1  LIG1        0.0660
     41 C          -4.0821   -6.9232   -0.5568 C.ar    1  LIG1        0.0835
     42 C          -4.1275   -8.1930   -0.0190 C.ar    1  LIG1        0.0734
     43 C          -3.5232   -9.0696   -0.9685 C.ar    1  LIG1        0.1511
     44 C          -3.1214   -8.3237   -2.0448 C.ar    1  LIG1        0.0455
     45 N          -3.4534   -7.0185   -1.7825 N.ar    1  LIG1       -0.3555
     46 H          -3.4556   -6.2828   -2.4694 H       1  LIG1        0.1655
     47 H          -2.6152   -8.6207   -2.9493 H       1  LIG1        0.0845
     48 S          -4.7521   -8.6609    1.5631 S.3     1  LIG1       -0.1370
     49 H          -3.8685   -9.6626    1.7287 H       1  LIG1        0.1073
     50 O          -3.3055  -10.4043   -0.7866 O.3     1  LIG1       -0.4925
     51 C          -4.4444  -11.2136   -1.0556 C.3     1  LIG1        0.0789
     52 H          -4.1529  -12.2439   -0.8468 H       1  LIG1        0.0660
     53 H          -5.2897  -10.9373   -0.4169 H       1  LIG1        0.0660
     54 H          -4.7458  -11.1264   -2.1058 H       1  LIG1        0.0660
@<TRIPOS>BOND
     1    47    44    1
     2    46    45    1
     3    54    51    1
     4    44    45   ar
     5    44    43   ar
     6    27    24    1
     7    12    11    1
     8    26    24    1
     9    45    41   ar
    10    25    24    1
    11    24    23    1
    12    51    52    1
    13    51    50    1
    14    51    53    1
    15    11    14    1
    16    11    10    1
    17    11    13    1
    18    43    50    1
    19    43    42   ar
    20    10     3    1
    21    40    37    1
    22    33    32    1
    23    41    31    1
    24    41    42   ar
    25    32    31   ar
    26    32    28   ar
    27    23    17    1
    28    31    30   ar
    29    39    37    1
    30    42    48    1
    31    21    16    1
    32    21    22    1
    33    37    38    1
    34    37    36    1
    35    17    16   ar
    36    17    18   ar
    37     3     4   ar
    38     3     2   ar
    39    16    15   ar
    40    28    18    1
    41    28    29   ar
    42     8     2    1
    43     8     9    1
    44    18    19   ar
    45    15    19   ar
    46    15     4    1
    47    30    29   ar
    48    30    36    1
    49    19    20    1
    50     4     5   ar
    51     2     1   ar
    52    29    34    1
    53    48    49    1
    54    34    35    1
    55     5     1   ar
    56     5     6    1
    57     1     7    1
