@<TRIPOS>MOLECULE
mol_data/opt/cam/geoms/mol2/13gl13gl13gl.out
 41 43 0 0 0
SMALL
GASTEIGER

@<TRIPOS>ATOM
      1 C           1.3357   -0.4143    0.3541 C.ar    1  LIG1        0.0191
      2 C           1.0965    0.7959   -0.2555 C.ar    1  LIG1        0.0645
      3 C          -0.3236    0.9214   -0.3826 C.ar    1  LIG1        0.1598
      4 C          -0.8967   -0.2103    0.1606 C.ar    1  LIG1        0.1074
      5 N           0.1418   -1.0219    0.5834 N.ar    1  LIG1       -0.3555
      6 H           0.0095   -1.8555    1.1316 H       1  LIG1        0.1655
      7 H           2.2749   -0.8712    0.6247 H       1  LIG1        0.0819
      8 S           2.3649    1.8412   -0.9080 S.3     1  LIG1       -0.1377
      9 H           2.4558    2.7176    0.1113 H       1  LIG1        0.1073
     10 O          -1.0423    1.8853   -1.0109 O.3     1  LIG1       -0.4918
     11 C          -0.8413    3.2213   -0.5632 C.3     1  LIG1        0.0789
     12 H          -1.6043    3.8234   -1.0572 H       1  LIG1        0.0660
     13 H          -0.9746    3.2917    0.5210 H       1  LIG1        0.0660
     14 H           0.1477    3.5904   -0.8441 H       1  LIG1        0.0660
     15 C          -2.2731   -0.6527    0.2408 C.ar    1  LIG1        0.0840
     16 C          -3.4420    0.0146    0.5316 C.ar    1  LIG1        0.0741
     17 C          -4.5102   -0.9335    0.4312 C.ar    1  LIG1        0.1605
     18 C          -3.9686   -2.1574    0.1126 C.ar    1  LIG1        0.1079
     19 N          -2.5942   -1.9788    0.0255 N.ar    1  LIG1       -0.3479
     20 H          -2.0222   -2.5780   -0.5512 H       1  LIG1        0.1661
     21 S          -3.5689    1.7012    1.0297 S.3     1  LIG1       -0.1370
     22 H          -4.4093    1.4815    2.0579 H       1  LIG1        0.1073
     23 O          -5.8150   -0.7186    0.7442 O.3     1  LIG1       -0.4918
     24 C          -6.5059    0.1831   -0.1231 C.3     1  LIG1        0.0789
     25 H          -7.5318    0.2272    0.2435 H       1  LIG1        0.0660
     26 H          -6.0614    1.1810   -0.0960 H       1  LIG1        0.0660
     27 H          -6.5023   -0.1934   -1.1491 H       1  LIG1        0.0660
     28 C          -4.5376   -3.4854   -0.0047 C.ar    1  LIG1        0.0835
     29 C          -5.7109   -3.9686   -0.5493 C.ar    1  LIG1        0.0734
     30 C          -5.7058   -5.3841   -0.3717 C.ar    1  LIG1        0.1511
     31 C          -4.5415   -5.7307    0.2604 C.ar    1  LIG1        0.0455
     32 N          -3.8352   -4.5735    0.4694 N.ar    1  LIG1       -0.3555
     33 H          -3.0275   -4.4905    1.0637 H       1  LIG1        0.1655
     34 H          -4.1660   -6.6988    0.5504 H       1  LIG1        0.0845
     35 S          -6.9791   -3.0446   -1.3509 S.3     1  LIG1       -0.1370
     36 H          -7.1899   -3.9361   -2.3360 H       1  LIG1        0.1073
     37 O          -6.6567   -6.2451   -0.8348 O.3     1  LIG1       -0.4925
     38 C          -7.8066   -6.3338   -0.0012 C.3     1  LIG1        0.0789
     39 H          -8.4947   -7.0250   -0.4900 H       1  LIG1        0.0660
     40 H          -7.5415   -6.7230    0.9885 H       1  LIG1        0.0660
     41 H          -8.2904   -5.3588    0.1154 H       1  LIG1        0.0660
@<TRIPOS>BOND
     1    36    35    1
     2    35    29    1
     3    27    24    1
     4    12    11    1
     5    10    11    1
     6    10     3    1
     7     8     2    1
     8     8     9    1
     9    14    11    1
    10    37    30    1
    11    37    38    1
    12    11    13    1
    13    20    19    1
    14    29    30   ar
    15    29    28   ar
    16    39    38    1
    17     3     2   ar
    18     3     4   ar
    19    30    31   ar
    20     2     1   ar
    21    24    26    1
    22    24    25    1
    23    24    23    1
    24    28    18    1
    25    28    32   ar
    26    38    41    1
    27    38    40    1
    28    19    18   ar
    29    19    15   ar
    30    18    17   ar
    31     4    15    1
    32     4     5   ar
    33    15    16   ar
    34    31    32   ar
    35    31    34    1
    36     1     5   ar
    37     1     7    1
    38    17    16   ar
    39    17    23    1
    40    32    33    1
    41    16    21    1
    42     5     6    1
    43    21    22    1
