@<TRIPOS>MOLECULE
mol_data/opt/cam/geoms/mol2/13gl13gl13gl13gl.out
 54 57 0 0 0
SMALL
GASTEIGER

@<TRIPOS>ATOM
      1 C           1.3529   -0.4871    0.0798 C.ar    1  LIG1        0.0191
      2 C           1.0987    0.7788   -0.3955 C.ar    1  LIG1        0.0645
      3 C          -0.3241    0.9345   -0.4177 C.ar    1  LIG1        0.1598
      4 C          -0.8830   -0.2370    0.0509 C.ar    1  LIG1        0.1074
      5 N           0.1646   -1.0996    0.3256 N.ar    1  LIG1       -0.3555
      6 H           0.0522   -1.9737    0.8118 H       1  LIG1        0.1655
      7 H           2.2986   -0.9791    0.2462 H       1  LIG1        0.0819
      8 S           2.3419    1.8662   -1.0276 S.3     1  LIG1       -0.1377
      9 H           2.5198    2.6332    0.0654 H       1  LIG1        0.1073
     10 O          -1.0609    1.9650   -0.9025 O.3     1  LIG1       -0.4918
     11 C          -0.8108    3.2453   -0.3328 C.3     1  LIG1        0.0789
     12 H          -1.5859    3.9059   -0.7222 H       1  LIG1        0.0660
     13 H          -0.8875    3.2052    0.7582 H       1  LIG1        0.0660
     14 H           0.1696    3.6268   -0.6268 H       1  LIG1        0.0660
     15 C          -2.2589   -0.6705    0.1750 C.ar    1  LIG1        0.0840
     16 C          -3.3973   -0.0246    0.6051 C.ar    1  LIG1        0.0741
     17 C          -4.4837   -0.9478    0.4802 C.ar    1  LIG1        0.1605
     18 C          -3.9812   -2.1400    0.0076 C.ar    1  LIG1        0.1079
     19 N          -2.6129   -1.9645   -0.1486 N.ar    1  LIG1       -0.3479
     20 H          -2.0821   -2.5148   -0.8068 H       1  LIG1        0.1661
     21 S          -3.4627    1.6053    1.2752 S.3     1  LIG1       -0.1370
     22 H          -4.2092    1.2886    2.3497 H       1  LIG1        0.1073
     23 O          -5.7617   -0.7570    0.8986 O.3     1  LIG1       -0.4918
     24 C          -6.4927    0.2455    0.1890 C.3     1  LIG1        0.0789
     25 H          -7.4945    0.2477    0.6192 H       1  LIG1        0.0660
     26 H          -6.0367    1.2310    0.3093 H       1  LIG1        0.0660
     27 H          -6.5540   -0.0048   -0.8731 H       1  LIG1        0.0660
     28 C          -4.5718   -3.4456   -0.1940 C.ar    1  LIG1        0.0840
     29 C          -5.8163   -3.8649   -0.6156 C.ar    1  LIG1        0.0741
     30 C          -5.8212   -5.2952   -0.5711 C.ar    1  LIG1        0.1605
     31 C          -4.5794   -5.7175   -0.1564 C.ar    1  LIG1        0.1079
     32 N          -3.8159   -4.5766    0.0438 N.ar    1  LIG1       -0.3479
     33 H          -3.0293   -4.5688    0.6751 H       1  LIG1        0.1661
     34 S          -7.1208   -2.8385   -1.2090 S.3     1  LIG1       -0.1370
     35 H          -7.4146   -3.5985   -2.2802 H       1  LIG1        0.1073
     36 O          -6.8146   -6.1134   -1.0075 O.3     1  LIG1       -0.4918
     37 C          -8.0173   -6.0727   -0.2367 C.3     1  LIG1        0.0789
     38 H          -8.6911   -6.7994   -0.6913 H       1  LIG1        0.0660
     39 H          -7.8192   -6.3589    0.7994 H       1  LIG1        0.0660
     40 H          -8.4738   -5.0801   -0.2625 H       1  LIG1        0.0660
     41 C          -3.9737   -7.0295   -0.0398 C.ar    1  LIG1        0.0835
     42 C          -4.4232   -8.2382    0.4533 C.ar    1  LIG1        0.0734
     43 C          -3.3576   -9.1756    0.3060 C.ar    1  LIG1        0.1511
     44 C          -2.2925   -8.5248   -0.2572 C.ar    1  LIG1        0.0455
     45 N          -2.6718   -7.2208   -0.4523 N.ar    1  LIG1       -0.3555
     46 H          -2.1697   -6.5525   -1.0128 H       1  LIG1        0.1655
     47 H          -1.3079   -8.8855   -0.5082 H       1  LIG1        0.0845
     48 S          -5.9990   -8.5792    1.1641 S.3     1  LIG1       -0.1370
     49 H          -5.5322   -9.3209    2.1846 H       1  LIG1        0.1073
     50 O          -3.3714  -10.4695    0.7359 O.3     1  LIG1       -0.4925
     51 C          -4.0414  -11.3621   -0.1472 C.3     1  LIG1        0.0789
     52 H          -4.0053  -12.3480    0.3183 H       1  LIG1        0.0660
     53 H          -5.0849  -11.0668   -0.2960 H       1  LIG1        0.0660
     54 H          -3.5371  -11.3998   -1.1196 H       1  LIG1        0.0660
@<TRIPOS>BOND
     1    35    34    1
     2    34    29    1
     3    54    51    1
     4     8     2    1
     5     8     9    1
     6    46    45    1
     7    36    30    1
     8    36    37    1
     9    10     3    1
    10    10    11    1
    11    27    24    1
    12    20    19    1
    13    12    11    1
    14    38    37    1
    15    14    11    1
    16    29    30   ar
    17    29    28   ar
    18    30    31   ar
    19    47    44    1
    20    45    44   ar
    21    45    41   ar
    22     3     2   ar
    23     3     4   ar
    24     2     1   ar
    25    11    13    1
    26    53    51    1
    27    40    37    1
    28    44    43   ar
    29    37    39    1
    30    28    18    1
    31    28    32   ar
    32    31    41    1
    33    31    32   ar
    34    19    18   ar
    35    19    15   ar
    36    51    52    1
    37    51    50    1
    38    41    42   ar
    39    18    17   ar
    40    32    33    1
    41     4    15    1
    42     4     5   ar
    43     1     7    1
    44     1     5   ar
    45    15    16   ar
    46    24    26    1
    47    24    25    1
    48    24    23    1
    49    43    42   ar
    50    43    50    1
    51     5     6    1
    52    42    48    1
    53    17    16   ar
    54    17    23    1
    55    16    21    1
    56    48    49    1
    57    21    22    1
