@<TRIPOS>MOLECULE
mol_data/opt/cam/geoms/mol2/13gl13gl-13gl.out
 41 43 0 0 0
SMALL
GASTEIGER

@<TRIPOS>ATOM
      1 C           1.2951   -0.2845   -0.9777 C.ar    1  LIG1        0.0191
      2 C           1.1457    0.8359   -0.1936 C.ar    1  LIG1        0.0645
      3 C          -0.2391    0.9093    0.1619 C.ar    1  LIG1        0.1598
      4 C          -0.8820   -0.1610   -0.4220 C.ar    1  LIG1        0.1074
      5 N           0.0837   -0.8905   -1.0958 N.ar    1  LIG1       -0.3555
      6 H          -0.1273   -1.6386   -1.7360 H       1  LIG1        0.1655
      7 H           2.1837   -0.6813   -1.4438 H       1  LIG1        0.0819
      8 S           2.4896    1.8291    0.3848 S.3     1  LIG1       -0.1377
      9 H           2.4205    2.8209   -0.5243 H       1  LIG1        0.1073
     10 O          -0.8579    1.7757    1.0036 O.3     1  LIG1       -0.4918
     11 C          -0.7625    3.1560    0.6697 C.3     1  LIG1        0.0789
     12 H          -1.4359    3.6790    1.3494 H       1  LIG1        0.0660
     13 H           0.2542    3.5305    0.8108 H       1  LIG1        0.0660
     14 H          -1.0863    3.3299   -0.3612 H       1  LIG1        0.0660
     15 C          -2.2574   -0.6149   -0.3465 C.ar    1  LIG1        0.0840
     16 C          -3.4595    0.0443   -0.5108 C.ar    1  LIG1        0.0741
     17 C          -4.4936   -0.9190   -0.3604 C.ar    1  LIG1        0.1605
     18 C          -3.9156   -2.1456   -0.1146 C.ar    1  LIG1        0.1079
     19 N          -2.5539   -1.9373   -0.0989 N.ar    1  LIG1       -0.3479
     20 H          -1.8653   -2.6545    0.0589 H       1  LIG1        0.1661
     21 S          -3.6851    1.7625   -0.8302 S.3     1  LIG1       -0.1370
     22 H          -4.6882    1.6042   -1.7119 H       1  LIG1        0.1073
     23 O          -5.8287   -0.6800   -0.4900 O.3     1  LIG1       -0.4918
     24 C          -6.4526   -0.2172    0.7037 C.3     1  LIG1        0.0789
     25 H          -7.5003   -0.0402    0.4583 H       1  LIG1        0.0660
     26 H          -6.3873   -0.9727    1.4942 H       1  LIG1        0.0660
     27 H          -5.9941    0.7138    1.0522 H       1  LIG1        0.0660
     28 C          -4.5100   -3.4436    0.1301 C.ar    1  LIG1        0.0835
     29 C          -5.5671   -4.0909   -0.4758 C.ar    1  LIG1        0.0734
     30 C          -5.7094   -5.3537    0.1727 C.ar    1  LIG1        0.1511
     31 C          -4.7446   -5.4491    1.1403 C.ar    1  LIG1        0.0455
     32 N          -4.0118   -4.2899    1.1006 N.ar    1  LIG1       -0.3555
     33 H          -3.3693   -3.9971    1.8181 H       1  LIG1        0.1655
     34 H          -4.5206   -6.2516    1.8247 H       1  LIG1        0.0845
     35 S          -6.5370   -3.5111   -1.8304 S.3     1  LIG1       -0.1370
     36 H          -6.7312   -4.7371   -2.3508 H       1  LIG1        0.1073
     37 O          -6.5976   -6.3283   -0.1782 O.3     1  LIG1       -0.4925
     38 C          -7.9044   -6.1306    0.3483 C.3     1  LIG1        0.0789
     39 H          -8.5187   -6.9530   -0.0211 H       1  LIG1        0.0660
     40 H          -7.8909   -6.1503    1.4440 H       1  LIG1        0.0660
     41 H          -8.3299   -5.1789    0.0132 H       1  LIG1        0.0660
@<TRIPOS>BOND
     1    36    35    1
     2    35    29    1
     3     6     5    1
     4    22    21    1
     5     7     1    1
     6     5     1   ar
     7     5     4   ar
     8     1     2   ar
     9    21    16    1
    10     9     8    1
    11    16    17   ar
    12    16    15   ar
    13    23    17    1
    14    23    24    1
    15    29    28   ar
    16    29    30   ar
    17     4    15    1
    18     4     3   ar
    19    14    11    1
    20    17    18   ar
    21    15    19   ar
    22     2     3   ar
    23     2     8    1
    24    37    30    1
    25    37    38    1
    26    18    19   ar
    27    18    28    1
    28    19    20    1
    29    39    38    1
    30    41    38    1
    31    28    32   ar
    32     3    10    1
    33    30    31   ar
    34    38    40    1
    35    25    24    1
    36    11    13    1
    37    11    10    1
    38    11    12    1
    39    24    27    1
    40    24    26    1
    41    32    31   ar
    42    32    33    1
    43    31    34    1
