@<TRIPOS>MOLECULE
mol_data/opt/cam/geoms/mol2/13gl13gl-.out
 28 29 0 0 0
SMALL
GASTEIGER

@<TRIPOS>ATOM
      1 C           1.2797   -0.4617   -0.2940 C.ar    1  LIG1        0.0191
      2 C           1.0517    0.8119    0.1734 C.ar    1  LIG1        0.0645
      3 C          -0.3646    0.9470    0.3315 C.ar    1  LIG1        0.1598
      4 C          -0.9471   -0.2424   -0.0515 C.ar    1  LIG1        0.1074
      5 N           0.0825   -1.0957   -0.4094 N.ar    1  LIG1       -0.3555
      6 H          -0.0618   -1.9858   -0.8573 H       1  LIG1        0.1655
      7 H           2.2124   -0.9458   -0.5388 H       1  LIG1        0.0819
      8 S           2.3286    1.9370    0.6532 S.3     1  LIG1       -0.1377
      9 H           2.3817    2.6805   -0.4691 H       1  LIG1        0.1073
     10 O          -1.0657    1.9827    0.8592 O.3     1  LIG1       -0.4918
     11 C          -0.9179    3.2393    0.2079 C.3     1  LIG1        0.0789
     12 H          -1.6574    3.9024    0.6578 H       1  LIG1        0.0660
     13 H           0.0806    3.6547    0.3646 H       1  LIG1        0.0660
     14 H          -1.1223    3.1479   -0.8635 H       1  LIG1        0.0660
     15 C          -2.3255   -0.6942   -0.0356 C.ar    1  LIG1        0.0835
     16 C          -3.5011   -0.0993   -0.4441 C.ar    1  LIG1        0.0734
     17 C          -4.5532   -1.0301   -0.1948 C.ar    1  LIG1        0.1511
     18 C          -4.0007   -2.1611    0.3447 C.ar    1  LIG1        0.0455
     19 N          -2.6467   -1.9522    0.4280 N.ar    1  LIG1       -0.3555
     20 H          -2.0100   -2.5277    0.9541 H       1  LIG1        0.1655
     21 H          -4.4629   -3.0864    0.6491 H       1  LIG1        0.0845
     22 S          -3.6800    1.5012   -1.1601 S.3     1  LIG1       -0.1370
     23 H          -4.5562    1.1311   -2.1114 H       1  LIG1        0.1073
     24 O          -5.8657   -0.8549   -0.5216 O.3     1  LIG1       -0.4925
     25 C          -6.5893   -0.0620    0.4125 C.3     1  LIG1        0.0789
     26 H          -7.6066    0.0238    0.0280 H       1  LIG1        0.0660
     27 H          -6.6117   -0.5429    1.3972 H       1  LIG1        0.0660
     28 H          -6.1515    0.9364    0.5119 H       1  LIG1        0.0660
@<TRIPOS>BOND
     1    23    22    1
     2    22    16    1
     3    14    11    1
     4     6     5    1
     5     7     1    1
     6    24    17    1
     7    24    25    1
     8     9     8    1
     9    16    17   ar
    10    16    15   ar
    11     5     1   ar
    12     5     4   ar
    13     1     2   ar
    14    17    18   ar
    15     4    15    1
    16     4     3   ar
    17    15    19   ar
    18    26    25    1
    19     2     3   ar
    20     2     8    1
    21    11    13    1
    22    11    12    1
    23    11    10    1
    24     3    10    1
    25    18    19   ar
    26    18    21    1
    27    25    28    1
    28    25    27    1
    29    19    20    1
