@<TRIPOS>MOLECULE
mol_data/opt/cam/geoms/mol2/13gl13gl-13gl-.out
 41 43 0 0 0
SMALL
GASTEIGER

@<TRIPOS>ATOM
      1 C           1.3375   -0.4177   -0.3505 C.ar    1  LIG1        0.0191
      2 C           1.0987    0.7895    0.2651 C.ar    1  LIG1        0.0645
      3 C          -0.3214    0.9159    0.3909 C.ar    1  LIG1        0.1598
      4 C          -0.8949   -0.2124   -0.1591 C.ar    1  LIG1        0.1074
      5 N           0.1433   -1.0229   -0.5846 N.ar    1  LIG1       -0.3555
      6 H           0.0110   -1.8534   -1.1375 H       1  LIG1        0.1655
      7 H           2.2766   -0.8741   -0.6221 H       1  LIG1        0.0819
      8 S           2.3672    1.8301    0.9250 S.3     1  LIG1       -0.1377
      9 H           2.4603    2.7118   -0.0896 H       1  LIG1        0.1073
     10 O          -1.0401    1.8772    1.0231 O.3     1  LIG1       -0.4918
     11 C          -0.8370    3.2153    0.5829 C.3     1  LIG1        0.0789
     12 H          -1.5999    3.8156    1.0791 H       1  LIG1        0.0660
     13 H           0.1521    3.5818    0.8671 H       1  LIG1        0.0660
     14 H          -0.9687    3.2917   -0.5011 H       1  LIG1        0.0660
     15 C          -2.2717   -0.6529   -0.2436 C.ar    1  LIG1        0.0840
     16 C          -3.4395    0.0171   -0.5327 C.ar    1  LIG1        0.0741
     17 C          -4.5088   -0.9303   -0.4387 C.ar    1  LIG1        0.1605
     18 C          -3.9690   -2.1563   -0.1255 C.ar    1  LIG1        0.1079
     19 N          -2.5945   -1.9797   -0.0355 N.ar    1  LIG1       -0.3479
     20 H          -2.0240   -2.5826    0.5388 H       1  LIG1        0.1661
     21 S          -3.5637    1.7064   -1.0224 S.3     1  LIG1       -0.1370
     22 H          -4.4023    1.4928   -2.0533 H       1  LIG1        0.1073
     23 O          -5.8129   -0.7125   -0.7526 O.3     1  LIG1       -0.4918
     24 C          -6.5042    0.1858    0.1180 C.3     1  LIG1        0.0789
     25 H          -7.5295    0.2327   -0.2499 H       1  LIG1        0.0660
     26 H          -6.5025   -0.1956    1.1422 H       1  LIG1        0.0660
     27 H          -6.0587    1.1834    0.0964 H       1  LIG1        0.0660
     28 C          -4.5397   -3.4843   -0.0157 C.ar    1  LIG1        0.0835
     29 C          -5.7143   -3.9689    0.5248 C.ar    1  LIG1        0.0734
     30 C          -5.7106   -5.3834    0.3400 C.ar    1  LIG1        0.1511
     31 C          -4.5460   -5.7282   -0.2925 C.ar    1  LIG1        0.0455
     32 N          -3.8380   -4.5708   -0.4946 N.ar    1  LIG1       -0.3555
     33 H          -3.0294   -4.4857   -1.0873 H       1  LIG1        0.1655
     34 H          -4.1712   -6.6953   -0.5869 H       1  LIG1        0.0845
     35 S          -6.9824   -3.0475    1.3296 S.3     1  LIG1       -0.1370
     36 H          -7.1953   -3.9435    2.3100 H       1  LIG1        0.1073
     37 O          -6.6631   -6.2457    0.7974 O.3     1  LIG1       -0.4925
     38 C          -7.8122   -6.3285   -0.0378 C.3     1  LIG1        0.0789
     39 H          -8.5016   -7.0215    0.4465 H       1  LIG1        0.0660
     40 H          -8.2948   -5.3524   -0.1498 H       1  LIG1        0.0660
     41 H          -7.5466   -6.7128   -1.0293 H       1  LIG1        0.0660
@<TRIPOS>BOND
     1    22    21    1
     2     6     5    1
     3    33    32    1
     4    41    38    1
     5    21    16    1
     6    23    17    1
     7    23    24    1
     8     7     1    1
     9    34    31    1
    10     5     1   ar
    11     5     4   ar
    12    16    17   ar
    13    16    15   ar
    14    14    11    1
    15    32    31   ar
    16    32    28   ar
    17    17    18   ar
    18     1     2   ar
    19    31    30   ar
    20    25    24    1
    21    15     4    1
    22    15    19   ar
    23     4     3   ar
    24    40    38    1
    25    18    19   ar
    26    18    28    1
    27     9     8    1
    28    38    39    1
    29    38    37    1
    30    19    20    1
    31    28    29   ar
    32    27    24    1
    33    24    26    1
    34     2     3   ar
    35     2     8    1
    36    30    29   ar
    37    30    37    1
    38     3    10    1
    39    29    35    1
    40    11    13    1
    41    11    10    1
    42    11    12    1
    43    35    36    1
