@<TRIPOS>MOLECULE
mol_data/opt/cam/geoms/mol2/13gl13gl-13gl-13gl-.out
 54 57 0 0 0
SMALL
GASTEIGER

@<TRIPOS>ATOM
      1 C           1.3582   -0.4945   -0.0552 C.ar    1  LIG1        0.0191
      2 C           1.1048    0.7643    0.4389 C.ar    1  LIG1        0.0645
      3 C          -0.3178    0.9222    0.4593 C.ar    1  LIG1        0.1598
      4 C          -0.8774   -0.2410   -0.0289 C.ar    1  LIG1        0.1074
      5 N           0.1696   -1.1011   -0.3138 N.ar    1  LIG1       -0.3555
      6 H           0.0570   -1.9674   -0.8138 H       1  LIG1        0.1655
      7 H           2.3035   -0.9856   -0.2263 H       1  LIG1        0.0819
      8 S           2.3480    1.8395    1.0914 S.3     1  LIG1       -0.1377
      9 H           2.5304    2.6231    0.0108 H       1  LIG1        0.1073
     10 O          -1.0542    1.9464    0.9579 O.3     1  LIG1       -0.4918
     11 C          -0.8003    3.2349    0.4087 C.3     1  LIG1        0.0789
     12 H          -1.5753    3.8907    0.8060 H       1  LIG1        0.0660
     13 H           0.1800    3.6100    0.7114 H       1  LIG1        0.0660
     14 H          -0.8737    3.2118   -0.6830 H       1  LIG1        0.0660
     15 C          -2.2537   -0.6700   -0.1637 C.ar    1  LIG1        0.0840
     16 C          -3.3897   -0.0155   -0.5872 C.ar    1  LIG1        0.0741
     17 C          -4.4780   -0.9386   -0.4797 C.ar    1  LIG1        0.1605
     18 C          -3.9790   -2.1389   -0.0241 C.ar    1  LIG1        0.1079
     19 N          -2.6109   -1.9682    0.1388 N.ar    1  LIG1       -0.3479
     20 H          -2.0830   -2.5296    0.7900 H       1  LIG1        0.1661
     21 S          -3.4502    1.6246   -1.2322 S.3     1  LIG1       -0.1370
     22 H          -4.1941    1.3258   -2.3136 H       1  LIG1        0.1073
     23 O          -5.7544   -0.7391   -0.8988 O.3     1  LIG1       -0.4918
     24 C          -6.4858    0.2536   -0.1760 C.3     1  LIG1        0.0789
     25 H          -7.4863    0.2642   -0.6090 H       1  LIG1        0.0660
     26 H          -6.5507   -0.0129    0.8820 H       1  LIG1        0.0660
     27 H          -6.0277    1.2401   -0.2797 H       1  LIG1        0.0660
     28 C          -4.5724   -3.4464    0.1556 C.ar    1  LIG1        0.0840
     29 C          -5.8189   -3.8699    0.5670 C.ar    1  LIG1        0.0741
     30 C          -5.8262   -5.2994    0.5004 C.ar    1  LIG1        0.1605
     31 C          -4.5838   -5.7174    0.0829 C.ar    1  LIG1        0.1079
     32 N          -3.8178   -4.5750   -0.0974 N.ar    1  LIG1       -0.3479
     33 H          -3.0293   -4.5588   -0.7262 H       1  LIG1        0.1661
     34 S          -7.1234   -2.8504    1.1723 S.3     1  LIG1       -0.1370
     35 H          -7.4217   -3.6264    2.2308 H       1  LIG1        0.1073
     36 O          -6.8222   -6.1224    0.9212 O.3     1  LIG1       -0.4918
     37 C          -8.0226   -6.0677    0.1476 C.3     1  LIG1        0.0789
     38 H          -8.6991   -6.8001    0.5890 H       1  LIG1        0.0660
     39 H          -8.4774   -5.0748    0.1874 H       1  LIG1        0.0660
     40 H          -7.8219   -6.3382   -0.8922 H       1  LIG1        0.0660
     41 C          -3.9801   -7.0285   -0.0521 C.ar    1  LIG1        0.0835
     42 C          -4.4302   -8.2286   -0.5652 C.ar    1  LIG1        0.0734
     43 C          -3.3667   -9.1701   -0.4291 C.ar    1  LIG1        0.1511
     44 C          -2.3022   -8.5300    0.1472 C.ar    1  LIG1        0.0455
     45 N          -2.6797   -7.2284    0.3612 N.ar    1  LIG1       -0.3555
     46 H          -2.1782   -6.5698    0.9334 H       1  LIG1        0.1655
     47 H          -1.3189   -8.8962    0.3954 H       1  LIG1        0.0845
     48 S          -6.0045   -8.5559   -1.2857 S.3     1  LIG1       -0.1370
     49 H          -5.5360   -9.2826   -2.3162 H       1  LIG1        0.1073
     50 O          -3.3815  -10.4573   -0.8790 O.3     1  LIG1       -0.4925
     51 C          -4.0556  -11.3621   -0.0118 C.3     1  LIG1        0.0789
     52 H          -4.0198  -12.3408   -0.4923 H       1  LIG1        0.0660
     53 H          -3.5543  -11.4157    0.9614 H       1  LIG1        0.0660
     54 H          -5.0990  -11.0673    0.1385 H       1  LIG1        0.0660
@<TRIPOS>BOND
     1    49    48    1
     2    22    21    1
     3    48    42    1
     4    21    16    1
     5    23    17    1
     6    23    24    1
     7    40    37    1
     8    50    43    1
     9    50    51    1
    10     6     5    1
    11    33    32    1
    12    14    11    1
    13    25    24    1
    14    16    17   ar
    15    16    15   ar
    16    42    43   ar
    17    42    41   ar
    18    52    51    1
    19    17    18   ar
    20    43    44   ar
    21     5     1   ar
    22     5     4   ar
    23    27    24    1
    24     7     1    1
    25    24    26    1
    26    15     4    1
    27    15    19   ar
    28    32    31   ar
    29    32    28   ar
    30     1     2   ar
    31    41    31    1
    32    41    45   ar
    33     4     3   ar
    34    18    19   ar
    35    18    28    1
    36    51    54    1
    37    51    53    1
    38     9     8    1
    39    31    30   ar
    40    19    20    1
    41    44    45   ar
    42    44    47    1
    43    37    39    1
    44    37    38    1
    45    37    36    1
    46    28    29   ar
    47    45    46    1
    48    11    13    1
    49    11    12    1
    50    11    10    1
    51     2     3   ar
    52     2     8    1
    53     3    10    1
    54    30    29   ar
    55    30    36    1
    56    29    34    1
    57    34    35    1
