@<TRIPOS>MOLECULE
mol_data/opt/cam/geoms/mol2/13ha13ha-13ha.out
 32 34 0 0 0
SMALL
GASTEIGER

@<TRIPOS>ATOM
      1 C           1.2298   -0.2930   -0.0430 C.ar    1  LIG1        0.0230
      2 C           0.8350    1.0269   -0.0517 C.ar    1  LIG1        0.0427
      3 C          -0.5842    1.0427   -0.0593 C.ar    1  LIG1       -0.0142
      4 C          -1.0096   -0.2741   -0.0547 C.ar    1  LIG1        0.0665
      5 N           0.0967   -1.0695   -0.0380 N.ar    1  LIG1       -0.3578
      6 H           0.0111   -2.0791   -0.0374 H       1  LIG1        0.1654
      7 H           2.2167   -0.7291   -0.0295 H       1  LIG1        0.0826
      8 N           1.6636    2.1655    0.0069 N.pl3   1  LIG1       -0.3568
      9 H           2.6171    1.9577   -0.2609 H       1  LIG1        0.1424
     10 H           1.3176    2.9147   -0.5795 H       1  LIG1        0.1424
     11 H          -1.2123    1.9228   -0.0560 H       1  LIG1        0.0658
     12 C          -2.3312   -0.8627   -0.0622 C.ar    1  LIG1        0.0843
     13 C          -2.7097   -2.1962   -0.0627 C.ar    1  LIG1        0.0523
     14 C          -4.1282   -2.2431   -0.0717 C.ar    1  LIG1       -0.0135
     15 C          -4.5779   -0.9374   -0.0769 C.ar    1  LIG1        0.0670
     16 N          -3.4777   -0.1209   -0.0711 N.ar    1  LIG1       -0.3504
     17 H          -3.5824    0.8889   -0.0696 H       1  LIG1        0.1660
     18 N          -1.7744   -3.2816   -0.0533 N.pl3   1  LIG1       -0.3563
     19 H          -1.9075   -3.8658    0.7671 H       1  LIG1        0.1424
     20 H          -1.9056   -3.8788   -0.8646 H       1  LIG1        0.1424
     21 H          -4.7364   -3.1381   -0.0732 H       1  LIG1        0.0658
     22 C          -5.9034   -0.3580   -0.0859 C.ar    1  LIG1        0.0839
     23 C          -6.2919    0.9693   -0.0808 C.ar    1  LIG1        0.0516
     24 C          -7.7145    1.0042   -0.0946 C.ar    1  LIG1       -0.0230
     25 C          -8.1516   -0.2940   -0.1080 C.ar    1  LIG1        0.0040
     26 N          -7.0498   -1.1096   -0.1020 N.ar    1  LIG1       -0.3580
     27 H          -7.0703   -2.1150   -0.1102 H       1  LIG1        0.1654
     28 H          -9.1495   -0.7039   -0.1210 H       1  LIG1        0.0807
     29 N          -5.3623    2.0591   -0.0632 N.pl3   1  LIG1       -0.3563
     30 H          -5.5028    2.6672   -0.8646 H       1  LIG1        0.1424
     31 H          -5.4897    2.6304    0.7671 H       1  LIG1        0.1424
     32 H          -8.3381    1.8870   -0.0945 H       1  LIG1        0.0651
@<TRIPOS>BOND
     1    20    18    1
     2    30    29    1
     3    10     8    1
     4     9     8    1
     5    28    25    1
     6    27    26    1
     7    25    26   ar
     8    25    24   ar
     9    26    22   ar
    10    24    32    1
    11    24    23   ar
    12    22    23   ar
    13    22    15    1
    14    23    29    1
    15    15    14   ar
    16    15    16   ar
    17    21    14    1
    18    14    13   ar
    19    16    17    1
    20    16    12   ar
    21    29    31    1
    22    13    12   ar
    23    13    18    1
    24    12     4    1
    25     3    11    1
    26     3     4   ar
    27     3     2   ar
    28     4     5   ar
    29    18    19    1
    30     2     1   ar
    31     2     8    1
    32     1     5   ar
    33     1     7    1
    34     5     6    1
