@<TRIPOS>MOLECULE
mol_data/opt/cam/geoms/mol2/13ha13ha-13ha-13ha-.out
 42 45 0 0 0
SMALL
GASTEIGER

@<TRIPOS>ATOM
      1 C           1.3025   -0.4121   -0.3556 C.ar    1  LIG1        0.0230
      2 C           0.9331    0.8653   -0.7159 C.ar    1  LIG1        0.0427
      3 C          -0.4810    0.9383   -0.6159 C.ar    1  LIG1       -0.0142
      4 C          -0.9281   -0.3028   -0.1960 C.ar    1  LIG1        0.0665
      5 N           0.1609   -1.1055   -0.0365 N.ar    1  LIG1       -0.3578
      6 H           0.0579   -2.0649    0.2736 H       1  LIG1        0.1654
      7 H           2.2789   -0.8673   -0.2930 H       1  LIG1        0.0826
      8 N           1.7825    1.9370   -1.0535 N.pl3   1  LIG1       -0.3568
      9 H           2.7146    1.6252   -1.2939 H       1  LIG1        0.1424
     10 H           1.4150    2.4862   -1.8203 H       1  LIG1        0.1424
     11 H          -1.0857    1.8131   -0.8130 H       1  LIG1        0.0658
     12 C          -2.2543   -0.8149    0.0687 C.ar    1  LIG1        0.0843
     13 C          -2.6578   -2.0611    0.5055 C.ar    1  LIG1        0.0523
     14 C          -4.0774   -2.0529    0.5980 C.ar    1  LIG1       -0.0135
     15 C          -4.5136   -0.8032    0.2106 C.ar    1  LIG1        0.0670
     16 N          -3.3913   -0.0602   -0.0950 N.ar    1  LIG1       -0.3504
     17 H          -3.4109    0.8290   -0.5666 H       1  LIG1        0.1660
     18 N          -1.7422   -3.1188    0.8140 N.pl3   1  LIG1       -0.3563
     19 H          -1.8013   -3.3707    1.7968 H       1  LIG1        0.1424
     20 H          -1.9705   -3.9549    0.2842 H       1  LIG1        0.1424
     21 H          -4.7111   -2.8482    0.9651 H       1  LIG1        0.0658
     22 C          -5.8492   -0.2631    0.0951 C.ar    1  LIG1        0.0843
     23 C          -7.0183   -0.8748   -0.3163 C.ar    1  LIG1        0.0523
     24 C          -8.0517    0.0980   -0.2766 C.ar    1  LIG1       -0.0135
     25 C          -7.4959    1.2881    0.1571 C.ar    1  LIG1        0.0670
     26 N          -6.1639    1.0598    0.3794 N.ar    1  LIG1       -0.3504
     27 H          -5.5061    1.7553    0.6886 H       1  LIG1        0.1660
     28 N          -7.1602   -2.2259   -0.6565 N.pl3   1  LIG1       -0.3563
     29 H          -7.8665   -2.3771   -1.3647 H       1  LIG1        0.1424
     30 H          -6.2810   -2.6391   -0.9454 H       1  LIG1        0.1424
     31 H          -9.1011   -0.0633   -0.4780 H       1  LIG1        0.0658
     32 C          -8.1020    2.5856    0.3611 C.ar    1  LIG1        0.0839
     33 C          -9.0786    3.2303   -0.3728 C.ar    1  LIG1        0.0516
     34 C          -9.2878    4.5062    0.2212 C.ar    1  LIG1       -0.0230
     35 C          -8.4407    4.6028    1.2955 C.ar    1  LIG1        0.0040
     36 N          -7.7067    3.4545    1.3700 N.ar    1  LIG1       -0.3580
     37 H          -7.1773    3.1681    2.1767 H       1  LIG1        0.1654
     38 H          -8.3082    5.3999    2.0110 H       1  LIG1        0.0807
     39 N          -9.7536    2.7102   -1.4845 N.pl3   1  LIG1       -0.3563
     40 H          -9.9726    3.4168   -2.1746 H       1  LIG1        0.1424
     41 H          -9.2438    1.9478   -1.9155 H       1  LIG1        0.1424
     42 H          -9.9813    5.2637   -0.1149 H       1  LIG1        0.0651
@<TRIPOS>BOND
     1    40    39    1
     2    41    39    1
     3    10     8    1
     4    39    33    1
     5    29    28    1
     6     9     8    1
     7     8     2    1
     8    30    28    1
     9    11     3    1
    10     2     3   ar
    11     2     1   ar
    12    28    23    1
    13     3     4   ar
    14    17    16    1
    15    31    24    1
    16    33    34   ar
    17    33    32   ar
    18     1     7    1
    19     1     5   ar
    20    23    24   ar
    21    23    22   ar
    22    24    25   ar
    23     4     5   ar
    24     4    12    1
    25    42    34    1
    26    16    12   ar
    27    16    15   ar
    28     5     6    1
    29    12    13   ar
    30    22    15    1
    31    22    26   ar
    32    25    32    1
    33    25    26   ar
    34    15    14   ar
    35    34    35   ar
    36    20    18    1
    37    32    36   ar
    38    26    27    1
    39    13    14   ar
    40    13    18    1
    41    14    21    1
    42    18    19    1
    43    35    36   ar
    44    35    38    1
    45    36    37    1
