@<TRIPOS>MOLECULE
mol_data/opt/cam/geoms/mol2/13ha13ha-13ha13ha-.out
 42 45 0 0 0
SMALL
GASTEIGER

@<TRIPOS>ATOM
      1 C           1.3001   -0.2951   -0.0580 C.ar    1  LIG1        0.0230
      2 C           0.9189    1.0286   -0.0478 C.ar    1  LIG1        0.0427
      3 C          -0.5002    1.0593   -0.0485 C.ar    1  LIG1       -0.0142
      4 C          -0.9394   -0.2532   -0.0587 C.ar    1  LIG1        0.0665
      5 N           0.1588   -1.0599   -0.0573 N.ar    1  LIG1       -0.3578
      6 H           0.0613   -2.0685   -0.0696 H       1  LIG1        0.1654
      7 H           2.2825   -0.7416   -0.0549 H       1  LIG1        0.0826
      8 N           1.7598    2.1582    0.0213 N.pl3   1  LIG1       -0.3568
      9 H           2.7102    1.9418   -0.2510 H       1  LIG1        0.1424
     10 H           1.4214    2.9153   -0.5595 H       1  LIG1        0.1424
     11 H          -1.1192    1.9457   -0.0310 H       1  LIG1        0.0658
     12 C          -2.2665   -0.8293   -0.0672 C.ar    1  LIG1        0.0843
     13 C          -2.6569   -2.1595   -0.0837 C.ar    1  LIG1        0.0523
     14 C          -4.0752   -2.1950   -0.0861 C.ar    1  LIG1       -0.0135
     15 C          -4.5140   -0.8855   -0.0710 C.ar    1  LIG1        0.0670
     16 N          -3.4066   -0.0776   -0.0599 N.ar    1  LIG1       -0.3504
     17 H          -3.5024    0.9326   -0.0445 H       1  LIG1        0.1660
     18 N          -1.7299   -3.2529   -0.0937 N.pl3   1  LIG1       -0.3563
     19 H          -1.8673   -3.8481    0.7182 H       1  LIG1        0.1424
     20 H          -1.8713   -3.8371   -0.9127 H       1  LIG1        0.1424
     21 H          -4.6956   -3.0809   -0.0968 H       1  LIG1        0.0658
     22 C          -5.8355   -0.3004   -0.0648 C.ar    1  LIG1        0.0843
     23 C          -6.2131    1.0336   -0.0398 C.ar    1  LIG1        0.0523
     24 C          -7.6313    1.0813   -0.0445 C.ar    1  LIG1       -0.0135
     25 C          -8.0820   -0.2238   -0.0723 C.ar    1  LIG1        0.0670
     26 N          -6.9828   -1.0417   -0.0835 N.ar    1  LIG1       -0.3504
     27 H          -7.0905   -2.0509   -0.1046 H       1  LIG1        0.1660
     28 N          -5.2764    2.1170   -0.0134 N.pl3   1  LIG1       -0.3563
     29 H          -5.4147    2.7361   -0.8068 H       1  LIG1        0.1424
     30 H          -5.3937    2.6787    0.8249 H       1  LIG1        0.1424
     31 H          -8.2385    1.9766   -0.0288 H       1  LIG1        0.0658
     32 C          -9.4077   -0.8021   -0.0896 C.ar    1  LIG1        0.0839
     33 C          -9.7969   -2.1291   -0.1174 C.ar    1  LIG1        0.0516
     34 C         -11.2194   -2.1632   -0.1245 C.ar    1  LIG1       -0.0230
     35 C         -11.6558   -0.8650   -0.1011 C.ar    1  LIG1        0.0040
     36 N         -10.5540   -0.0501   -0.0802 N.ar    1  LIG1       -0.3580
     37 H         -10.5746    0.9552   -0.0601 H       1  LIG1        0.1654
     38 H         -12.6537   -0.4547   -0.0975 H       1  LIG1        0.0807
     39 N          -8.8678   -3.2198   -0.1345 N.pl3   1  LIG1       -0.3563
     40 H          -9.0062   -3.8241    0.6703 H       1  LIG1        0.1424
     41 H          -9.0018   -3.7948   -0.9612 H       1  LIG1        0.1424
     42 H         -11.8435   -3.0454   -0.1445 H       1  LIG1        0.0651
@<TRIPOS>BOND
     1    41    39    1
     2    20    18    1
     3    29    28    1
     4    10     8    1
     5     9     8    1
     6    42    34    1
     7    39    33    1
     8    39    40    1
     9    34    33   ar
    10    34    35   ar
    11    33    32   ar
    12    27    26    1
    13    35    38    1
    14    35    36   ar
    15    21    14    1
    16    18    13    1
    17    18    19    1
    18    32    36   ar
    19    32    25    1
    20    14    13   ar
    21    14    15   ar
    22    13    12   ar
    23    26    25   ar
    24    26    22   ar
    25    36    37    1
    26    25    24   ar
    27    15    22    1
    28    15    16   ar
    29     6     5    1
    30    12    16   ar
    31    12     4    1
    32    22    23   ar
    33    16    17    1
    34     4     5   ar
    35     4     3   ar
    36     1     5   ar
    37     1     7    1
    38     1     2   ar
    39     3     2   ar
    40     3    11    1
    41     2     8    1
    42    24    23   ar
    43    24    31    1
    44    23    28    1
    45    28    30    1
