@<TRIPOS>MOLECULE
mol_data/opt/cam/geoms/mol2/13ha13ha-4ha13ha.out
 44 47 0 0 0
SMALL
GASTEIGER

@<TRIPOS>ATOM
      1 C           1.3666   -0.5036    0.2358 C.ar    1  LIG1        0.0230
      2 C           1.0260    0.7825    0.5948 C.ar    1  LIG1        0.0427
      3 C          -0.3863    0.8864    0.4996 C.ar    1  LIG1       -0.0142
      4 C          -0.8618   -0.3462    0.0860 C.ar    1  LIG1        0.0665
      5 N           0.2077   -1.1771   -0.0628 N.ar    1  LIG1       -0.3578
      6 H           0.0831   -2.1335   -0.3739 H       1  LIG1        0.1654
      7 H           2.3315   -0.9837    0.1833 H       1  LIG1        0.0826
      8 N           1.8908    1.7989    1.0448 N.pl3   1  LIG1       -0.3568
      9 H           2.8534    1.6268    0.7846 H       1  LIG1        0.1424
     10 H           1.6172    2.7107    0.7011 H       1  LIG1        0.1424
     11 H          -0.9757    1.7646    0.7254 H       1  LIG1        0.0658
     12 C          -2.1995   -0.8280   -0.1798 C.ar    1  LIG1        0.0843
     13 C          -2.6289   -2.0715   -0.6108 C.ar    1  LIG1        0.0522
     14 C          -4.0418   -2.0246   -0.7236 C.ar    1  LIG1       -0.0150
     15 C          -4.4518   -0.7582   -0.3592 C.ar    1  LIG1        0.0505
     16 N          -3.3140   -0.0463   -0.0433 N.ar    1  LIG1       -0.3515
     17 H          -3.3327    0.8975    0.3127 H       1  LIG1        0.1660
     18 N          -1.7378   -3.1594   -0.8858 N.pl3   1  LIG1       -0.3563
     19 H          -1.9605   -3.9610   -0.3028 H       1  LIG1        0.1424
     20 H          -1.8279   -3.4646   -1.8506 H       1  LIG1        0.1424
     21 H          -4.6875   -2.8253   -1.0564 H       1  LIG1        0.0657
     22 C          -6.0736    1.1745   -0.4255 C.ar    1  LIG1        0.0344
     23 C          -7.3692    1.6551   -0.2532 C.ar    1  LIG1       -0.0312
     24 C          -5.7987   -0.1955   -0.2345 C.ar    1  LIG1        0.0190
     25 C          -8.4319    0.8102    0.0826 C.ar    1  LIG1        0.0019
     26 H          -7.5538    2.7201   -0.3593 H       1  LIG1        0.0643
     27 C          -6.8698   -1.0310    0.0947 C.ar    1  LIG1       -0.0502
     28 C          -8.1605   -0.5552    0.2400 C.ar    1  LIG1       -0.0518
     29 H          -6.6682   -2.0852    0.2532 H       1  LIG1        0.0625
     30 N          -5.0334    2.0712   -0.7366 N.pl3   1  LIG1       -0.3574
     31 H          -4.3995    1.7166   -1.4433 H       1  LIG1        0.1423
     32 H          -5.3743    2.9872   -0.9974 H       1  LIG1        0.1423
     33 H          -8.9644   -1.2493    0.4627 H       1  LIG1        0.0624
     34 C          -9.7762    1.3441    0.2656 C.ar    1  LIG1        0.0675
     35 C         -10.4129    2.4364   -0.3007 C.ar    1  LIG1        0.0502
     36 C         -11.7306    2.4901    0.2260 C.ar    1  LIG1       -0.0231
     37 C         -11.8661    1.4374    1.0975 C.ar    1  LIG1        0.0040
     38 N         -10.6998    0.7381    1.1017 N.ar    1  LIG1       -0.3592
     39 H         -10.4725   -0.0096    1.7349 H       1  LIG1        0.1654
     40 H         -12.7030    1.1400    1.7105 H       1  LIG1        0.0807
     41 N          -9.8578    3.3408   -1.2239 N.pl3   1  LIG1       -0.3563
     42 H          -9.2267    2.8866   -1.8735 H       1  LIG1        0.1424
     43 H         -10.5731    3.8329   -1.7435 H       1  LIG1        0.1424
     44 H         -12.4894    3.2203   -0.0173 H       1  LIG1        0.0651
@<TRIPOS>BOND
     1    42    41    1
     2    20    18    1
     3    43    41    1
     4    31    30    1
     5    41    35    1
     6    21    14    1
     7    32    30    1
     8    18    13    1
     9    18    19    1
    10    30    22    1
    11    14    13   ar
    12    14    15   ar
    13    13    12   ar
    14    22    23   ar
    15    22    24   ar
    16     6     5    1
    17    26    23    1
    18    15    24    1
    19    15    16   ar
    20    35    36   ar
    21    35    34   ar
    22    23    25   ar
    23    24    27   ar
    24    12    16   ar
    25    12     4    1
    26     5     4   ar
    27     5     1   ar
    28    16    17    1
    29    44    36    1
    30    25    28   ar
    31    25    34    1
    32     4     3   ar
    33    27    28   ar
    34    27    29    1
    35     7     1    1
    36    36    37   ar
    37     1     2   ar
    38    28    33    1
    39    34    38   ar
    40     3     2   ar
    41     3    11    1
    42     2     8    1
    43    10     8    1
    44     9     8    1
    45    37    38   ar
    46    37    40    1
    47    38    39    1
