@<TRIPOS>MOLECULE
mol_data/opt/cam/geoms/mol2/13ha13ha13ha13ha-.out
 42 45 0 0 0
SMALL
GASTEIGER

@<TRIPOS>ATOM
      1 C           0.9247    0.2441   -1.3115 C.ar    1  LIG1        0.0230
      2 C           0.8348    1.1277   -0.2659 C.ar    1  LIG1        0.0427
      3 C          -0.3934    0.8657    0.4082 C.ar    1  LIG1       -0.0142
      4 C          -1.0208   -0.1741   -0.2487 C.ar    1  LIG1        0.0665
      5 N          -0.1988   -0.5664   -1.2754 N.ar    1  LIG1       -0.3578
      6 H          -0.5093   -1.1328   -2.0469 H       1  LIG1        0.1654
      7 H           1.7028    0.0969   -2.0444 H       1  LIG1        0.0826
      8 N           1.8020    2.0576    0.1497 N.pl3   1  LIG1       -0.3568
      9 H           2.4372    2.3221   -0.5916 H       1  LIG1        0.1424
     10 H           1.3882    2.8892    0.5501 H       1  LIG1        0.1424
     11 H          -0.7381    1.3272    1.3228 H       1  LIG1        0.0658
     12 C          -2.3020   -0.7999   -0.0086 C.ar    1  LIG1        0.0843
     13 C          -3.4981   -0.2448    0.4038 C.ar    1  LIG1        0.0523
     14 C          -4.4670   -1.2819    0.4356 C.ar    1  LIG1       -0.0135
     15 C          -3.8445   -2.4544    0.0421 C.ar    1  LIG1        0.0670
     16 N          -2.5381   -2.1501   -0.2318 N.ar    1  LIG1       -0.3504
     17 H          -1.8339   -2.8174   -0.4978 H       1  LIG1        0.1660
     18 N          -3.7002    1.0925    0.7691 N.pl3   1  LIG1       -0.3563
     19 H          -2.9892    1.7021    0.3815 H       1  LIG1        0.1424
     20 H          -4.6218    1.4284    0.5221 H       1  LIG1        0.1424
     21 H          -5.4886   -1.2021    0.7787 H       1  LIG1        0.0658
     22 C          -4.3726   -3.7915   -0.0983 C.ar    1  LIG1        0.0843
     23 C          -5.6415   -4.2019   -0.4767 C.ar    1  LIG1        0.0523
     24 C          -5.6408   -5.6180   -0.5108 C.ar    1  LIG1       -0.0135
     25 C          -4.3707   -6.0382   -0.1535 C.ar    1  LIG1        0.0670
     26 N          -3.6128   -4.9305    0.0819 N.ar    1  LIG1       -0.3504
     27 H          -2.6800   -5.0224    0.4713 H       1  LIG1        0.1660
     28 N          -6.7297   -3.3603   -0.7487 N.pl3   1  LIG1       -0.3563
     29 H          -6.4271   -2.4284   -1.0087 H       1  LIG1        0.1424
     30 H          -7.3397   -3.7355   -1.4635 H       1  LIG1        0.1424
     31 H          -6.4842   -6.2467   -0.7621 H       1  LIG1        0.0658
     32 C          -3.7950   -7.3536    0.0192 C.ar    1  LIG1        0.0839
     33 C          -2.5369   -7.7200    0.4625 C.ar    1  LIG1        0.0516
     34 C          -2.4722   -9.1412    0.4556 C.ar    1  LIG1       -0.0230
     35 C          -3.6845   -9.5995    0.0112 C.ar    1  LIG1        0.0040
     36 N          -4.4768   -8.5121   -0.2486 N.ar    1  LIG1       -0.3580
     37 H          -5.4226   -8.5488   -0.5889 H       1  LIG1        0.1654
     38 H          -4.0474  -10.6041   -0.1409 H       1  LIG1        0.0807
     39 N          -1.5354   -6.7722    0.8535 N.pl3   1  LIG1       -0.3563
     40 H          -1.2978   -6.8841    1.8352 H       1  LIG1        0.1424
     41 H          -0.6786   -6.9159    0.3270 H       1  LIG1        0.1424
     42 H          -1.6280   -9.7502    0.7468 H       1  LIG1        0.0651
@<TRIPOS>BOND
     1     6     5    1
     2     7     1    1
     3    30    28    1
     4     1     5   ar
     5     1     2   ar
     6     5     4   ar
     7    29    28    1
     8    31    24    1
     9    28    23    1
    10     9     8    1
    11    37    36    1
    12    24    23   ar
    13    24    25   ar
    14    17    16    1
    15    23    22   ar
    16     2     8    1
    17     2     3   ar
    18     4    12    1
    19     4     3   ar
    20    36    35   ar
    21    36    32   ar
    22    16    12   ar
    23    16    15   ar
    24    25    32    1
    25    25    26   ar
    26    38    35    1
    27    22    15    1
    28    22    26   ar
    29    12    13   ar
    30    35    34   ar
    31    32    33   ar
    32    15    14   ar
    33    26    27    1
    34     8    10    1
    35    41    39    1
    36    19    18    1
    37    13    14   ar
    38    13    18    1
    39     3    11    1
    40    14    21    1
    41    34    33   ar
    42    34    42    1
    43    33    39    1
    44    20    18    1
    45    39    40    1
