@<TRIPOS>MOLECULE
mol_data/opt/cam/geoms/mol2/13ha13ha-.out
 22 23 0 0 0
SMALL
GASTEIGER

@<TRIPOS>ATOM
      1 C           1.1568   -0.2782   -0.0792 C.ar    1  LIG1        0.0230
      2 C           0.7776    1.0441   -0.0058 C.ar    1  LIG1        0.0427
      3 C          -0.6416    1.0742    0.0179 C.ar    1  LIG1       -0.0142
      4 C          -1.0813   -0.2367   -0.0413 C.ar    1  LIG1        0.0665
      5 N           0.0156   -1.0422   -0.0923 N.ar    1  LIG1       -0.3578
      6 H          -0.0832   -2.0495   -0.1472 H       1  LIG1        0.1654
      7 H           2.1387   -0.7245   -0.1118 H       1  LIG1        0.0826
      8 N           1.6184    2.1694    0.0997 N.pl3   1  LIG1       -0.3568
      9 H           2.5692    1.9638   -0.1789 H       1  LIG1        0.1424
     10 H           1.2797    2.9492   -0.4499 H       1  LIG1        0.1424
     11 H          -1.2550    1.9625    0.0846 H       1  LIG1        0.0658
     12 C          -2.4082   -0.8164   -0.0522 C.ar    1  LIG1        0.0838
     13 C          -2.8005   -2.1404   -0.1221 C.ar    1  LIG1        0.0516
     14 C          -4.2231   -2.1726   -0.0996 C.ar    1  LIG1       -0.0230
     15 C          -4.6563   -0.8756   -0.0167 C.ar    1  LIG1        0.0040
     16 N          -3.5519   -0.0642    0.0108 N.ar    1  LIG1       -0.3580
     17 H          -3.5674    0.9393    0.0768 H       1  LIG1        0.1654
     18 H          -5.6528   -0.4642    0.0252 H       1  LIG1        0.0807
     19 N          -1.8740   -3.2310   -0.1997 N.pl3   1  LIG1       -0.3563
     20 H          -1.9986   -3.8653    0.5840 H       1  LIG1        0.1424
     21 H          -2.0270   -3.7744   -1.0444 H       1  LIG1        0.1424
     22 H          -4.8494   -3.0527   -0.1399 H       1  LIG1        0.0651
@<TRIPOS>BOND
     1    21    19    1
     2    10     8    1
     3    19    13    1
     4    19    20    1
     5     9     8    1
     6     6     5    1
     7    22    14    1
     8    13    14   ar
     9    13    12   ar
    10     7     1    1
    11    14    15   ar
    12     5     1   ar
    13     5     4   ar
    14     1     2   ar
    15    12     4    1
    16    12    16   ar
    17     4     3   ar
    18    15    16   ar
    19    15    18    1
    20     2     3   ar
    21     2     8    1
    22    16    17    1
    23     3    11    1
