@<TRIPOS>MOLECULE
mol_data/opt/cam/geoms/mol2/13ha13ha.out
 22 23 0 0 0
SMALL
GASTEIGER

@<TRIPOS>ATOM
      1 C           1.1348   -0.2787   -0.4421 C.ar    1  LIG1        0.0230
      2 C           0.7834    0.9544    0.0469 C.ar    1  LIG1        0.0427
      3 C          -0.6109    0.9143    0.3391 C.ar    1  LIG1       -0.0142
      4 C          -1.0715   -0.3466    0.0176 C.ar    1  LIG1        0.0665
      5 N           0.0012   -1.0743   -0.4301 N.ar    1  LIG1       -0.3578
      6 H          -0.0885   -1.9423   -0.9310 H       1  LIG1        0.1654
      7 H           2.0916   -0.6652   -0.7569 H       1  LIG1        0.0826
      8 N           1.6345    2.0388    0.3159 N.pl3   1  LIG1       -0.3568
      9 H           2.4927    2.0072   -0.2184 H       1  LIG1        0.1424
     10 H           1.1799    2.9303    0.1694 H       1  LIG1        0.1424
     11 H          -1.1937    1.6932    0.8102 H       1  LIG1        0.0658
     12 C          -2.4051   -0.9059    0.0791 C.ar    1  LIG1        0.0838
     13 C          -3.6268   -0.3196   -0.1875 C.ar    1  LIG1        0.0516
     14 C          -4.6258   -1.3191   -0.0227 C.ar    1  LIG1       -0.0230
     15 C          -3.9900   -2.4794    0.3402 C.ar    1  LIG1        0.0040
     16 N          -2.6475   -2.2382    0.3827 N.ar    1  LIG1       -0.3580
     17 H          -1.9663   -2.8443    0.8083 H       1  LIG1        0.1654
     18 H          -4.3925   -3.4533    0.5733 H       1  LIG1        0.0807
     19 N          -3.8404    1.0221   -0.5324 N.pl3   1  LIG1       -0.3563
     20 H          -2.9949    1.4602   -0.8795 H       1  LIG1        0.1424
     21 H          -4.5905    1.1371   -1.2017 H       1  LIG1        0.1424
     22 H          -5.6897   -1.1911   -0.1617 H       1  LIG1        0.0651
@<TRIPOS>BOND
     1    21    19    1
     2     6     5    1
     3    20    19    1
     4     7     1    1
     5    19    13    1
     6     1     5   ar
     7     1     2   ar
     8     5     4   ar
     9     9     8    1
    10    13    14   ar
    11    13    12   ar
    12    22    14    1
    13    14    15   ar
    14     4    12    1
    15     4     3   ar
    16     2     8    1
    17     2     3   ar
    18    12    16   ar
    19    10     8    1
    20     3    11    1
    21    15    16   ar
    22    15    18    1
    23    16    17    1
