@<TRIPOS>MOLECULE
mol_data/opt/cam/geoms/mol2/13ha13ha-13ha-13ha.out
 42 45 0 0 0
SMALL
GASTEIGER

@<TRIPOS>ATOM
      1 C           1.3091   -0.4106   -0.1685 C.ar    1  LIG1        0.0230
      2 C           0.9575    0.8661   -0.5477 C.ar    1  LIG1        0.0427
      3 C          -0.4605    0.9351   -0.5312 C.ar    1  LIG1       -0.0142
      4 C          -0.9279   -0.3079   -0.1403 C.ar    1  LIG1        0.0665
      5 N           0.1523   -1.1078    0.0821 N.ar    1  LIG1       -0.3578
      6 H           0.0332   -2.0691    0.3802 H       1  LIG1        0.1654
      7 H           2.2814   -0.8633   -0.0498 H       1  LIG1        0.0826
      8 N           1.8223    1.9414   -0.8342 N.pl3   1  LIG1       -0.3568
      9 H           2.7680    1.6310   -1.0172 H       1  LIG1        0.1424
     10 H           1.5008    2.4847   -1.6256 H       1  LIG1        0.1424
     11 H          -1.0555    1.8077   -0.7638 H       1  LIG1        0.0658
     12 C          -2.2656   -0.8251    0.0453 C.ar    1  LIG1        0.0843
     13 C          -2.6892   -2.0774    0.4449 C.ar    1  LIG1        0.0523
     14 C          -4.1114   -2.0736    0.4605 C.ar    1  LIG1       -0.0135
     15 C          -4.5280   -0.8181    0.0657 C.ar    1  LIG1        0.0670
     16 N          -3.3943   -0.0728   -0.1731 N.ar    1  LIG1       -0.3504
     17 H          -3.3952    0.8429   -0.5908 H       1  LIG1        0.1660
     18 N          -1.7891   -3.1379    0.7892 N.pl3   1  LIG1       -0.3563
     19 H          -1.9089   -3.4083    1.7616 H       1  LIG1        0.1424
     20 H          -1.9813   -3.9647    0.2312 H       1  LIG1        0.1424
     21 H          -4.7609   -2.8737    0.7871 H       1  LIG1        0.0658
     22 C          -5.8536   -0.2734   -0.1122 C.ar    1  LIG1        0.0843
     23 C          -7.0194   -0.9043   -0.5172 C.ar    1  LIG1        0.0523
     24 C          -8.0389    0.0773   -0.5752 C.ar    1  LIG1       -0.0135
     25 C          -7.4698    1.2848   -0.2065 C.ar    1  LIG1        0.0670
     26 N          -6.1521    1.0634    0.0606 N.ar    1  LIG1       -0.3504
     27 H          -5.5765    1.8019    0.4530 H       1  LIG1        0.1660
     28 N          -7.1586   -2.2734   -0.7910 N.pl3   1  LIG1       -0.3563
     29 H          -7.8422   -2.4530   -1.5154 H       1  LIG1        0.1424
     30 H          -6.2722   -2.6942   -1.0467 H       1  LIG1        0.1424
     31 H          -9.0702   -0.0949   -0.8517 H       1  LIG1        0.0658
     32 C          -8.0225    2.6122   -0.0515 C.ar    1  LIG1        0.0839
     33 C          -7.4221    3.7765    0.3931 C.ar    1  LIG1        0.0516
     34 C          -8.4021    4.8074    0.3642 C.ar    1  LIG1       -0.0230
     35 C          -9.5655    4.2472   -0.0941 C.ar    1  LIG1        0.0040
     36 N          -9.3262    2.9209   -0.3416 N.ar    1  LIG1       -0.3580
     37 H         -10.0024    2.2619   -0.6881 H       1  LIG1        0.1654
     38 H         -10.5390    4.6802   -0.2640 H       1  LIG1        0.0807
     39 N          -6.0506    3.8449    0.8027 N.pl3   1  LIG1       -0.3563
     40 H          -5.5481    4.5452    0.2650 H       1  LIG1        0.1424
     41 H          -5.9792    4.1183    1.7787 H       1  LIG1        0.1424
     42 H          -8.2610    5.8402    0.6500 H       1  LIG1        0.0651
@<TRIPOS>BOND
     1    10     8    1
     2    29    28    1
     3    30    28    1
     4     9     8    1
     5    31    24    1
     6     8     2    1
     7    28    23    1
     8    11     3    1
     9    37    36    1
    10    17    16    1
    11    24    23   ar
    12    24    25   ar
    13     2     3   ar
    14     2     1   ar
    15     3     4   ar
    16    23    22   ar
    17    36    35   ar
    18    36    32   ar
    19    38    35    1
    20    25    32    1
    21    25    26   ar
    22    16    12   ar
    23    16    15   ar
    24     1     7    1
    25     1     5   ar
    26     4    12    1
    27     4     5   ar
    28    22    26   ar
    29    22    15    1
    30    35    34   ar
    31    32    33   ar
    32    12    13   ar
    33    26    27    1
    34    15    14   ar
    35     5     6    1
    36    20    18    1
    37    40    39    1
    38    34    33   ar
    39    34    42    1
    40    33    39    1
    41    13    14   ar
    42    13    18    1
    43    14    21    1
    44    18    19    1
    45    39    41    1
