@<TRIPOS>MOLECULE
mol_data/opt/cam/geoms/mol2/13ha13ha13ha-13ha-.out
 42 45 0 0 0
SMALL
GASTEIGER

@<TRIPOS>ATOM
      1 C           1.2282   -0.1610   -0.6053 C.ar    1  LIG1        0.0230
      2 C           0.8863    1.0438   -0.0436 C.ar    1  LIG1        0.0427
      3 C          -0.5082    0.9991    0.2429 C.ar    1  LIG1       -0.0142
      4 C          -0.9795   -0.2378   -0.1547 C.ar    1  LIG1        0.0665
      5 N           0.0869   -0.9432   -0.6460 N.ar    1  LIG1       -0.3578
      6 H          -0.0017   -1.7993   -1.1665 H       1  LIG1        0.1654
      7 H           2.1819   -0.5362   -0.9425 H       1  LIG1        0.0826
      8 N           1.7471    2.1037    0.2894 N.pl3   1  LIG1       -0.3568
      9 H           2.6078    2.0904   -0.2418 H       1  LIG1        0.1424
     10 H           1.3026    3.0061    0.1826 H       1  LIG1        0.1424
     11 H          -1.0830    1.7517    0.7639 H       1  LIG1        0.0658
     12 C          -2.3165   -0.7871   -0.1282 C.ar    1  LIG1        0.0843
     13 C          -3.5359   -0.1499   -0.2942 C.ar    1  LIG1        0.0523
     14 C          -4.5472   -1.1401   -0.2353 C.ar    1  LIG1       -0.0135
     15 C          -3.9200   -2.3592   -0.0376 C.ar    1  LIG1        0.0670
     16 N          -2.5762   -2.1353    0.0152 N.ar    1  LIG1       -0.3504
     17 H          -1.9379   -2.8806    0.2726 H       1  LIG1        0.1660
     18 N          -3.7268    1.2299   -0.4610 N.pl3   1  LIG1       -0.3563
     19 H          -2.8841    1.6842   -0.7948 H       1  LIG1        0.1424
     20 H          -4.4982    1.4403   -1.0812 H       1  LIG1        0.1424
     21 H          -5.6114   -0.9662   -0.3172 H       1  LIG1        0.0658
     22 C          -4.4378   -3.6970    0.1296 C.ar    1  LIG1        0.0843
     23 C          -3.7787   -4.8772    0.4151 C.ar    1  LIG1        0.0523
     24 C          -4.7484   -5.9159    0.4737 C.ar    1  LIG1       -0.0135
     25 C          -5.9800   -5.3503    0.2177 C.ar    1  LIG1        0.0670
     26 N          -5.7743   -4.0007    0.0241 N.ar    1  LIG1       -0.3504
     27 H          -6.4715   -3.3694   -0.3347 H       1  LIG1        0.1660
     28 N          -2.3648   -4.9528    0.6343 N.pl3   1  LIG1       -0.3563
     29 H          -2.1642   -5.2310    1.5912 H       1  LIG1        0.1424
     30 H          -1.9473   -5.6573    0.0332 H       1  LIG1        0.1424
     31 H          -4.5792   -6.9515    0.7338 H       1  LIG1        0.0658
     32 C          -7.2959   -5.9435    0.1316 C.ar    1  LIG1        0.0839
     33 C          -7.6845   -7.1680   -0.3762 C.ar    1  LIG1        0.0516
     34 C          -9.0993   -7.2514   -0.2557 C.ar    1  LIG1       -0.0230
     35 C          -9.5320   -6.0837    0.3200 C.ar    1  LIG1        0.0040
     36 N          -8.4483   -5.2831    0.5357 N.ar    1  LIG1       -0.3580
     37 H          -8.4469   -4.4654    1.1224 H       1  LIG1        0.1654
     38 H         -10.5268   -5.7657    0.5920 H       1  LIG1        0.0807
     39 N          -6.8322   -8.1537   -0.8919 N.pl3   1  LIG1       -0.3563
     40 H          -7.2531   -8.6731   -1.6513 H       1  LIG1        0.1424
     41 H          -5.9432   -7.7670   -1.1877 H       1  LIG1        0.1424
     42 H          -9.7216   -8.0784   -0.5662 H       1  LIG1        0.0651
@<TRIPOS>BOND
     1    40    39    1
     2    41    39    1
     3     6     5    1
     4    20    18    1
     5     7     1    1
     6    39    33    1
     7    19    18    1
     8     5     1   ar
     9     5     4   ar
    10     1     2   ar
    11    42    34    1
    12    18    13    1
    13    33    34   ar
    14    33    32   ar
    15    27    26    1
    16    21    14    1
    17    13    14   ar
    18    13    12   ar
    19    34    35   ar
    20     9     8    1
    21    14    15   ar
    22     4    12    1
    23     4     3   ar
    24    12    16   ar
    25     2     3   ar
    26     2     8    1
    27    15    16   ar
    28    15    22    1
    29    16    17    1
    30    26    22   ar
    31    26    25   ar
    32    30    28    1
    33    22    23   ar
    34    32    25    1
    35    32    36   ar
    36    10     8    1
    37    25    24   ar
    38     3    11    1
    39    35    36   ar
    40    35    38    1
    41    23    24   ar
    42    23    28    1
    43    24    31    1
    44    36    37    1
    45    28    29    1
