@<TRIPOS>MOLECULE
mol_data/opt/cam/geoms/mol2/13ha13ha13ha13ha.out
 42 45 0 0 0
SMALL
GASTEIGER

@<TRIPOS>ATOM
      1 C           0.8644    0.2302   -1.4706 C.ar    1  LIG1        0.0230
      2 C           0.8334    1.1204   -0.4272 C.ar    1  LIG1        0.0427
      3 C          -0.3571    0.8650    0.3140 C.ar    1  LIG1       -0.0142
      4 C          -1.0208   -0.1773   -0.3009 C.ar    1  LIG1        0.0665
      5 N          -0.2565   -0.5781   -1.3687 N.ar    1  LIG1       -0.3578
      6 H          -0.6104   -1.1437   -2.1220 H       1  LIG1        0.1654
      7 H           1.6008    0.0774   -2.2442 H       1  LIG1        0.0826
      8 N           1.8231    2.0500   -0.0701 N.pl3   1  LIG1       -0.3568
      9 H           2.4215    2.3059   -0.8442 H       1  LIG1        0.1424
     10 H           1.4349    2.8859    0.3464 H       1  LIG1        0.1424
     11 H          -0.6519    1.3338    1.2422 H       1  LIG1        0.0658
     12 C          -2.2878   -0.7995    0.0158 C.ar    1  LIG1        0.0843
     13 C          -3.4609   -0.2368    0.4806 C.ar    1  LIG1        0.0523
     14 C          -4.4229   -1.2752    0.5913 C.ar    1  LIG1       -0.0135
     15 C          -3.8211   -2.4554    0.1924 C.ar    1  LIG1        0.0670
     16 N          -2.5294   -2.1564   -0.1546 N.ar    1  LIG1       -0.3504
     17 H          -1.8531   -2.8159   -0.4999 H       1  LIG1        0.1660
     18 N          -3.6445    1.1066    0.8305 N.pl3   1  LIG1       -0.3563
     19 H          -2.9586    1.7105    0.3925 H       1  LIG1        0.1424
     20 H          -4.5802    1.4372    0.6349 H       1  LIG1        0.1424
     21 H          -5.4259   -1.1899    0.9845 H       1  LIG1        0.0658
     22 C          -4.3598   -3.7946    0.1076 C.ar    1  LIG1        0.0843
     23 C          -5.6174   -4.2175   -0.2796 C.ar    1  LIG1        0.0523
     24 C          -5.6321   -5.6361   -0.2240 C.ar    1  LIG1       -0.0135
     25 C          -4.3833   -6.0560    0.1971 C.ar    1  LIG1        0.0670
     26 N          -3.6200   -4.9355    0.3918 N.ar    1  LIG1       -0.3504
     27 H          -2.6661   -4.9404    0.7109 H       1  LIG1        0.1660
     28 N          -6.6948   -3.3883   -0.6136 N.pl3   1  LIG1       -0.3563
     29 H          -6.3916   -2.4629   -0.8939 H       1  LIG1        0.1424
     30 H          -7.2954   -3.7915   -1.3203 H       1  LIG1        0.1424
     31 H          -6.4786   -6.2827   -0.4060 H       1  LIG1        0.0658
     32 C          -3.8671   -7.3900    0.4140 C.ar    1  LIG1        0.0839
     33 C          -4.0854   -8.5496   -0.3036 C.ar    1  LIG1        0.0516
     34 C          -3.3067   -9.5778    0.2972 C.ar    1  LIG1       -0.0230
     35 C          -2.6417   -9.0212    1.3598 C.ar    1  LIG1        0.0040
     36 N          -2.9594   -7.6950    1.4202 N.ar    1  LIG1       -0.3580
     37 H          -2.7958   -7.1065    2.2203 H       1  LIG1        0.1654
     38 H          -1.9709   -9.4697    2.0764 H       1  LIG1        0.0807
     39 N          -4.9371   -8.6891   -1.4070 N.pl3   1  LIG1       -0.3563
     40 H          -5.1401   -7.7979   -1.8446 H       1  LIG1        0.1424
     41 H          -4.5839   -9.3424   -2.0939 H       1  LIG1        0.1424
     42 H          -3.2445  -10.6069   -0.0263 H       1  LIG1        0.0651
@<TRIPOS>BOND
     1     7     1    1
     2     6     5    1
     3    41    39    1
     4    40    39    1
     5     1     5   ar
     6     1     2   ar
     7    39    33    1
     8     5     4   ar
     9    30    28    1
    10    29    28    1
    11     9     8    1
    12    28    23    1
    13    17    16    1
    14     2     8    1
    15     2     3   ar
    16    31    24    1
    17    33    34   ar
    18    33    32   ar
    19     4    12    1
    20     4     3   ar
    21    23    24   ar
    22    23    22   ar
    23    24    25   ar
    24    16    12   ar
    25    16    15   ar
    26     8    10    1
    27    42    34    1
    28    12    13   ar
    29    22    15    1
    30    22    26   ar
    31    15    14   ar
    32    25    26   ar
    33    25    32    1
    34    34    35   ar
    35     3    11    1
    36    26    27    1
    37    19    18    1
    38    32    36   ar
    39    13    14   ar
    40    13    18    1
    41    14    21    1
    42    20    18    1
    43    35    36   ar
    44    35    38    1
    45    36    37    1
