@<TRIPOS>MOLECULE
mol_data/opt/cam/geoms/mol2/13ha13ha13ha.out
 32 34 0 0 0
SMALL
GASTEIGER

@<TRIPOS>ATOM
      1 C           1.0736   -0.0872   -0.9218 C.ar    1  LIG1        0.0230
      2 C           0.8491    0.9840   -0.0944 C.ar    1  LIG1        0.0427
      3 C          -0.4763    0.8573    0.4144 C.ar    1  LIG1       -0.0142
      4 C          -1.0245   -0.2914   -0.1194 C.ar    1  LIG1        0.0665
      5 N          -0.0651   -0.8763   -0.9081 N.ar    1  LIG1       -0.3578
      6 H          -0.2684   -1.5817   -1.5964 H       1  LIG1        0.1654
      7 H           1.9511   -0.3738   -1.4805 H       1  LIG1        0.0826
      8 N           1.7670    1.9777    0.2815 N.pl3   1  LIG1       -0.3568
      9 H           2.5213    2.0894   -0.3829 H       1  LIG1        0.1424
     10 H           1.3231    2.8724    0.4410 H       1  LIG1        0.1424
     11 H          -0.9458    1.4892    1.1550 H       1  LIG1        0.0658
     12 C          -2.3455   -0.8604    0.0345 C.ar    1  LIG1        0.0843
     13 C          -3.5751   -0.2370    0.1288 C.ar    1  LIG1        0.0523
     14 C          -4.5658   -1.2498    0.2247 C.ar    1  LIG1       -0.0135
     15 C          -3.9239   -2.4745    0.1875 C.ar    1  LIG1        0.0670
     16 N          -2.5817   -2.2282    0.0711 N.ar    1  LIG1       -0.3504
     17 H          -1.8679   -2.9349    0.0171 H       1  LIG1        0.1660
     18 N          -3.7930    1.1456    0.1752 N.pl3   1  LIG1       -0.3563
     19 H          -3.0139    1.6659   -0.2111 H       1  LIG1        0.1424
     20 H          -4.6565    1.4204   -0.2741 H       1  LIG1        0.1424
     21 H          -5.6266   -1.1060    0.3728 H       1  LIG1        0.0658
     22 C          -4.4615   -3.8167    0.2425 C.ar    1  LIG1        0.0839
     23 C          -5.6110   -4.3326   -0.3230 C.ar    1  LIG1        0.0516
     24 C          -5.6580   -5.7192   -0.0078 C.ar    1  LIG1       -0.0230
     25 C          -4.5449   -6.0083    0.7397 C.ar    1  LIG1        0.0040
     26 N          -3.8082   -4.8670    0.8740 N.ar    1  LIG1       -0.3580
     27 H          -3.0712   -4.7399    1.5476 H       1  LIG1        0.1654
     28 H          -4.2254   -6.9373    1.1864 H       1  LIG1        0.0807
     29 N          -6.5657   -3.6128   -1.0532 N.pl3   1  LIG1       -0.3563
     30 H          -6.1912   -2.7409   -1.4090 H       1  LIG1        0.1424
     31 H          -6.9690   -4.1523   -1.8080 H       1  LIG1        0.1424
     32 H          -6.4257   -6.4187   -0.3061 H       1  LIG1        0.0651
@<TRIPOS>BOND
     1    31    29    1
     2     6     5    1
     3     7     1    1
     4    30    29    1
     5    29    23    1
     6     1     5   ar
     7     1     2   ar
     8     5     4   ar
     9     9     8    1
    10    23    24   ar
    11    23    22   ar
    12    32    24    1
    13    20    18    1
    14    19    18    1
    15     4    12    1
    16     4     3   ar
    17     2     8    1
    18     2     3   ar
    19    24    25   ar
    20    17    16    1
    21    12    16   ar
    22    12    13   ar
    23    16    15   ar
    24    13    18    1
    25    13    14   ar
    26    15    14   ar
    27    15    22    1
    28    14    21    1
    29    22    26   ar
    30     8    10    1
    31     3    11    1
    32    25    26   ar
    33    25    28    1
    34    26    27    1
