@<TRIPOS>MOLECULE
mol_data/opt/cam/geoms/mol2/13ha13dd6ea-12hf-4ff-12fd13ei-6ii.out
 92 99 0 0 0
SMALL
GASTEIGER

@<TRIPOS>ATOM
      1 C           0.9928    0.5505    0.4515 C.ar    1  LIG1        0.0230
      2 C           0.4500    1.7266    0.9173 C.ar    1  LIG1        0.0427
      3 C          -0.9624    1.5912    0.8556 C.ar    1  LIG1       -0.0142
      4 C          -1.2383    0.3376    0.3546 C.ar    1  LIG1        0.0660
      5 N          -0.0429   -0.3051    0.1409 N.ar    1  LIG1       -0.3579
      6 H           0.0623   -1.1244   -0.4352 H       1  LIG1        0.1654
      7 H           2.0226    0.2504    0.3359 H       1  LIG1        0.0826
      8 N           1.1342    2.8276    1.4429 N.pl3   1  LIG1       -0.3568
      9 H           2.0884    2.9027    1.1182 H       1  LIG1        0.1424
     10 H           0.6480    3.7010    1.2918 H       1  LIG1        0.1424
     11 H          -1.6951    2.3182    1.1738 H       1  LIG1        0.0658
     12 C          -2.5004   -0.3103    0.0895 C.ar    1  LIG1        0.0822
     13 C          -3.7389    0.2092   -0.2476 C.ar    1  LIG1        0.0963
     14 C          -4.6310   -0.8957   -0.4265 C.ar    1  LIG1        0.0950
     15 C          -3.9131   -2.0632   -0.1932 C.ar    1  LIG1        0.0685
     16 N          -2.6377   -1.6680    0.1156 N.ar    1  LIG1       -0.3509
     17 H          -1.9075   -2.3144    0.3787 H       1  LIG1        0.1660
     18 N          -4.2803    2.7112   -0.5335 N.1     1  LIG1       -0.1908
     19 C          -4.0439    1.5844   -0.4120 C.1     1  LIG1        0.1026
     20 N          -7.0987   -0.6933   -1.1414 N.1     1  LIG1       -0.1908
     21 C          -5.9893   -0.7838   -0.8224 C.1     1  LIG1        0.1026
     22 C          -3.4536   -4.5592   -0.3544 C.ar    1  LIG1        0.1230
     23 C          -4.3338   -3.4636   -0.2228 C.ar    1  LIG1        0.0335
     24 C          -5.6942   -3.7873   -0.1013 C.ar    1  LIG1       -0.0478
     25 C          -6.1137   -5.0958   -0.1526 C.ar    1  LIG1       -0.0319
     26 C          -5.1576   -6.1107   -0.3243 C.ar    1  LIG1        0.1094
     27 N          -3.8542   -5.8310   -0.4065 N.ar    1  LIG1       -0.2346
     28 H          -6.4247   -3.0028    0.0481 H       1  LIG1        0.0626
     29 C          -2.0201   -4.4129   -0.4470 C.1     1  LIG1       -0.0491
     30 C          -0.8188   -4.3401   -0.5073 C.1     1  LIG1       -0.1124
     31 H           0.2456   -4.3276   -0.5766 H       1  LIG1        0.1232
     32 H          -7.1590   -5.3454   -0.0175 H       1  LIG1        0.0640
     33 C          -5.5497   -7.5012   -0.3953 C.ar    1  LIG1        0.1781
     34 C          -6.7656   -8.1198   -0.5456 C.ar    1  LIG1        0.1153
     35 C          -6.5043   -9.5208   -0.5084 C.ar    1  LIG1        0.1846
     36 C          -5.1504   -9.6786   -0.3419 C.ar    1  LIG1        0.1825
     37 O          -4.5718   -8.4433   -0.2853 O.2     1  LIG1       -0.4475
     38 N          -8.0392   -7.5805   -0.6923 N.pl3   1  LIG1       -0.3521
     39 H          -8.1048   -6.8470   -1.3862 H       1  LIG1        0.1425
     40 H          -8.7236   -8.3054   -0.8708 H       1  LIG1        0.1425
     41 O          -7.5080  -10.4035   -0.6702 O.3     1  LIG1       -0.5020
     42 H          -7.1649  -11.2911   -0.4583 H       1  LIG1        0.2924
     43 C          -4.6045  -12.1287   -0.0673 C.ar    1  LIG1        0.1285
     44 C          -3.6657  -13.1390   -0.0164 C.ar    1  LIG1       -0.0052
     45 C          -4.2240  -10.7970   -0.2739 C.ar    1  LIG1        0.0658
     46 C          -2.2940  -12.8883   -0.1561 C.ar    1  LIG1        0.0658
     47 H          -3.9919  -14.1610    0.1457 H       1  LIG1        0.0662
     48 C          -2.8546  -10.5489   -0.4100 C.ar    1  LIG1       -0.0052
     49 C          -1.9011  -11.5523   -0.3561 C.ar    1  LIG1        0.1285
     50 H          -2.5392   -9.5220   -0.5644 H       1  LIG1        0.0662
     51 O          -5.9433  -12.4121    0.1096 O.3     1  LIG1       -0.5060
     52 H          -6.0603  -13.3566    0.2640 H       1  LIG1        0.2922
     53 O          -0.5751  -11.2495   -0.5097 O.3     1  LIG1       -0.5060
     54 H          -0.5027  -10.2995   -0.6619 H       1  LIG1        0.2922
     55 C          -1.3701  -14.0032   -0.0899 C.ar    1  LIG1        0.1819
     56 C          -1.5311  -15.3570   -0.0002 C.ar    1  LIG1        0.1812
     57 C          -0.2251  -15.9515    0.0361 C.ar    1  LIG1        0.1409
     58 C           0.6700  -14.9050   -0.0285 C.ar    1  LIG1        0.1740
     59 O          -0.0219  -13.7531   -0.1000 O.2     1  LIG1       -0.4481
     60 O          -2.7039  -16.0249    0.0415 O.3     1  LIG1       -0.5023
     61 H          -2.5276  -16.9760    0.0769 H       1  LIG1        0.2923
     62 N          -0.1233  -18.5143    0.1189 N.1     1  LIG1       -0.1906
     63 C          -0.0681  -17.3573    0.0861 C.1     1  LIG1        0.1067
     64 C           2.0912  -14.7067   -0.0575 C.ar    1  LIG1        0.0998
     65 C           3.2053  -15.5215    0.1263 C.ar    1  LIG1        0.0565
     66 C           4.3614  -14.6983   -0.0089 C.ar    1  LIG1       -0.0091
     67 C           3.9178  -13.4106   -0.2634 C.ar    1  LIG1        0.0529
     68 N           2.5505  -13.4399   -0.2853 N.ar    1  LIG1       -0.3505
     69 H           1.9366  -12.6611   -0.4723 H       1  LIG1        0.1660
     70 C           3.2129  -16.9055    0.4363 C.1     1  LIG1       -0.0672
     71 C           3.2446  -18.0783    0.7078 C.1     1  LIG1       -0.1138
     72 H           3.2322  -19.1188    0.9379 H       1  LIG1        0.1232
     73 C           5.7708  -15.1726    0.1457 C.3     1  LIG1       -0.0365
     74 H           6.4397  -14.3525    0.4145 H       1  LIG1        0.0279
     75 H           6.1516  -15.6272   -0.7753 H       1  LIG1        0.0279
     76 H           5.8315  -15.9358    0.9251 H       1  LIG1        0.0279
     77 C           4.3328  -10.9431    0.1046 C.ar    1  LIG1        0.0473
     78 C           4.6689  -12.1704   -0.5043 C.ar    1  LIG1        0.0199
     79 C           5.7634  -12.1899   -1.3669 C.ar    1  LIG1       -0.0466
     80 C           6.4945  -11.0345   -1.6199 C.ar    1  LIG1       -0.0317
     81 C           6.0584   -9.8793   -0.9806 C.ar    1  LIG1        0.0308
     82 N           5.0211   -9.8297   -0.1480 N.ar    1  LIG1       -0.2593
     83 H           6.0329  -13.1199   -1.8585 H       1  LIG1        0.0628
     84 H           6.5810   -8.9387   -1.1472 H       1  LIG1        0.0832
     85 C           3.2043  -10.7997    1.0937 C.3     1  LIG1       -0.0217
     86 H           3.1429  -11.6561    1.7687 H       1  LIG1        0.0293
     87 H           2.2287  -10.7019    0.6032 H       1  LIG1        0.0293
     88 H           3.3679   -9.8914    1.6732 H       1  LIG1        0.0293
     89 C           7.6849  -11.0304   -2.5378 C.3     1  LIG1       -0.0383
     90 H           8.0564  -10.0158   -2.6965 H       1  LIG1        0.0278
     91 H           7.4358  -11.4538   -3.5150 H       1  LIG1        0.0278
     92 H           8.5061  -11.6247   -2.1255 H       1  LIG1        0.0278
@<TRIPOS>BOND
     1    91    89    1
     2    90    89    1
     3    89    92    1
     4    89    80    1
     5    83    79    1
     6    80    79   ar
     7    80    81   ar
     8    39    38    1
     9    79    78   ar
    10    84    81    1
    11    20    21    3
    12    81    82   ar
    13    40    38    1
    14    21    14    1
    15    75    73    1
    16    38    34    1
    17    41    35    1
    18    41    42    1
    19    54    53    1
    20    31    30    1
    21    50    48    1
    22    34    35   ar
    23    34    33   ar
    24    18    19    3
    25    53    49    1
    26    35    36   ar
    27    30    29    3
    28    78    67    1
    29    78    77   ar
    30    69    68    1
    31    29    22    1
    32     6     5    1
    33    14    13   ar
    34    14    15   ar
    35    19    13    1
    36    48    49   ar
    37    48    45   ar
    38    27    22   ar
    39    27    26   ar
    40    33    26    1
    41    33    37   ar
    42    49    46   ar
    43    22    23   ar
    44    36    37   ar
    45    36    45    1
    46    26    25   ar
    47    68    67   ar
    48    68    64   ar
    49    45    43   ar
    50    67    66   ar
    51    13    12   ar
    52    23    15    1
    53    23    24   ar
    54    15    16   ar
    55    46    55    1
    56    46    44   ar
    57    25    24   ar
    58    25    32    1
    59    82    77   ar
    60    24    28    1
    61    59    55   ar
    62    59    58   ar
    63    55    56   ar
    64    43    44   ar
    65    43    51    1
    66    64    58    1
    67    64    65   ar
    68    58    57   ar
    69    44    47    1
    70    66    65   ar
    71    66    73    1
    72    56    57   ar
    73    56    60    1
    74    57    63    1
    75    60    61    1
    76    63    62    3
    77    12    16   ar
    78    12     4    1
    79    77    85    1
    80    51    52    1
    81    16    17    1
    82    65    70    1
    83     5     4   ar
    84     5     1   ar
    85    73    74    1
    86    73    76    1
    87     7     1    1
    88     4     3   ar
    89    70    71    3
    90     1     2   ar
    91    87    85    1
    92    71    72    1
    93     3     2   ar
    94     3    11    1
    95     2     8    1
    96    85    88    1
    97    85    86    1
    98     9     8    1
    99    10     8    1
