@<TRIPOS>MOLECULE
mol_data/opt/cam/geoms/mol2/13ha13ha13ha-13ha.out
 42 45 0 0 0
SMALL
GASTEIGER

@<TRIPOS>ATOM
      1 C           1.2130   -0.0932   -0.6330 C.ar    1  LIG1        0.0230
      2 C           0.8838    1.0554    0.0421 C.ar    1  LIG1        0.0427
      3 C          -0.4980    0.9709    0.3780 C.ar    1  LIG1       -0.0142
      4 C          -0.9749   -0.2334   -0.1044 C.ar    1  LIG1        0.0665
      5 N           0.0771   -0.8825   -0.6950 N.ar    1  LIG1       -0.3578
      6 H          -0.0270   -1.6905   -1.2849 H       1  LIG1        0.1654
      7 H           2.1556   -0.4278   -1.0374 H       1  LIG1        0.0826
      8 N           1.7487    2.0936    0.4302 N.pl3   1  LIG1       -0.3568
      9 H           2.5843    2.1384   -0.1381 H       1  LIG1        0.1424
     10 H           1.2907    2.9956    0.4209 H       1  LIG1        0.1424
     11 H          -1.0577    1.6701    0.9829 H       1  LIG1        0.0658
     12 C          -2.3046   -0.7994   -0.0740 C.ar    1  LIG1        0.0843
     13 C          -3.5361   -0.1665   -0.1351 C.ar    1  LIG1        0.0523
     14 C          -4.5345   -1.1712   -0.1323 C.ar    1  LIG1       -0.0135
     15 C          -3.8883   -2.3942   -0.0714 C.ar    1  LIG1        0.0670
     16 N          -2.5454   -2.1586   -0.0470 N.ar    1  LIG1       -0.3504
     17 H          -1.8901   -2.9166    0.1101 H       1  LIG1        0.1660
     18 N          -3.7462    1.2207   -0.1681 N.pl3   1  LIG1       -0.3563
     19 H          -2.9247    1.7129   -0.5012 H       1  LIG1        0.1424
     20 H          -4.5483    1.4739   -0.7310 H       1  LIG1        0.1424
     21 H          -5.6031   -1.0098   -0.1645 H       1  LIG1        0.0658
     22 C          -4.3882   -3.7484   -0.0071 C.ar    1  LIG1        0.0843
     23 C          -3.6974   -4.9427    0.1325 C.ar    1  LIG1        0.0523
     24 C          -4.6500   -5.9940    0.1475 C.ar    1  LIG1       -0.0135
     25 C          -5.8969   -5.4144    0.0163 C.ar    1  LIG1        0.0670
     26 N          -5.7167   -4.0595   -0.0741 N.ar    1  LIG1       -0.3504
     27 H          -6.5127   -3.4378   -0.1774 H       1  LIG1        0.1660
     28 N          -2.2712   -5.0197    0.2488 N.pl3   1  LIG1       -0.3563
     29 H          -2.0033   -5.4149    1.1458 H       1  LIG1        0.1424
     30 H          -1.8827   -5.6267   -0.4672 H       1  LIG1        0.1424
     31 H          -4.4332   -7.0493    0.2462 H       1  LIG1        0.0658
     32 C          -7.2328   -5.9667   -0.0366 C.ar    1  LIG1        0.0839
     33 C          -8.4529   -5.3269   -0.1600 C.ar    1  LIG1        0.0516
     34 C          -9.4668   -6.3252   -0.1634 C.ar    1  LIG1       -0.0230
     35 C          -8.8415   -7.5382   -0.0431 C.ar    1  LIG1        0.0040
     36 N          -7.4921   -7.3111    0.0336 N.ar    1  LIG1       -0.3580
     37 H          -6.7872   -8.0225    0.1253 H       1  LIG1        0.1654
     38 H          -9.2423   -8.5392   -0.0055 H       1  LIG1        0.0807
     39 N          -8.5863   -3.9041   -0.2597 N.pl3   1  LIG1       -0.3563
     40 H          -9.0757   -3.6457   -1.1114 H       1  LIG1        0.1424
     41 H          -9.1295   -3.5364    0.5162 H       1  LIG1        0.1424
     42 H         -10.5322   -6.1624   -0.2451 H       1  LIG1        0.0651
@<TRIPOS>BOND
     1     6     5    1
     2    40    39    1
     3     7     1    1
     4    20    18    1
     5     5     1   ar
     6     5     4   ar
     7     1     2   ar
     8    19    18    1
     9    30    28    1
    10    39    33    1
    11    39    41    1
    12    42    34    1
    13    27    26    1
    14    18    13    1
    15    21    14    1
    16    34    33   ar
    17    34    35   ar
    18    33    32   ar
    19     9     8    1
    20    13    14   ar
    21    13    12   ar
    22    14    15   ar
    23     4    12    1
    24     4     3   ar
    25    26    22   ar
    26    26    25   ar
    27    12    16   ar
    28    15    16   ar
    29    15    22    1
    30    16    17    1
    31    35    38    1
    32    35    36   ar
    33    32    25    1
    34    32    36   ar
    35    22    23   ar
    36    25    24   ar
    37    36    37    1
    38     2     3   ar
    39     2     8    1
    40    23    24   ar
    41    23    28    1
    42    24    31    1
    43    28    29    1
    44     3    11    1
    45    10     8    1
