@<TRIPOS>MOLECULE
mol_data/opt/cam/geoms/mol2/13ha13fd6eh-12ad-.out
 43 46 0 0 0
SMALL
GASTEIGER

@<TRIPOS>ATOM
      1 C           1.1814    0.0509    0.6971 C.ar    1  LIG1        0.0230
      2 C           0.8265    1.2391    0.1042 C.ar    1  LIG1        0.0427
      3 C          -0.5463    1.1404   -0.2529 C.ar    1  LIG1       -0.0142
      4 C          -0.9885   -0.1059    0.1327 C.ar    1  LIG1        0.0683
      5 N           0.0723   -0.7743    0.6916 N.ar    1  LIG1       -0.3578
      6 H          -0.0148   -1.5965    1.2656 H       1  LIG1        0.1654
      7 H           2.1212   -0.2742    1.1153 H       1  LIG1        0.0826
      8 N           1.6320    2.3719   -0.0783 N.pl3   1  LIG1       -0.3568
      9 H           2.6209    2.1620   -0.0802 H       1  LIG1        0.1424
     10 H           1.3925    2.8917   -0.9117 H       1  LIG1        0.1424
     11 H          -1.1454    1.8889   -0.7496 H       1  LIG1        0.0658
     12 C          -2.2930   -0.7123    0.0041 C.ar    1  LIG1        0.1067
     13 C          -3.5427   -0.1407   -0.1107 C.ar    1  LIG1        0.1615
     14 C          -4.4969   -1.1894   -0.1855 C.ar    1  LIG1        0.1190
     15 C          -3.8017   -2.4068   -0.1183 C.ar    1  LIG1        0.0709
     16 N          -2.4879   -2.0752   -0.0043 N.ar    1  LIG1       -0.3490
     17 H          -1.7467   -2.7607   -0.0660 H       1  LIG1        0.1661
     18 O          -3.7771    1.1895   -0.1433 O.3     1  LIG1       -0.5034
     19 H          -4.7295    1.3486   -0.1762 H       1  LIG1        0.2923
     20 N          -7.0060   -0.6672   -0.4176 N.1     1  LIG1       -0.1907
     21 C          -5.8837   -0.9424   -0.3158 C.1     1  LIG1        0.1050
     22 C          -3.4713   -4.9220   -0.3376 C.ar    1  LIG1        0.1232
     23 C          -4.2924   -3.7819   -0.1504 C.ar    1  LIG1        0.0353
     24 C          -5.6563   -4.0259    0.0028 C.ar    1  LIG1       -0.0270
     25 C          -6.1803   -5.3131   -0.0321 C.ar    1  LIG1        0.0547
     26 C          -5.2625   -6.3765   -0.1911 C.ar    1  LIG1        0.1279
     27 N          -3.9640   -6.1596   -0.3468 N.ar    1  LIG1       -0.2328
     28 H          -6.3413   -3.1997    0.1464 H       1  LIG1        0.0644
     29 C          -2.0476   -4.8582   -0.5378 C.1     1  LIG1       -0.0491
     30 C          -0.8539   -4.8393   -0.7048 C.1     1  LIG1       -0.1124
     31 H           0.1980   -4.8524   -0.8802 H       1  LIG1        0.1232
     32 N          -7.5340   -5.5285    0.1248 N.pl3   1  LIG1       -0.3562
     33 H          -8.1183   -4.7139    0.0022 H       1  LIG1        0.1424
     34 H          -7.9045   -6.3543   -0.3236 H       1  LIG1        0.1424
     35 C          -5.6945   -7.7759   -0.1907 C.ar    1  LIG1        0.1560
     36 C          -6.7343   -8.4434    0.3844 C.ar    1  LIG1        0.0032
     37 C          -6.5596   -9.8243    0.0409 C.ar    1  LIG1        0.0900
     38 C          -5.4289   -9.8838   -0.7171 C.ar    1  LIG1        0.1100
     39 O          -4.9020   -8.6601   -0.8625 O.2     1  LIG1       -0.4600
     40 H          -4.9132  -10.6992   -1.1986 H       1  LIG1        0.1043
     41 H          -7.5001   -8.0307    1.0219 H       1  LIG1        0.0669
     42 N          -8.0694  -11.8058    0.7098 N.1     1  LIG1       -0.1908
     43 C          -7.3888  -10.9203    0.4088 C.1     1  LIG1        0.1023
@<TRIPOS>BOND
     1    40    38    1
     2    10     8    1
     3    31    30    1
     4    39    38   ar
     5    39    35   ar
     6    11     3    1
     7    38    37   ar
     8    30    29    3
     9    29    22    1
    10    20    21    3
    11    27    22   ar
    12    27    26   ar
    13    22    23   ar
    14    34    32    1
    15    21    14    1
    16     3     2   ar
    17     3     4   ar
    18    26    35    1
    19    26    25   ar
    20    35    36   ar
    21    14    15   ar
    22    14    13   ar
    23    19    18    1
    24    23    15    1
    25    23    24   ar
    26    18    13    1
    27    15    16   ar
    28    13    12   ar
    29     9     8    1
    30     8     2    1
    31    17    16    1
    32    25    24   ar
    33    25    32    1
    34    16    12   ar
    35    33    32    1
    36    24    28    1
    37    12     4    1
    38    37    36   ar
    39    37    43    1
    40     2     1   ar
    41     4     5   ar
    42    36    41    1
    43    43    42    3
    44     5     1   ar
    45     5     6    1
    46     1     7    1
