@<TRIPOS>MOLECULE
mol_data/opt/cam/geoms/mol2/13ha12fl13af13dd-.out
 43 46 0 0 0
SMALL
GASTEIGER

@<TRIPOS>ATOM
      1 C           1.1793    0.2032    0.8012 C.ar    1  LIG1        0.0231
      2 C           0.7576    1.3257    0.1264 C.ar    1  LIG1        0.0428
      3 C          -0.5943    1.1034   -0.2538 C.ar    1  LIG1       -0.0126
      4 C          -0.9555   -0.1512    0.2074 C.ar    1  LIG1        0.0877
      5 N           0.1256   -0.6848    0.8456 N.ar    1  LIG1       -0.3565
      6 H           0.1169   -1.5608    1.3393 H       1  LIG1        0.1655
      7 H           2.1341   -0.0326    1.2441 H       1  LIG1        0.0826
      8 N           1.4841    2.5009   -0.1088 N.pl3   1  LIG1       -0.3568
      9 H           2.4836    2.3744   -0.0242 H       1  LIG1        0.1424
     10 H           1.2699    2.9233   -1.0024 H       1  LIG1        0.1424
     11 H          -1.2076    1.7558   -0.8602 H       1  LIG1        0.0658
     12 C          -2.2342   -0.8097    0.1482 C.ar    1  LIG1        0.1969
     13 C          -3.4957   -0.2925    0.1766 C.ar    1  LIG1        0.2076
     14 C          -4.3995   -1.4003    0.1341 C.ar    1  LIG1        0.2098
     15 C          -3.6243   -2.5254    0.0961 C.ar    1  LIG1        0.1971
     16 O          -2.3001   -2.1793    0.1178 O.2     1  LIG1       -0.4443
     17 O          -3.8630    1.0093    0.2624 O.3     1  LIG1       -0.5008
     18 H          -3.0830    1.5278    0.5101 H       1  LIG1        0.2924
     19 O          -5.7487   -1.4041    0.1941 O.3     1  LIG1       -0.4884
     20 C          -6.4093   -0.4595   -0.6465 C.3     1  LIG1        0.0791
     21 H          -7.4764   -0.6010   -0.4781 H       1  LIG1        0.0660
     22 H          -6.1256    0.5635   -0.3906 H       1  LIG1        0.0660
     23 H          -6.1781   -0.6511   -1.6998 H       1  LIG1        0.0660
     24 C          -3.9426   -3.9245    0.0467 C.ar    1  LIG1        0.0900
     25 C          -5.1532   -4.5764    0.1542 C.ar    1  LIG1        0.0090
     26 C          -4.8878   -5.9633    0.1056 C.ar    1  LIG1        0.1442
     27 C          -3.5137   -6.1366   -0.0424 C.ar    1  LIG1        0.1067
     28 N          -2.9565   -4.8619   -0.1058 N.ar    1  LIG1       -0.3476
     29 H          -1.9887   -4.6508    0.0814 H       1  LIG1        0.1661
     30 H          -6.1208   -4.1130    0.2589 H       1  LIG1        0.0677
     31 O          -5.8709   -6.8853    0.1066 O.3     1  LIG1       -0.5046
     32 H          -5.6029   -7.7009    0.5559 H       1  LIG1        0.2922
     33 C          -2.7084   -7.2994   -0.2924 C.ar    1  LIG1        0.0854
     34 C          -2.8362   -8.6216    0.1124 C.ar    1  LIG1        0.0958
     35 C          -1.7441   -9.3611   -0.4587 C.ar    1  LIG1        0.0870
     36 C          -0.9876   -8.4707   -1.1733 C.ar    1  LIG1        0.0210
     37 N          -1.5717   -7.2392   -1.0603 N.ar    1  LIG1       -0.3572
     38 H          -1.3043   -6.4240   -1.5893 H       1  LIG1        0.1655
     39 H          -0.0876   -8.6290   -1.7453 H       1  LIG1        0.0820
     40 N          -4.7507   -9.3971    1.6429 N.1     1  LIG1       -0.1908
     41 C          -3.8641   -9.0910    0.9603 C.1     1  LIG1        0.1026
     42 N          -1.2460  -11.8753   -0.1821 N.1     1  LIG1       -0.1908
     43 C          -1.4728  -10.7476   -0.3045 C.1     1  LIG1        0.1020
@<TRIPOS>BOND
     1    39    36    1
     2    23    20    1
     3    38    37    1
     4    36    37   ar
     5    36    35   ar
     6    37    33   ar
     7    10     8    1
     8    11     3    1
     9    20    21    1
    10    20    22    1
    11    20    19    1
    12    35    43    1
    13    35    34   ar
    14    43    42    3
    15    33    27    1
    16    33    34   ar
    17     3     2   ar
    18     3     4   ar
    19     8     9    1
    20     8     2    1
    21    28    27   ar
    22    28    24   ar
    23    28    29    1
    24    27    26   ar
    25    24    15    1
    26    24    25   ar
    27    15    16   ar
    28    15    14   ar
    29    26    31    1
    30    26    25   ar
    31    31    32    1
    32    34    41    1
    33    16    12   ar
    34     2     1   ar
    35    14    13   ar
    36    14    19    1
    37    12    13   ar
    38    12     4    1
    39    25    30    1
    40    13    17    1
    41     4     5   ar
    42    17    18    1
    43     1     5   ar
    44     1     7    1
    45     5     6    1
    46    41    40    3
