@<TRIPOS>MOLECULE
mol_data/opt/cam/geoms/mol2/13hd13hd13hd13hd-.out
 46 49 0 0 0
SMALL
GASTEIGER

@<TRIPOS>ATOM
      1 C           0.8414    0.0524    1.4622 C.ar    1  LIG1        0.0243
      2 C           0.8518    1.0009    0.4754 C.ar    1  LIG1        0.0604
      3 C          -0.3829    0.8597   -0.2418 C.ar    1  LIG1        0.0990
      4 C          -1.1160   -0.1666    0.3488 C.ar    1  LIG1        0.0842
      5 N          -0.3500   -0.6548    1.3624 N.ar    1  LIG1       -0.3568
      6 H          -0.7107   -1.2491    2.0911 H       1  LIG1        0.1655
      7 H           1.5711   -0.1813    2.2204 H       1  LIG1        0.0826
      8 N           1.8162    1.9626    0.2058 N.pl3   1  LIG1       -0.3558
      9 H           2.7493    1.7224    0.5062 H       1  LIG1        0.1424
     10 H           1.8084    2.3037   -0.7453 H       1  LIG1        0.1424
     11 N          -1.1043    2.2035   -2.3137 N.1     1  LIG1       -0.1907
     12 C          -0.7673    1.5943   -1.3849 C.1     1  LIG1        0.1032
     13 C          -2.4164   -0.7094    0.0381 C.ar    1  LIG1        0.0869
     14 C          -3.6014   -0.1136   -0.3592 C.ar    1  LIG1        0.0699
     15 C          -4.5850   -1.1536   -0.4058 C.ar    1  LIG1        0.0997
     16 C          -3.9844   -2.3551   -0.0297 C.ar    1  LIG1        0.0846
     17 N          -2.6855   -2.0663    0.2324 N.ar    1  LIG1       -0.3493
     18 H          -1.9923   -2.7478    0.4948 H       1  LIG1        0.1661
     19 N          -3.8604    1.2190   -0.5937 N.pl3   1  LIG1       -0.3553
     20 H          -3.1281    1.7485   -1.0476 H       1  LIG1        0.1424
     21 H          -4.7666    1.3996   -1.0018 H       1  LIG1        0.1424
     22 N          -7.0358   -0.8669   -1.1325 N.1     1  LIG1       -0.1907
     23 C          -5.9264   -0.9917   -0.8153 C.1     1  LIG1        0.1032
     24 C          -4.5033   -3.6974    0.0638 C.ar    1  LIG1        0.0869
     25 C          -5.7341   -4.1901    0.4832 C.ar    1  LIG1        0.0699
     26 C          -5.6195   -5.6154    0.4784 C.ar    1  LIG1        0.0997
     27 C          -4.3314   -5.9455    0.0582 C.ar    1  LIG1        0.0846
     28 N          -3.6767   -4.7911   -0.1751 N.ar    1  LIG1       -0.3493
     29 H          -2.7572   -4.8098   -0.6099 H       1  LIG1        0.1661
     30 N          -6.8355   -3.4963    0.9314 N.pl3   1  LIG1       -0.3553
     31 H          -7.0440   -2.6222    0.4676 H       1  LIG1        0.1424
     32 H          -7.6614   -4.0629    1.0611 H       1  LIG1        0.1424
     33 N          -7.3833   -7.3762    1.1164 N.1     1  LIG1       -0.1907
     34 C          -6.6125   -6.5548    0.8363 C.1     1  LIG1        0.1032
     35 C          -3.6975   -7.2207   -0.1740 C.ar    1  LIG1        0.0864
     36 C          -2.4376   -7.4794   -0.6707 C.ar    1  LIG1        0.0693
     37 C          -2.2857   -8.8991   -0.7064 C.ar    1  LIG1        0.0903
     38 C          -3.4602   -9.4486   -0.2322 C.ar    1  LIG1        0.0215
     39 N          -4.2986   -8.4317    0.0819 N.ar    1  LIG1       -0.3568
     40 H          -5.2365   -8.5394    0.4449 H       1  LIG1        0.1655
     41 H          -3.7415  -10.4817   -0.1031 H       1  LIG1        0.0820
     42 N          -1.5129   -6.4694   -1.0686 N.pl3   1  LIG1       -0.3553
     43 H          -0.6223   -6.5925   -0.5936 H       1  LIG1        0.1424
     44 H          -1.3179   -6.5368   -2.0648 H       1  LIG1        0.1424
     45 N          -0.1606  -10.1113   -1.5160 N.1     1  LIG1       -0.1908
     46 C          -1.1276   -9.5914   -1.1487 C.1     1  LIG1        0.1025
@<TRIPOS>BOND
     1    11    12    3
     2    44    42    1
     3    45    46    3
     4    12     3    1
     5    46    37    1
     6    22    23    3
     7    42    36    1
     8    42    43    1
     9    20    19    1
    10    21    19    1
    11    23    15    1
    12    10     8    1
    13    37    36   ar
    14    37    38   ar
    15    36    35   ar
    16    29    28    1
    17    19    14    1
    18    15    14   ar
    19    15    16   ar
    20    14    13   ar
    21     3     4   ar
    22     3     2   ar
    23    38    41    1
    24    38    39   ar
    25    28    27   ar
    26    28    24   ar
    27    35    27    1
    28    35    39   ar
    29    16    24    1
    30    16    17   ar
    31    13    17   ar
    32    13     4    1
    33    27    26   ar
    34    24    25   ar
    35    39    40    1
    36     8     2    1
    37     8     9    1
    38    17    18    1
    39     4     5   ar
    40    31    30    1
    41     2     1   ar
    42    26    25   ar
    43    26    34    1
    44    25    30    1
    45    34    33    3
    46    30    32    1
    47     5     1   ar
    48     5     6    1
    49     1     7    1
