@<TRIPOS>MOLECULE
mol_data/opt/cam/geoms/mol2/13hd13hd-13hd.out
 35 37 0 0 0
SMALL
GASTEIGER

@<TRIPOS>ATOM
      1 C           1.2507   -0.3108   -0.0610 C.ar    1  LIG1        0.0243
      2 C           0.8724    1.0105   -0.0586 C.ar    1  LIG1        0.0604
      3 C          -0.5580    1.0258   -0.0562 C.ar    1  LIG1        0.0990
      4 C          -0.9935   -0.3017   -0.0539 C.ar    1  LIG1        0.0842
      5 N           0.1087   -1.0818   -0.0565 N.ar    1  LIG1       -0.3568
      6 H           0.0245   -2.0936   -0.0599 H       1  LIG1        0.1655
      7 H           2.2325   -0.7559   -0.0525 H       1  LIG1        0.0826
      8 N           1.6821    2.1401    0.0022 N.pl3   1  LIG1       -0.3558
      9 H           2.6000    2.0170   -0.3999 H       1  LIG1        0.1424
     10 H           1.2402    2.9791   -0.3480 H       1  LIG1        0.1424
     11 N          -2.0701    3.1088   -0.0877 N.1     1  LIG1       -0.1907
     12 C          -1.3818    2.1744   -0.0684 C.1     1  LIG1        0.1032
     13 C          -2.3168   -0.8795   -0.0562 C.ar    1  LIG1        0.0869
     14 C          -2.6791   -2.2113   -0.0556 C.ar    1  LIG1        0.0699
     15 C          -4.1069   -2.2540   -0.0593 C.ar    1  LIG1        0.0997
     16 C          -4.5606   -0.9376   -0.0619 C.ar    1  LIG1        0.0846
     17 N          -3.4686   -0.1323   -0.0592 N.ar    1  LIG1       -0.3493
     18 H          -3.5781    0.8844   -0.0618 H       1  LIG1        0.1661
     19 N          -1.7529   -3.2938   -0.0504 N.pl3   1  LIG1       -0.3553
     20 H          -1.8702   -3.8704    0.7785 H       1  LIG1        0.1424
     21 H          -1.8944   -3.8992   -0.8544 H       1  LIG1        0.1424
     22 N          -5.6709   -4.2981   -0.0636 N.1     1  LIG1       -0.1907
     23 C          -4.9397   -3.3971   -0.0613 C.1     1  LIG1        0.1032
     24 C          -5.8915   -0.3780   -0.0675 C.ar    1  LIG1        0.0864
     25 C          -6.2593    0.9511   -0.0695 C.ar    1  LIG1        0.0693
     26 C          -7.6879    0.9861   -0.0782 C.ar    1  LIG1        0.0903
     27 C          -8.1304   -0.3219   -0.0808 C.ar    1  LIG1        0.0215
     28 N          -7.0430   -1.1314   -0.0740 N.ar    1  LIG1       -0.3568
     29 H          -7.0686   -2.1417   -0.0737 H       1  LIG1        0.1655
     30 H          -9.1347   -0.7149   -0.0868 H       1  LIG1        0.0820
     31 N          -5.3205    2.0163   -0.0635 N.pl3   1  LIG1       -0.3553
     32 H          -5.4142    2.6190   -0.8753 H       1  LIG1        0.1424
     33 H          -5.4073    2.6033    0.7606 H       1  LIG1        0.1424
     34 N          -9.1202    3.1291   -0.0885 N.1     1  LIG1       -0.1908
     35 C          -8.4925    2.1565   -0.0837 C.1     1  LIG1        0.1025
@<TRIPOS>BOND
     1    32    31    1
     2    21    19    1
     3     9     8    1
     4    10     8    1
     5    34    35    3
     6    11    12    3
     7    30    27    1
     8    35    26    1
     9    27    26   ar
    10    27    28   ar
    11    26    25   ar
    12    28    29    1
    13    28    24   ar
    14    25    24   ar
    15    25    31    1
    16    12     3    1
    17    24    16    1
    18    22    23    3
    19    31    33    1
    20    16    15   ar
    21    16    17   ar
    22    18    17    1
    23    23    15    1
    24     1     2   ar
    25     1     5   ar
    26     1     7    1
    27     6     5    1
    28    15    14   ar
    29    17    13   ar
    30     2     3   ar
    31     2     8    1
    32     5     4   ar
    33     3     4   ar
    34    13    14   ar
    35    13     4    1
    36    14    19    1
    37    19    20    1
