@<TRIPOS>MOLECULE
mol_data/opt/cam/geoms/mol2/13hd13hd-13hd13hd-.out
 46 49 0 0 0
SMALL
GASTEIGER

@<TRIPOS>ATOM
      1 C           1.3168   -0.3115   -0.0662 C.ar    1  LIG1        0.0243
      2 C           0.9498    1.0128   -0.0521 C.ar    1  LIG1        0.0604
      3 C          -0.4806    1.0403   -0.0498 C.ar    1  LIG1        0.0990
      4 C          -0.9272   -0.2838   -0.0595 C.ar    1  LIG1        0.0842
      5 N           0.1682   -1.0728   -0.0689 N.ar    1  LIG1       -0.3568
      6 H           0.0749   -2.0839   -0.0826 H       1  LIG1        0.1655
      7 H           2.2948   -0.7649   -0.0618 H       1  LIG1        0.0826
      8 N           1.7690    2.1351    0.0186 N.pl3   1  LIG1       -0.3558
      9 H           2.6866    2.0066   -0.3826 H       1  LIG1        0.1424
     10 H           1.3352    2.9800   -0.3273 H       1  LIG1        0.1424
     11 N          -1.9777    3.1342   -0.0653 N.1     1  LIG1       -0.1907
     12 C          -1.2955    2.1951   -0.0531 C.1     1  LIG1        0.1032
     13 C          -2.2551   -0.8504   -0.0672 C.ar    1  LIG1        0.0869
     14 C          -2.6296   -2.1786   -0.0866 C.ar    1  LIG1        0.0699
     15 C          -4.0574   -2.2113   -0.0872 C.ar    1  LIG1        0.0997
     16 C          -4.5005   -0.8907   -0.0675 C.ar    1  LIG1        0.0846
     17 N          -3.4000   -0.0948   -0.0556 N.ar    1  LIG1       -0.3493
     18 H          -3.5000    0.9223   -0.0369 H       1  LIG1        0.1661
     19 N          -1.7127   -3.2692   -0.1012 N.pl3   1  LIG1       -0.3553
     20 H          -1.8435   -3.8648    0.7122 H       1  LIG1        0.1424
     21 H          -1.8567   -3.8546   -0.9197 H       1  LIG1        0.1424
     22 N          -5.5538   -4.3069   -0.1191 N.1     1  LIG1       -0.1907
     23 C          -4.8736   -3.3676   -0.1046 C.1     1  LIG1        0.1032
     24 C          -5.8229   -0.3132   -0.0581 C.ar    1  LIG1        0.0869
     25 C          -6.1684    1.0240   -0.0326 C.ar    1  LIG1        0.0699
     26 C          -7.5946    1.0811   -0.0321 C.ar    1  LIG1        0.0997
     27 C          -8.0624   -0.2313   -0.0575 C.ar    1  LIG1        0.0846
     28 N          -6.9811   -1.0501   -0.0729 N.ar    1  LIG1       -0.3493
     29 H          -7.1054   -2.0648   -0.0937 H       1  LIG1        0.1661
     30 N          -5.2152    2.0751   -0.0109 N.pl3   1  LIG1       -0.3553
     31 H          -5.2808    2.6827   -0.8215 H       1  LIG1        0.1424
     32 H          -5.2907    2.6566    0.8178 H       1  LIG1        0.1424
     33 N          -9.1608    3.1231    0.0060 N.1     1  LIG1       -0.1907
     34 C          -8.4233    2.2278   -0.0106 C.1     1  LIG1        0.1032
     35 C          -9.3991   -0.7766   -0.0689 C.ar    1  LIG1        0.0864
     36 C          -9.7810   -2.1015   -0.0951 C.ar    1  LIG1        0.0693
     37 C         -11.2096   -2.1218   -0.0974 C.ar    1  LIG1        0.0903
     38 C         -11.6383   -0.8093   -0.0724 C.ar    1  LIG1        0.0215
     39 N         -10.5428   -0.0116   -0.0553 N.ar    1  LIG1       -0.3568
     40 H         -10.5571    0.9990   -0.0355 H       1  LIG1        0.1655
     41 H         -12.6384   -0.4057   -0.0659 H       1  LIG1        0.0820
     42 N          -8.8550   -3.1789   -0.1149 N.pl3   1  LIG1       -0.3553
     43 H          -8.9540   -3.7840    0.6949 H       1  LIG1        0.1424
     44 H          -8.9630   -3.7613   -0.9399 H       1  LIG1        0.1424
     45 N         -12.6584   -4.2531   -0.1416 N.1     1  LIG1       -0.1908
     46 C         -12.0244   -3.2848   -0.1214 C.1     1  LIG1        0.1025
@<TRIPOS>BOND
     1    44    42    1
     2    21    19    1
     3    31    30    1
     4     9     8    1
     5    10     8    1
     6    45    46    3
     7    46    37    1
     8    22    23    3
     9    42    36    1
    10    42    43    1
    11    23    15    1
    12    19    14    1
    13    19    20    1
    14    37    36   ar
    15    37    38   ar
    16    36    35   ar
    17    29    28    1
    18    15    14   ar
    19    15    16   ar
    20    14    13   ar
    21     6     5    1
    22    28    24   ar
    23    28    27   ar
    24    38    41    1
    25    38    39   ar
    26    35    27    1
    27    35    39   ar
    28     5     1   ar
    29     5     4   ar
    30    16    24    1
    31    16    17   ar
    32    13     4    1
    33    13    17   ar
    34     1     7    1
    35     1     2   ar
    36    11    12    3
    37     4     3   ar
    38    24    25   ar
    39    27    26   ar
    40    17    18    1
    41    39    40    1
    42    12     3    1
    43     2     3   ar
    44     2     8    1
    45    25    26   ar
    46    25    30    1
    47    26    34    1
    48    30    32    1
    49    34    33    3
