@<TRIPOS>MOLECULE
mol_data/opt/cam/geoms/mol2/13hd13hd-13hd-13hd-.out
 46 49 0 0 0
SMALL
GASTEIGER

@<TRIPOS>ATOM
      1 C           1.1336    0.0635    0.0483 C.ar    1  LIG1        0.0243
      2 C           0.5709    1.3045    0.2215 C.ar    1  LIG1        0.0604
      3 C          -0.8485    1.1169    0.1784 C.ar    1  LIG1        0.0990
      4 C          -1.0859   -0.2502   -0.0177 C.ar    1  LIG1        0.0842
      5 N           0.1129   -0.8582   -0.0873 N.ar    1  LIG1       -0.3568
      6 H           0.1807   -1.8551   -0.2602 H       1  LIG1        0.1655
      7 H           2.1691   -0.2349    0.0261 H       1  LIG1        0.0826
      8 N           1.2101    2.5144    0.4688 N.pl3   1  LIG1       -0.3558
      9 H           2.1756    2.5413    0.1743 H       1  LIG1        0.1424
     10 H           0.7070    3.3251    0.1359 H       1  LIG1        0.1424
     11 N          -2.7955    2.7884    0.3546 N.1     1  LIG1       -0.1907
     12 C          -1.8735    2.0828    0.2863 C.1     1  LIG1        0.1032
     13 C          -2.3289   -0.9640   -0.1509 C.ar    1  LIG1        0.0869
     14 C          -2.5914   -2.2837   -0.4257 C.ar    1  LIG1        0.0699
     15 C          -4.0197   -2.4261   -0.4838 C.ar    1  LIG1        0.0997
     16 C          -4.5797   -1.1736   -0.2253 C.ar    1  LIG1        0.0846
     17 N          -3.5380   -0.3182   -0.0335 N.ar    1  LIG1       -0.3493
     18 H          -3.6458    0.6239    0.3117 H       1  LIG1        0.1661
     19 N          -1.5769   -3.2625   -0.6234 N.pl3   1  LIG1       -0.3553
     20 H          -1.6603   -4.0111    0.0595 H       1  LIG1        0.1424
     21 H          -1.6601   -3.6939   -1.5403 H       1  LIG1        0.1424
     22 N          -5.3449   -4.5600   -1.0411 N.1     1  LIG1       -0.1907
     23 C          -4.7357   -3.6035   -0.7948 C.1     1  LIG1        0.1032
     24 C          -5.9092   -0.6380   -0.1528 C.ar    1  LIG1        0.0869
     25 C          -7.1434   -1.1452    0.2118 C.ar    1  LIG1        0.0699
     26 C          -8.0302   -0.0184    0.3343 C.ar    1  LIG1        0.0997
     27 C          -7.3189    1.1416    0.0330 C.ar    1  LIG1        0.0846
     28 N          -6.0417    0.7591   -0.2353 N.ar    1  LIG1       -0.3493
     29 H          -5.4430    1.3192   -0.8254 H       1  LIG1        0.1661
     30 N          -7.4835   -2.4297    0.5403 N.pl3   1  LIG1       -0.3553
     31 H          -8.4707   -2.6115    0.6418 H       1  LIG1        0.1424
     32 H          -6.9693   -3.1854    0.1100 H       1  LIG1        0.1424
     33 N         -10.4724   -0.1500    1.1310 N.1     1  LIG1       -0.1907
     34 C          -9.3674   -0.0915    0.7808 C.1     1  LIG1        0.1032
     35 C          -7.6731    2.5327   -0.0185 C.ar    1  LIG1        0.0864
     36 C          -8.8605    3.2023   -0.2937 C.ar    1  LIG1        0.0693
     37 C          -8.5419    4.5991   -0.3085 C.ar    1  LIG1        0.0903
     38 C          -7.1913    4.7326   -0.0477 C.ar    1  LIG1        0.0215
     39 N          -6.6734    3.5026    0.1143 N.ar    1  LIG1       -0.3568
     40 H          -5.7316    3.3192    0.4318 H       1  LIG1        0.1655
     41 H          -6.5936    5.6255    0.0479 H       1  LIG1        0.0820
     42 N         -10.0943    2.6899   -0.6063 N.pl3   1  LIG1       -0.3553
     43 H         -10.8364    3.3733   -0.6513 H       1  LIG1        0.1424
     44 H         -10.3759    1.8261   -0.1640 H       1  LIG1        0.1424
     45 N         -10.2758    6.4495   -0.7589 N.1     1  LIG1       -0.1908
     46 C          -9.4746    5.6378   -0.5558 C.1     1  LIG1        0.1025
@<TRIPOS>BOND
     1    21    19    1
     2    22    23    3
     3    29    28    1
     4    23    15    1
     5    45    46    3
     6    43    42    1
     7    19    14    1
     8    19    20    1
     9    42    36    1
    10    42    44    1
    11    46    37    1
    12    15    14   ar
    13    15    16   ar
    14    14    13   ar
    15    37    36   ar
    16    37    38   ar
    17    36    35   ar
    18     6     5    1
    19    28    24   ar
    20    28    27   ar
    21    16    24    1
    22    16    17   ar
    23    24    25   ar
    24    13    17   ar
    25    13     4    1
    26     5     4   ar
    27     5     1   ar
    28    38    41    1
    29    38    39   ar
    30    17    18    1
    31    35    27    1
    32    35    39   ar
    33     4     3   ar
    34     7     1    1
    35    27    26   ar
    36     1     2   ar
    37    32    30    1
    38    39    40    1
    39    10     8    1
    40     9     8    1
    41     3     2   ar
    42     3    12    1
    43    25    26   ar
    44    25    30    1
    45     2     8    1
    46    12    11    3
    47    26    34    1
    48    30    31    1
    49    34    33    3
