@<TRIPOS>MOLECULE
mol_data/opt/cam/geoms/mol2/13hd13hd13hd13hd.out
 46 49 0 0 0
SMALL
GASTEIGER

@<TRIPOS>ATOM
      1 C           0.8229   -0.0151    1.5907 C.ar    1  LIG1        0.0243
      2 C           0.8772    0.9596    0.6309 C.ar    1  LIG1        0.0604
      3 C          -0.3343    0.8521   -0.1302 C.ar    1  LIG1        0.0990
      4 C          -1.0982   -0.1802    0.4079 C.ar    1  LIG1        0.0842
      5 N          -0.3723   -0.7047    1.4328 N.ar    1  LIG1       -0.3568
      6 H          -0.7633   -1.3120    2.1348 H       1  LIG1        0.1655
      7 H           1.5238   -0.2775    2.3664 H       1  LIG1        0.0826
      8 N           1.8599    1.9166    0.4202 N.pl3   1  LIG1       -0.3558
      9 H           2.7793    1.6615    0.7489 H       1  LIG1        0.1424
     10 H           1.8887    2.2853   -0.5200 H       1  LIG1        0.1424
     11 N          -0.9778    2.2597   -2.1854 N.1     1  LIG1       -0.1907
     12 C          -0.6750    1.6220   -1.2642 C.1     1  LIG1        0.1032
     13 C          -2.3945   -0.6961    0.0372 C.ar    1  LIG1        0.0869
     14 C          -3.5612   -0.0693   -0.3667 C.ar    1  LIG1        0.0699
     15 C          -4.5524   -1.0950   -0.4917 C.ar    1  LIG1        0.0997
     16 C          -3.9761   -2.3188   -0.1558 C.ar    1  LIG1        0.0846
     17 N          -2.6803   -2.0589    0.1529 N.ar    1  LIG1       -0.3493
     18 H          -2.0164   -2.7489    0.4637 H       1  LIG1        0.1661
     19 N          -3.7973    1.2756   -0.5493 N.pl3   1  LIG1       -0.3553
     20 H          -3.0448    1.8149   -0.9561 H       1  LIG1        0.1424
     21 H          -4.6882    1.4867   -0.9759 H       1  LIG1        0.1424
     22 N          -6.9896   -0.7619   -1.2453 N.1     1  LIG1       -0.1907
     23 C          -5.8853   -0.9061   -0.9194 C.1     1  LIG1        0.1032
     24 C          -4.5243   -3.6527   -0.1378 C.ar    1  LIG1        0.0869
     25 C          -5.7448   -4.1444    0.2952 C.ar    1  LIG1        0.0699
     26 C          -5.6729   -5.5700    0.1825 C.ar    1  LIG1        0.0997
     27 C          -4.4164   -5.9173   -0.3098 C.ar    1  LIG1        0.0846
     28 N          -3.7414   -4.7550   -0.4933 N.ar    1  LIG1       -0.3493
     29 H          -2.8100   -4.6951   -0.8705 H       1  LIG1        0.1661
     30 N          -6.8140   -3.4538    0.8198 N.pl3   1  LIG1       -0.3553
     31 H          -7.0175   -2.5534    0.4070 H       1  LIG1        0.1424
     32 H          -7.6475   -4.0107    0.9452 H       1  LIG1        0.1424
     33 N          -7.5583   -7.2240    0.7553 N.1     1  LIG1       -0.1907
     34 C          -6.7164   -6.4723    0.4865 C.1     1  LIG1        0.1032
     35 C          -3.8433   -7.2010   -0.6350 C.ar    1  LIG1        0.0864
     36 C          -3.9042   -8.4283    0.0069 C.ar    1  LIG1        0.0693
     37 C          -3.0242   -9.3046   -0.7110 C.ar    1  LIG1        0.0903
     38 C          -2.4703   -8.5946   -1.7556 C.ar    1  LIG1        0.0215
     39 N          -2.9447   -7.3318   -1.6969 N.ar    1  LIG1       -0.3568
     40 H          -2.8812   -6.6744   -2.4580 H       1  LIG1        0.1655
     41 H          -1.7964   -8.9225   -2.5314 H       1  LIG1        0.0820
     42 N          -4.5671   -8.7654    1.1657 N.pl3   1  LIG1       -0.3553
     43 H          -5.4890   -8.3692    1.2919 H       1  LIG1        0.1424
     44 H          -4.5450   -9.7528    1.3796 H       1  LIG1        0.1424
     45 N          -2.6148  -11.7637   -0.0616 N.1     1  LIG1       -0.1908
     46 C          -2.7794  -10.6607   -0.3741 C.1     1  LIG1        0.1025
@<TRIPOS>BOND
     1    41    38    1
     2    40    39    1
     3    11    12    3
     4    38    39   ar
     5    38    37   ar
     6    39    35   ar
     7    12     3    1
     8    22    23    3
     9    21    19    1
    10    20    19    1
    11    23    15    1
    12    29    28    1
    13    37    46    1
    14    37    36   ar
    15    35    27    1
    16    35    36   ar
    17    19    14    1
    18    10     8    1
    19    28    27   ar
    20    28    24   ar
    21    15    14   ar
    22    15    16   ar
    23    46    45    3
    24    14    13   ar
    25    27    26   ar
    26    16    24    1
    27    16    17   ar
    28    24    25   ar
    29     3     4   ar
    30     3     2   ar
    31    36    42    1
    32    13    17   ar
    33    13     4    1
    34    17    18    1
    35    26    25   ar
    36    26    34    1
    37    25    30    1
    38    31    30    1
    39     4     5   ar
    40     8     2    1
    41     8     9    1
    42    34    33    3
    43     2     1   ar
    44    30    32    1
    45    42    43    1
    46    42    44    1
    47     5     1   ar
    48     5     6    1
    49     1     7    1
