@<TRIPOS>MOLECULE
mol_data/opt/cam/geoms/mol2/13hd13hd-.out
 24 25 0 0 0
SMALL
GASTEIGER

@<TRIPOS>ATOM
      1 C           1.1901   -0.3084   -0.0885 C.ar    1  LIG1        0.0243
      2 C           0.8368    1.0185   -0.0308 C.ar    1  LIG1        0.0604
      3 C          -0.5929    1.0568   -0.0047 C.ar    1  LIG1        0.0990
      4 C          -1.0517   -0.2618   -0.0456 C.ar    1  LIG1        0.0841
      5 N           0.0343   -1.0602   -0.0935 N.ar    1  LIG1       -0.3568
      6 H          -0.0700   -2.0698   -0.1345 H       1  LIG1        0.1655
      7 H           2.1637   -0.7704   -0.1131 H       1  LIG1        0.0826
      8 N           1.6678    2.1304    0.0604 N.pl3   1  LIG1       -0.3558
      9 H           2.5900    1.9926   -0.3271 H       1  LIG1        0.1424
     10 H           1.2519    2.9838   -0.2865 H       1  LIG1        0.1424
     11 N          -2.1640    3.0923    0.0736 N.1     1  LIG1       -0.1907
     12 C          -1.4255    2.1967    0.0434 C.1     1  LIG1        0.1032
     13 C          -2.3883   -0.8102   -0.0500 C.ar    1  LIG1        0.0864
     14 C          -2.7831   -2.1298   -0.0937 C.ar    1  LIG1        0.0693
     15 C          -4.2127   -2.1394   -0.0802 C.ar    1  LIG1        0.0903
     16 C          -4.6310   -0.8253   -0.0281 C.ar    1  LIG1        0.0215
     17 N          -3.5270   -0.0387   -0.0098 N.ar    1  LIG1       -0.3568
     18 H          -3.5303    0.9718    0.0280 H       1  LIG1        0.1655
     19 H          -5.6271   -0.4129   -0.0034 H       1  LIG1        0.0820
     20 N          -1.8804   -3.2317   -0.1411 N.pl3   1  LIG1       -0.3553
     21 H          -2.0032   -3.8329    0.6697 H       1  LIG1        0.1424
     22 H          -2.0585   -3.8084   -0.9592 H       1  LIG1        0.1424
     23 N          -5.6559   -4.2734   -0.1468 N.1     1  LIG1       -0.1908
     24 C          -5.0291   -3.3004   -0.1158 C.1     1  LIG1        0.1025
@<TRIPOS>BOND
     1    22    20    1
     2     9     8    1
     3    10     8    1
     4    23    24    3
     5    20    14    1
     6    20    21    1
     7     6     5    1
     8    24    15    1
     9     7     1    1
    10    14    15   ar
    11    14    13   ar
    12     5     1   ar
    13     5     4   ar
    14     1     2   ar
    15    15    16   ar
    16    13     4    1
    17    13    17   ar
    18     4     3   ar
    19     2     3   ar
    20     2     8    1
    21    16    17   ar
    22    16    19    1
    23    17    18    1
    24     3    12    1
    25    12    11    3
