@<TRIPOS>MOLECULE
mol_data/opt/cam/geoms/mol2/13hd13hd.out
 24 25 0 0 0
SMALL
GASTEIGER

@<TRIPOS>ATOM
      1 C           1.1713   -0.3101    0.4146 C.ar    1  LIG1        0.0243
      2 C           0.8614    0.9542   -0.0088 C.ar    1  LIG1        0.0604
      3 C          -0.5429    0.9555   -0.3035 C.ar    1  LIG1        0.0990
      4 C          -1.0465   -0.3139   -0.0308 C.ar    1  LIG1        0.0841
      5 N           0.0075   -1.0671    0.3824 N.ar    1  LIG1       -0.3568
      6 H          -0.0949   -1.9634    0.8295 H       1  LIG1        0.1655
      7 H           2.1093   -0.7351    0.7326 H       1  LIG1        0.0826
      8 N           1.6902    2.0640   -0.1079 N.pl3   1  LIG1       -0.3558
      9 H           2.6666    1.8516   -0.2503 H       1  LIG1        0.1424
     10 H           1.3652    2.7675   -0.7564 H       1  LIG1        0.1424
     11 N          -1.8938    2.9297   -1.2501 N.1     1  LIG1       -0.1907
     12 C          -1.2772    2.0399   -0.8318 C.1     1  LIG1        0.1032
     13 C          -2.3809   -0.8557   -0.1372 C.ar    1  LIG1        0.0864
     14 C          -3.6281   -0.3150    0.1329 C.ar    1  LIG1        0.0693
     15 C          -4.5780   -1.3733   -0.0548 C.ar    1  LIG1        0.0903
     16 C          -3.8877   -2.5077   -0.4310 C.ar    1  LIG1        0.0215
     17 N          -2.5749   -2.1980   -0.4653 N.ar    1  LIG1       -0.3568
     18 H          -1.8636   -2.7784   -0.8796 H       1  LIG1        0.1655
     19 H          -4.2581   -3.4878   -0.6872 H       1  LIG1        0.0820
     20 N          -3.9420    0.9453    0.5947 N.pl3   1  LIG1       -0.3553
     21 H          -3.4106    1.7134    0.2068 H       1  LIG1        0.1424
     22 H          -4.9333    1.1404    0.6111 H       1  LIG1        0.1424
     23 N          -7.1166   -1.0978    0.2852 N.1     1  LIG1       -0.1908
     24 C          -5.9787   -1.2484    0.1287 C.1     1  LIG1        0.1025
@<TRIPOS>BOND
     1    11    12    3
     2    18    17    1
     3    12     3    1
     4    10     8    1
     5    19    16    1
     6    17    16   ar
     7    17    13   ar
     8    16    15   ar
     9     3     4   ar
    10     3     2   ar
    11     9     8    1
    12    13     4    1
    13    13    14   ar
    14     8     2    1
    15    15    24    1
    16    15    14   ar
    17     4     5   ar
    18     2     1   ar
    19    24    23    3
    20    14    20    1
    21    21    20    1
    22     5     1   ar
    23     5     6    1
    24     1     7    1
    25    20    22    1
