@<TRIPOS>MOLECULE
mol_data/opt/cam/geoms/mol2/13hd13hd13hd-13hd-.out
 46 49 0 0 0
SMALL
GASTEIGER

@<TRIPOS>ATOM
      1 C           1.1972   -0.1527    0.6798 C.ar    1  LIG1        0.0243
      2 C           0.9350    1.0533    0.0871 C.ar    1  LIG1        0.0604
      3 C          -0.4592    1.0498   -0.2500 C.ar    1  LIG1        0.0990
      4 C          -1.0058   -0.1628    0.1681 C.ar    1  LIG1        0.0842
      5 N           0.0146   -0.8773    0.7107 N.ar    1  LIG1       -0.3568
      6 H          -0.1175   -1.7259    1.2359 H       1  LIG1        0.1655
      7 H           2.1131   -0.5545    1.0814 H       1  LIG1        0.0826
      8 N           1.7973    2.1212   -0.1256 N.pl3   1  LIG1       -0.3558
      9 H           2.7708    1.8674   -0.2073 H       1  LIG1        0.1424
     10 H           1.5130    2.7404   -0.8720 H       1  LIG1        0.1424
     11 N          -1.7223    2.9092   -1.5008 N.1     1  LIG1       -0.1907
     12 C          -1.1434    2.0708   -0.9442 C.1     1  LIG1        0.1032
     13 C          -2.3475   -0.6892    0.0879 C.ar    1  LIG1        0.0869
     14 C          -3.5926   -0.0843    0.2086 C.ar    1  LIG1        0.0699
     15 C          -4.5586   -1.1374    0.1500 C.ar    1  LIG1        0.0997
     16 C          -3.8751   -2.3453   -0.0009 C.ar    1  LIG1        0.0846
     17 N          -2.5586   -2.0601   -0.0280 N.ar    1  LIG1       -0.3493
     18 H          -1.8843   -2.7804   -0.2713 H       1  LIG1        0.1661
     19 N          -3.8896    1.2402    0.4456 N.pl3   1  LIG1       -0.3553
     20 H          -3.3003    1.9257   -0.0080 H       1  LIG1        0.1424
     21 H          -4.8691    1.4699    0.3604 H       1  LIG1        0.1424
     22 N          -7.1265   -1.0408    0.2448 N.1     1  LIG1       -0.1907
     23 C          -5.9657   -1.0315    0.2101 C.1     1  LIG1        0.1032
     24 C          -4.3624   -3.6903   -0.1638 C.ar    1  LIG1        0.0869
     25 C          -3.6689   -4.8412   -0.4499 C.ar    1  LIG1        0.0699
     26 C          -4.6276   -5.8991   -0.5408 C.ar    1  LIG1        0.0997
     27 C          -5.8875   -5.3573   -0.2865 C.ar    1  LIG1        0.0846
     28 N          -5.6983   -4.0232   -0.0703 N.ar    1  LIG1       -0.3493
     29 H          -6.4144   -3.3865    0.2512 H       1  LIG1        0.1661
     30 N          -2.2581   -4.8930   -0.6410 N.pl3   1  LIG1       -0.3553
     31 H          -1.8352   -5.5655   -0.0063 H       1  LIG1        0.1424
     32 H          -2.0325   -5.2030   -1.5832 H       1  LIG1        0.1424
     33 N          -4.1049   -8.3357   -1.1819 N.1     1  LIG1       -0.1907
     34 C          -4.3403   -7.2359   -0.8979 C.1     1  LIG1        0.1032
     35 C          -7.2049   -5.9360   -0.2401 C.ar    1  LIG1        0.0864
     36 C          -7.6645   -7.1910    0.1397 C.ar    1  LIG1        0.0693
     37 C          -9.0956   -7.1258    0.1036 C.ar    1  LIG1        0.0903
     38 C          -9.4567   -5.8518   -0.2877 C.ar    1  LIG1        0.0215
     39 N          -8.3289   -5.1431   -0.4827 N.ar    1  LIG1       -0.3568
     40 H          -8.3019   -4.2222   -0.8921 H       1  LIG1        0.1655
     41 H         -10.4368   -5.4320   -0.4509 H       1  LIG1        0.0820
     42 N          -6.9515   -8.2809    0.5812 N.pl3   1  LIG1       -0.3553
     43 H          -7.5076   -9.1138    0.7147 H       1  LIG1        0.1424
     44 H          -6.0657   -8.4724    0.1342 H       1  LIG1        0.1424
     45 N         -10.6205   -9.1161    0.6927 N.1     1  LIG1       -0.1908
     46 C          -9.9600   -8.2028    0.4252 C.1     1  LIG1        0.1025
@<TRIPOS>BOND
     1    32    30    1
     2    11    12    3
     3    33    34    3
     4    12     3    1
     5    34    26    1
     6    40    39    1
     7    10     8    1
     8    30    25    1
     9    30    31    1
    10    26    25   ar
    11    26    27   ar
    12    39    38   ar
    13    39    35   ar
    14    41    38    1
    15    25    24   ar
    16    38    37   ar
    17    27    35    1
    18    27    28   ar
    19    18    17    1
    20     3     2   ar
    21     3     4   ar
    22    35    36   ar
    23     9     8    1
    24    24    28   ar
    25    24    16    1
    26     8     2    1
    27    28    29    1
    28    17    16   ar
    29    17    13   ar
    30    20    19    1
    31    16    15   ar
    32     2     1   ar
    33    13     4    1
    34    13    14   ar
    35    37    36   ar
    36    37    46    1
    37    44    42    1
    38    36    42    1
    39    15    14   ar
    40    15    23    1
    41     4     5   ar
    42    14    19    1
    43    23    22    3
    44    21    19    1
    45    46    45    3
    46    42    43    1
    47     1     5   ar
    48     1     7    1
    49     5     6    1
