@<TRIPOS>MOLECULE
mol_data/opt/cam/geoms/mol2/13hd13hd13hd-13hd.out
 46 49 0 0 0
SMALL
GASTEIGER

@<TRIPOS>ATOM
      1 C           1.1657   -0.1599    0.7419 C.ar    1  LIG1        0.0243
      2 C           0.9460    1.0068    0.0603 C.ar    1  LIG1        0.0604
      3 C          -0.4314    0.9951   -0.3400 C.ar    1  LIG1        0.0990
      4 C          -1.0122   -0.1819    0.1306 C.ar    1  LIG1        0.0842
      5 N          -0.0266   -0.8694    0.7647 N.ar    1  LIG1       -0.3568
      6 H          -0.1944   -1.6793    1.3385 H       1  LIG1        0.1655
      7 H           2.0572   -0.5433    1.2109 H       1  LIG1        0.0826
      8 N           1.8311    2.0500   -0.1823 N.pl3   1  LIG1       -0.3558
      9 H           2.8032    1.7796   -0.2102 H       1  LIG1        0.1424
     10 H           1.5847    2.6239   -0.9768 H       1  LIG1        0.1424
     11 N          -1.6033    2.7818   -1.7724 N.1     1  LIG1       -0.1907
     12 C          -1.0673    1.9750   -1.1324 C.1     1  LIG1        0.1032
     13 C          -2.3555   -0.6990    0.0249 C.ar    1  LIG1        0.0869
     14 C          -3.5972   -0.0757    0.0465 C.ar    1  LIG1        0.0699
     15 C          -4.5749   -1.1192    0.0187 C.ar    1  LIG1        0.0997
     16 C          -3.9020   -2.3409   -0.0163 C.ar    1  LIG1        0.0846
     17 N          -2.5804   -2.0703   -0.0044 N.ar    1  LIG1       -0.3493
     18 H          -1.9052   -2.8148   -0.1565 H       1  LIG1        0.1661
     19 N          -3.8891    1.2650    0.1763 N.pl3   1  LIG1       -0.3553
     20 H          -3.2789    1.9111   -0.3063 H       1  LIG1        0.1424
     21 H          -4.8640    1.4911    0.0390 H       1  LIG1        0.1424
     22 N          -7.1314   -0.8177    0.0070 N.1     1  LIG1       -0.1907
     23 C          -5.9779   -0.9436    0.0155 C.1     1  LIG1        0.1032
     24 C          -4.3818   -3.6982   -0.1037 C.ar    1  LIG1        0.0869
     25 C          -3.6562   -4.8615   -0.2642 C.ar    1  LIG1        0.0699
     26 C          -4.5958   -5.9352   -0.3070 C.ar    1  LIG1        0.0997
     27 C          -5.8659   -5.3798   -0.1677 C.ar    1  LIG1        0.0846
     28 N          -5.7114   -4.0375   -0.0507 N.ar    1  LIG1       -0.3493
     29 H          -6.5263   -3.4353    0.0890 H       1  LIG1        0.1661
     30 N          -2.2361   -4.9113   -0.3746 N.pl3   1  LIG1       -0.3553
     31 H          -1.8407   -5.5428    0.3168 H       1  LIG1        0.1424
     32 H          -1.9552   -5.2624   -1.2868 H       1  LIG1        0.1424
     33 N          -4.1621   -8.4577   -0.5778 N.1     1  LIG1       -0.1907
     34 C          -4.3263   -7.3154   -0.4580 C.1     1  LIG1        0.1032
     35 C          -7.1790   -5.9770   -0.1252 C.ar    1  LIG1        0.0864
     36 C          -8.3968   -5.3485    0.0320 C.ar    1  LIG1        0.0693
     37 C          -9.3939   -6.3714    0.0336 C.ar    1  LIG1        0.0903
     38 C          -8.7432   -7.5792   -0.1253 C.ar    1  LIG1        0.0215
     39 N          -7.4149   -7.3294   -0.2235 N.ar    1  LIG1       -0.3568
     40 H          -6.6979   -8.0311   -0.3457 H       1  LIG1        0.1655
     41 H          -9.1412   -8.5803   -0.1748 H       1  LIG1        0.0820
     42 N          -8.5344   -3.9426    0.1684 N.pl3   1  LIG1       -0.3553
     43 H          -8.9579   -3.5116   -0.6484 H       1  LIG1        0.1424
     44 H          -9.0998   -3.6879    0.9721 H       1  LIG1        0.1424
     45 N         -11.9265   -5.9714    0.2979 N.1     1  LIG1       -0.1908
     46 C         -10.7926   -6.1698    0.1769 C.1     1  LIG1        0.1025
@<TRIPOS>BOND
     1    11    12    3
     2    32    30    1
     3    12     3    1
     4    10     8    1
     5    43    42    1
     6    33    34    3
     7    34    26    1
     8    30    25    1
     9    30    31    1
    10    40    39    1
    11     3     2   ar
    12     3     4   ar
    13    26    25   ar
    14    26    27   ar
    15    20    19    1
    16    25    24   ar
    17    39    38   ar
    18    39    35   ar
    19     9     8    1
    20     8     2    1
    21    41    38    1
    22    27    35    1
    23    27    28   ar
    24    18    17    1
    25    38    37   ar
    26    35    36   ar
    27    24    28   ar
    28    24    16    1
    29    28    29    1
    30    16    17   ar
    31    16    15   ar
    32    17    13   ar
    33    22    23    3
    34    23    15    1
    35    15    14   ar
    36    13    14   ar
    37    13     4    1
    38    36    37   ar
    39    36    42    1
    40    37    46    1
    41    21    19    1
    42    14    19    1
    43     2     1   ar
    44     4     5   ar
    45    42    44    1
    46    46    45    3
    47     1     5   ar
    48     1     7    1
    49     5     6    1
