@<TRIPOS>MOLECULE
mol_data/opt/cam/geoms/mol2/13hd13hd-13hd-13hd.out
 46 49 0 0 0
SMALL
GASTEIGER

@<TRIPOS>ATOM
      1 C           1.1483   -0.0221   -0.2449 C.ar    1  LIG1        0.0243
      2 C           0.6395    1.2378   -0.4471 C.ar    1  LIG1        0.0604
      3 C          -0.7860    1.1138   -0.3930 C.ar    1  LIG1        0.0990
      4 C          -1.0829   -0.2340   -0.1565 C.ar    1  LIG1        0.0842
      5 N           0.0896   -0.8911   -0.0692 N.ar    1  LIG1       -0.3568
      6 H           0.1116   -1.8892    0.1117 H       1  LIG1        0.1655
      7 H           2.1702   -0.3623   -0.2011 H       1  LIG1        0.0826
      8 N           1.3315    2.4341   -0.6002 N.pl3   1  LIG1       -0.3558
      9 H           2.2817    2.3257   -0.9242 H       1  LIG1        0.1424
     10 H           0.8401    3.1304   -1.1434 H       1  LIG1        0.1424
     11 N          -2.6222    2.8967   -0.6495 N.1     1  LIG1       -0.1907
     12 C          -1.7574    2.1287   -0.5357 C.1     1  LIG1        0.1032
     13 C          -2.3502   -0.9045   -0.0150 C.ar    1  LIG1        0.0869
     14 C          -2.6375   -2.2206    0.2543 C.ar    1  LIG1        0.0699
     15 C          -4.0659   -2.3382    0.3052 C.ar    1  LIG1        0.0997
     16 C          -4.6046   -1.0769    0.0493 C.ar    1  LIG1        0.0846
     17 N          -3.5477   -0.2360   -0.1333 N.ar    1  LIG1       -0.3493
     18 H          -3.6333    0.7203   -0.4461 H       1  LIG1        0.1661
     19 N          -1.6445   -3.2215    0.4541 N.pl3   1  LIG1       -0.3553
     20 H          -1.7151   -3.6227    1.3858 H       1  LIG1        0.1424
     21 H          -1.7666   -3.9873   -0.2032 H       1  LIG1        0.1424
     22 N          -5.4092   -4.4608    0.8635 N.1     1  LIG1       -0.1907
     23 C          -4.7953   -3.5075    0.6165 C.1     1  LIG1        0.1032
     24 C          -5.9380   -0.5455   -0.0336 C.ar    1  LIG1        0.0869
     25 C          -7.1605   -1.0717   -0.4357 C.ar    1  LIG1        0.0699
     26 C          -8.0660    0.0345   -0.5256 C.ar    1  LIG1        0.0997
     27 C          -7.3676    1.1934   -0.1816 C.ar    1  LIG1        0.0846
     28 N          -6.1023    0.8315    0.1008 N.ar    1  LIG1       -0.3493
     29 H          -5.4814    1.4967    0.5619 H       1  LIG1        0.1661
     30 N          -7.4636   -2.3598   -0.8042 N.pl3   1  LIG1       -0.3553
     31 H          -8.4470   -2.5514   -0.9256 H       1  LIG1        0.1424
     32 H          -6.9689   -3.1088   -0.3397 H       1  LIG1        0.1424
     33 N         -10.5509    0.0346   -1.1908 N.1     1  LIG1       -0.1907
     34 C          -9.4278    0.0000   -0.8991 C.1     1  LIG1        0.1032
     35 C          -7.7655    2.5711   -0.0594 C.ar    1  LIG1        0.0864
     36 C          -6.9854    3.6487    0.3164 C.ar    1  LIG1        0.0693
     37 C          -7.8463    4.7865    0.3497 C.ar    1  LIG1        0.0903
     38 C          -9.1104    4.3600   -0.0149 C.ar    1  LIG1        0.0215
     39 N          -9.0472    3.0330   -0.2670 N.ar    1  LIG1       -0.3568
     40 H          -9.8229    2.4540   -0.5582 H       1  LIG1        0.1655
     41 H         -10.0281    4.9182   -0.1118 H       1  LIG1        0.0820
     42 N          -5.6102    3.5659    0.6383 N.pl3   1  LIG1       -0.3553
     43 H          -4.9911    3.6505   -0.1669 H       1  LIG1        0.1424
     44 H          -5.3379    4.2800    1.3056 H       1  LIG1        0.1424
     45 N          -7.0984    7.1649    1.0017 N.1     1  LIG1       -0.1908
     46 C          -7.4566    6.1051    0.7030 C.1     1  LIG1        0.1025
@<TRIPOS>BOND
     1    33    34    3
     2    10     8    1
     3    31    30    1
     4     9     8    1
     5    34    26    1
     6    30    25    1
     7    30    32    1
     8    11    12    3
     9     8     2    1
    10    40    39    1
    11    12     3    1
    12    26    25   ar
    13    26    27   ar
    14     2     3   ar
    15     2     1   ar
    16    18    17    1
    17    25    24   ar
    18     3     4   ar
    19    39    35   ar
    20    39    38   ar
    21     1     7    1
    22     1     5   ar
    23    21    19    1
    24    27    35    1
    25    27    28   ar
    26    43    42    1
    27     4     5   ar
    28     4    13    1
    29    17    13   ar
    30    17    16   ar
    31    41    38    1
    32     5     6    1
    33    35    36   ar
    34    24    16    1
    35    24    28   ar
    36    13    14   ar
    37    38    37   ar
    38    16    15   ar
    39    28    29    1
    40    14    15   ar
    41    14    19    1
    42    15    23    1
    43    36    37   ar
    44    36    42    1
    45    37    46    1
    46    19    20    1
    47    23    22    3
    48    42    44    1
    49    46    45    3
