@<TRIPOS>MOLECULE
mol_data/opt/cam/geoms/mol2/13hd13da-12li-6ld.out
 50 53 0 0 0
SMALL
GASTEIGER

@<TRIPOS>ATOM
      1 C           1.1825    0.1671   -1.4056 C.ar    1  LIG1        0.0243
      2 C           0.9566    1.1793   -0.5053 C.ar    1  LIG1        0.0604
      3 C          -0.4007    1.0476   -0.0713 C.ar    1  LIG1        0.0990
      4 C          -0.9562   -0.0425   -0.7293 C.ar    1  LIG1        0.0836
      5 N           0.0207   -0.5715   -1.5145 N.ar    1  LIG1       -0.3568
      6 H          -0.1440   -1.2788   -2.2122 H       1  LIG1        0.1655
      7 H           2.0695   -0.0934   -1.9601 H       1  LIG1        0.0826
      8 N           1.8569    2.1145   -0.0135 N.pl3   1  LIG1       -0.3558
      9 H           2.5898    2.3751   -0.6570 H       1  LIG1        0.1424
     10 H           1.4173    2.9276    0.3960 H       1  LIG1        0.1424
     11 N          -1.4556    2.5469    1.7373 N.1     1  LIG1       -0.1907
     12 C          -1.0139    1.8590    0.9168 C.1     1  LIG1        0.1032
     13 C          -2.2859   -0.6172   -0.6610 C.ar    1  LIG1        0.0823
     14 C          -3.5430   -0.0373   -0.7677 C.ar    1  LIG1        0.0791
     15 C          -4.5133   -1.0694   -0.6510 C.ar    1  LIG1       -0.0152
     16 C          -3.8266   -2.2486   -0.4788 C.ar    1  LIG1        0.0875
     17 N          -2.4837   -1.9606   -0.4983 N.ar    1  LIG1       -0.3495
     18 H          -1.7657   -2.6374   -0.2877 H       1  LIG1        0.1661
     19 N          -4.0337    2.4445   -1.2702 N.1     1  LIG1       -0.1908
     20 C          -3.8037    1.3355   -1.0335 C.1     1  LIG1        0.1014
     21 H          -5.5841   -0.9600   -0.7197 H       1  LIG1        0.0653
     22 C          -4.2799   -3.6005   -0.2868 C.ar    1  LIG1        0.1934
     23 C          -5.5021   -4.1705   -0.0788 C.ar    1  LIG1        0.1706
     24 C          -5.3036   -5.5821    0.0391 C.ar    1  LIG1        0.0379
     25 C          -3.9570   -5.7713   -0.1027 C.ar    1  LIG1        0.1474
     26 O          -3.3310   -4.5723   -0.3013 O.2     1  LIG1       -0.4491
     27 O          -6.6997   -3.5297   -0.0040 O.3     1  LIG1       -0.4910
     28 C          -6.9864   -2.9739    1.2786 C.3     1  LIG1        0.0790
     29 H          -7.9721   -2.5145    1.2038 H       1  LIG1        0.0660
     30 H          -7.0044   -3.7510    2.0502 H       1  LIG1        0.0660
     31 H          -6.2488   -2.2129    1.5527 H       1  LIG1        0.0660
     32 C          -6.3849   -6.5843    0.2804 C.3     1  LIG1       -0.0326
     33 H          -6.0060   -7.4699    0.7950 H       1  LIG1        0.0280
     34 H          -6.8473   -6.9103   -0.6567 H       1  LIG1        0.0280
     35 H          -7.1795   -6.1464    0.8882 H       1  LIG1        0.0280
     36 C          -1.8530   -7.0303    0.5206 C.ar    1  LIG1        0.2255
     37 C          -3.1315   -6.9741   -0.0958 C.ar    1  LIG1        0.0803
     38 C          -3.5845   -8.1469   -0.6733 C.ar    1  LIG1       -0.0271
     39 C          -2.8025   -9.3092   -0.6216 C.ar    1  LIG1        0.0707
     40 C          -1.5655   -9.2373    0.0057 C.ar    1  LIG1        0.0488
     41 N          -1.1048   -8.1187    0.5612 N.ar    1  LIG1       -0.2194
     42 H          -4.5417   -8.1648   -1.1804 H       1  LIG1        0.0640
     43 H          -0.9244  -10.1121    0.0630 H       1  LIG1        0.0844
     44 O          -1.3979   -5.9145    1.0984 O.3     1  LIG1       -0.4792
     45 C          -0.1405   -5.9913    1.7699 C.3     1  LIG1        0.0804
     46 H           0.0223   -4.9996    2.1895 H       1  LIG1        0.0660
     47 H          -0.1675   -6.7409    2.5629 H       1  LIG1        0.0660
     48 H           0.6588   -6.2498    1.0728 H       1  LIG1        0.0660
     49 N          -3.6198  -11.5225   -1.6848 N.1     1  LIG1       -0.1908
     50 C          -3.2541  -10.5330   -1.2102 C.1     1  LIG1        0.1007
@<TRIPOS>BOND
     1     6     5    1
     2     7     1    1
     3    49    50    3
     4     5     1   ar
     5     5     4   ar
     6     1     2   ar
     7    19    20    3
     8    50    39    1
     9    42    38    1
    10    20    14    1
    11    14    13   ar
    12    14    15   ar
    13     4    13    1
    14     4     3   ar
    15    21    15    1
    16    38    39   ar
    17    38    37   ar
    18    13    17   ar
    19     9     8    1
    20    34    32    1
    21    15    16   ar
    22    39    40   ar
    23     2     3   ar
    24     2     8    1
    25    17    16   ar
    26    17    18    1
    27    16    22    1
    28    26    22   ar
    29    26    25   ar
    30    22    23   ar
    31    25    37    1
    32    25    24   ar
    33    37    36   ar
    34    23    27    1
    35    23    24   ar
    36     3    12    1
    37     8    10    1
    38    27    28    1
    39    40    43    1
    40    40    41   ar
    41    24    32    1
    42    32    33    1
    43    32    35    1
    44    36    41   ar
    45    36    44    1
    46    12    11    3
    47    48    45    1
    48    44    45    1
    49    29    28    1
    50    28    31    1
    51    28    30    1
    52    45    46    1
    53    45    47    1
