@<TRIPOS>MOLECULE
mol_data/opt/cam/geoms/mol2/13hd6el-4df12ee.out
 51 54 0 0 0
SMALL
GASTEIGER

@<TRIPOS>ATOM
      1 C           1.3621   -0.0476   -0.7265 C.ar    1  LIG1        0.0243
      2 C           0.9990    1.1311   -0.1190 C.ar    1  LIG1        0.0603
      3 C          -0.3854    1.0093    0.2031 C.ar    1  LIG1        0.0976
      4 C          -0.8244   -0.2546   -0.2203 C.ar    1  LIG1        0.0687
      5 N           0.2547   -0.8574   -0.7746 N.ar    1  LIG1       -0.3579
      6 H           0.2374   -1.8019   -1.1311 H       1  LIG1        0.1654
      7 H           2.3145   -0.3727   -1.1131 H       1  LIG1        0.0826
      8 N           1.8023    2.2170    0.2028 N.pl3   1  LIG1       -0.3558
      9 H           2.5885    2.3583   -0.4142 H       1  LIG1        0.1424
     10 H           1.2925    3.0760    0.3575 H       1  LIG1        0.1424
     11 N          -1.7005    2.8913    1.3686 N.1     1  LIG1       -0.1907
     12 C          -1.1236    2.0276    0.8520 C.1     1  LIG1        0.1031
     13 C          -2.4024   -2.2483   -0.2922 C.ar    1  LIG1        0.1232
     14 C          -2.1512   -0.8682   -0.1441 C.ar    1  LIG1        0.0369
     15 C          -3.2621   -0.0553    0.1023 C.ar    1  LIG1       -0.0060
     16 C          -4.5304   -0.6013    0.2046 C.ar    1  LIG1        0.1467
     17 C          -4.6872   -1.9836   -0.0293 C.ar    1  LIG1        0.1152
     18 N          -3.6376   -2.7615   -0.2396 N.ar    1  LIG1       -0.2340
     19 H          -3.1287    1.0082    0.2293 H       1  LIG1        0.0662
     20 C          -1.3702   -3.2259   -0.5129 C.1     1  LIG1       -0.0491
     21 C          -0.5302   -4.0678   -0.7070 C.1     1  LIG1       -0.1124
     22 H           0.1956   -4.8341   -0.8591 H       1  LIG1        0.1232
     23 O          -5.6298    0.0934    0.5363 O.3     1  LIG1       -0.4929
     24 C          -5.5622    1.5134    0.5468 C.3     1  LIG1        0.0789
     25 H          -6.5655    1.8542    0.7952 H       1  LIG1        0.0660
     26 H          -4.8543    1.8749    1.2992 H       1  LIG1        0.0660
     27 H          -5.2848    1.8930   -0.4410 H       1  LIG1        0.0660
     28 C          -7.1362   -2.1829   -0.7102 C.ar    1  LIG1        0.0619
     29 C          -8.3326   -2.8975   -0.6660 C.ar    1  LIG1       -0.0295
     30 C          -6.0130   -2.6551   -0.0080 C.ar    1  LIG1        0.0248
     31 C          -8.4638   -4.0748    0.0655 C.ar    1  LIG1        0.0611
     32 H          -9.1830   -2.5284   -1.2249 H       1  LIG1        0.0639
     33 C          -6.1344   -3.8425    0.7005 C.ar    1  LIG1       -0.0089
     34 C          -7.3322   -4.5468    0.7559 C.ar    1  LIG1        0.1282
     35 H          -5.2615   -4.2239    1.2214 H       1  LIG1        0.0661
     36 N          -7.0505   -0.1028   -2.2525 N.1     1  LIG1       -0.1908
     37 C          -7.0765   -1.0221   -1.5501 C.1     1  LIG1        0.0998
     38 O          -7.4470   -5.6796    1.4823 O.3     1  LIG1       -0.5060
     39 H          -6.6033   -5.8727    1.9091 H       1  LIG1        0.2922
     40 C          -9.7510   -4.7641    0.0984 C.ar    1  LIG1        0.1549
     41 C         -11.0421   -4.3035    0.0361 C.ar    1  LIG1        0.0858
     42 C         -11.8885   -5.4757    0.0775 C.ar    1  LIG1        0.0783
     43 C         -11.0404   -6.5340    0.1619 C.ar    1  LIG1        0.1092
     44 O          -9.7580   -6.1196    0.1737 O.2     1  LIG1       -0.4603
     45 H         -11.2056   -7.5976    0.2196 H       1  LIG1        0.1042
     46 C         -11.4859   -2.9578   -0.0349 C.1     1  LIG1       -0.0646
     47 C         -11.8758   -1.8208   -0.0999 C.1     1  LIG1       -0.1138
     48 H         -12.2222   -0.8144   -0.1538 H       1  LIG1        0.1232
     49 C         -13.3077   -5.5110    0.0439 C.1     1  LIG1       -0.0653
     50 C         -14.5099   -5.5386    0.0150 C.1     1  LIG1       -0.1138
     51 H         -15.5750   -5.5598   -0.0110 H       1  LIG1        0.1232
@<TRIPOS>BOND
     1    36    37    3
     2    37    28    1
     3    32    29    1
     4     6     5    1
     5     7     1    1
     6    22    21    1
     7     5     1   ar
     8     5     4   ar
     9     1     2   ar
    10    28    29   ar
    11    28    30   ar
    12    21    20    3
    13    29    31   ar
    14    20    13    1
    15    27    24    1
    16     9     8    1
    17    13    18   ar
    18    13    14   ar
    19    18    17   ar
    20     4    14    1
    21     4     3   ar
    22    48    47    1
    23    14    15   ar
    24     2     8    1
    25     2     3   ar
    26    47    46    3
    27    46    41    1
    28    17    30    1
    29    17    16   ar
    30    51    50    1
    31    30    33   ar
    32    50    49    3
    33    41    42   ar
    34    41    40   ar
    35    49    42    1
    36    31    40    1
    37    31    34   ar
    38    42    43   ar
    39    40    44   ar
    40    15    16   ar
    41    15    19    1
    42    43    44   ar
    43    43    45    1
    44     8    10    1
    45     3    12    1
    46    16    23    1
    47    23    24    1
    48    24    25    1
    49    24    26    1
    50    33    34   ar
    51    33    35    1
    52    34    38    1
    53    12    11    3
    54    38    39    1
