@<TRIPOS>MOLECULE
mol_data/opt/cam/geoms/mol2/13hd13hd-4hd13hd.out
 48 51 0 0 0
SMALL
GASTEIGER

@<TRIPOS>ATOM
      1 C           1.3552   -0.4460    0.3919 C.ar    1  LIG1        0.0243
      2 C           1.0124    0.8818    0.4853 C.ar    1  LIG1        0.0604
      3 C          -0.4053    0.9491    0.3048 C.ar    1  LIG1        0.0990
      4 C          -0.8689   -0.3551    0.1145 C.ar    1  LIG1        0.0842
      5 N           0.2037   -1.1716    0.1708 N.ar    1  LIG1       -0.3568
      6 H           0.1046   -2.1699    0.0176 H       1  LIG1        0.1655
      7 H           2.3165   -0.9260    0.4781 H       1  LIG1        0.0826
      8 N           1.8343    1.9673    0.7660 N.pl3   1  LIG1       -0.3558
      9 H           2.7992    1.8420    0.4968 H       1  LIG1        0.1424
     10 H           1.4747    2.8529    0.4379 H       1  LIG1        0.1424
     11 N          -1.9054    3.0369    0.1926 N.1     1  LIG1       -0.1907
     12 C          -1.2087    2.1101    0.2580 C.1     1  LIG1        0.1032
     13 C          -2.1952   -0.8701   -0.1254 C.ar    1  LIG1        0.0869
     14 C          -2.5805   -2.1391   -0.4939 C.ar    1  LIG1        0.0699
     15 C          -4.0014   -2.1243   -0.6265 C.ar    1  LIG1        0.0983
     16 C          -4.4481   -0.8400   -0.3203 C.ar    1  LIG1        0.0682
     17 N          -3.3326   -0.1038   -0.0347 N.ar    1  LIG1       -0.3504
     18 H          -3.3676    0.8525    0.2985 H       1  LIG1        0.1660
     19 N          -1.6782   -3.2199   -0.7024 N.pl3   1  LIG1       -0.3553
     20 H          -2.0207   -4.0642   -0.2524 H       1  LIG1        0.1424
     21 H          -1.5879   -3.4339   -1.6927 H       1  LIG1        0.1424
     22 N          -5.3531   -4.1907   -1.3594 N.1     1  LIG1       -0.1907
     23 C          -4.7698   -3.2451   -1.0306 C.1     1  LIG1        0.1032
     24 C          -6.0832    1.0865   -0.3969 C.ar    1  LIG1        0.0345
     25 C          -7.3860    1.5523   -0.2234 C.ar    1  LIG1       -0.0300
     26 C          -5.8038   -0.2931   -0.2307 C.ar    1  LIG1        0.0215
     27 C          -8.4589    0.7160    0.0888 C.ar    1  LIG1        0.0192
     28 H          -7.5650    2.6181   -0.3090 H       1  LIG1        0.0643
     29 C          -6.8664   -1.1315    0.0858 C.ar    1  LIG1       -0.0328
     30 C          -8.1698   -0.6620    0.2390 C.ar    1  LIG1        0.0616
     31 H          -6.6853   -2.1887    0.2357 H       1  LIG1        0.0638
     32 N          -5.0685    1.9931   -0.6579 N.pl3   1  LIG1       -0.3574
     33 H          -4.3522    1.7132   -1.3128 H       1  LIG1        0.1423
     34 H          -5.3574    2.9511   -0.7902 H       1  LIG1        0.1423
     35 N         -10.0203   -2.3484    0.8941 N.1     1  LIG1       -0.1908
     36 C          -9.1829   -1.6105    0.5820 C.1     1  LIG1        0.0998
     37 C          -9.7882    1.2963    0.2365 C.ar    1  LIG1        0.0700
     38 C         -10.2873    2.4979   -0.2520 C.ar    1  LIG1        0.0678
     39 C         -11.6236    2.6272    0.2273 C.ar    1  LIG1        0.0902
     40 C         -11.9032    1.5034    0.9846 C.ar    1  LIG1        0.0215
     41 N         -10.8142    0.7187    0.9786 N.ar    1  LIG1       -0.3580
     42 H         -10.7683   -0.1957    1.4038 H       1  LIG1        0.1654
     43 H         -12.8074    1.2271    1.5036 H       1  LIG1        0.0820
     44 N          -9.6401    3.4429   -1.0444 N.pl3   1  LIG1       -0.3553
     45 H          -9.1102    3.0421   -1.8080 H       1  LIG1        0.1424
     46 H         -10.2705    4.1586   -1.3854 H       1  LIG1        0.1424
     47 N         -13.1445    4.6235   -0.3494 N.1     1  LIG1       -0.1908
     48 C         -12.4856    3.7133   -0.0666 C.1     1  LIG1        0.1025
@<TRIPOS>BOND
     1    45    44    1
     2    21    19    1
     3    46    44    1
     4    22    23    3
     5    33    32    1
     6    44    38    1
     7    23    15    1
     8    34    32    1
     9    19    14    1
    10    19    20    1
    11    32    24    1
    12    15    14   ar
    13    15    16   ar
    14    14    13   ar
    15    24    26   ar
    16    24    25   ar
    17    47    48    3
    18    16    26    1
    19    16    17   ar
    20    28    25    1
    21    38    39   ar
    22    38    37   ar
    23    26    29   ar
    24    25    27   ar
    25    13    17   ar
    26    13     4    1
    27    48    39    1
    28    17    18    1
    29     6     5    1
    30    29    31    1
    31    29    30   ar
    32    27    37    1
    33    27    30   ar
    34     4     5   ar
    35     4     3   ar
    36     5     1   ar
    37    11    12    3
    38    39    40   ar
    39    37    41   ar
    40    30    36    1
    41    12     3    1
    42     3     2   ar
    43     1     7    1
    44     1     2   ar
    45    10     8    1
    46     2     8    1
    47     9     8    1
    48    36    35    3
    49    41    40   ar
    50    41    42    1
    51    40    43    1
