@<TRIPOS>MOLECULE
mol_data/opt/cam/geoms/mol2/13hd13hd13hd.out
 35 37 0 0 0
SMALL
GASTEIGER

@<TRIPOS>ATOM
      1 C           1.0792   -0.1984    0.9249 C.ar    1  LIG1        0.0243
      2 C           0.9139    0.9563    0.2087 C.ar    1  LIG1        0.0604
      3 C          -0.4305    0.9388   -0.2923 C.ar    1  LIG1        0.0990
      4 C          -1.0480   -0.2265    0.1548 C.ar    1  LIG1        0.0842
      5 N          -0.1128   -0.9094    0.8701 N.ar    1  LIG1       -0.3568
      6 H          -0.3377   -1.6711    1.4894 H       1  LIG1        0.1655
      7 H           1.9333   -0.5751    1.4639 H       1  LIG1        0.0826
      8 N           1.8162    1.9926    0.0120 N.pl3   1  LIG1       -0.3558
      9 H           2.7878    1.7280    0.0775 H       1  LIG1        0.1424
     10 H           1.6368    2.5505   -0.8111 H       1  LIG1        0.1424
     11 N          -1.5107    2.7057   -1.8188 N.1     1  LIG1       -0.1907
     12 C          -1.0133    1.9073   -1.1388 C.1     1  LIG1        0.1032
     13 C          -2.3857   -0.7309   -0.0421 C.ar    1  LIG1        0.0869
     14 C          -3.6207   -0.1049   -0.0602 C.ar    1  LIG1        0.0699
     15 C          -4.6014   -1.1412   -0.1848 C.ar    1  LIG1        0.0997
     16 C          -3.9485   -2.3715   -0.2318 C.ar    1  LIG1        0.0846
     17 N          -2.6215   -2.1040   -0.1481 N.ar    1  LIG1       -0.3493
     18 H          -1.8981   -2.8041   -0.1537 H       1  LIG1        0.1661
     19 N          -3.9107    1.2334    0.0905 N.pl3   1  LIG1       -0.3553
     20 H          -3.2708    1.8859   -0.3421 H       1  LIG1        0.1424
     21 H          -4.8753    1.4717   -0.0915 H       1  LIG1        0.1424
     22 N          -7.1466   -0.7987   -0.3369 N.1     1  LIG1       -0.1907
     23 C          -5.9970   -0.9457   -0.2804 C.1     1  LIG1        0.1032
     24 C          -4.4567   -3.7144   -0.3757 C.ar    1  LIG1        0.0864
     25 C          -5.5629   -4.3480    0.1690 C.ar    1  LIG1        0.0693
     26 C          -5.4812   -5.7225   -0.2333 C.ar    1  LIG1        0.0903
     27 C          -4.3477   -5.8772   -1.0040 C.ar    1  LIG1        0.0215
     28 N          -3.7266   -4.6806   -1.0719 N.ar    1  LIG1       -0.3568
     29 H          -3.0032   -4.4599   -1.7377 H       1  LIG1        0.1655
     30 H          -3.9733   -6.7521   -1.5120 H       1  LIG1        0.0820
     31 N          -6.5175   -3.8392    1.0212 N.pl3   1  LIG1       -0.3553
     32 H          -6.8299   -2.8948    0.8391 H       1  LIG1        0.1424
     33 H          -7.2889   -4.4678    1.1971 H       1  LIG1        0.1424
     34 N          -7.2068   -7.5144    0.4356 N.1     1  LIG1       -0.1908
     35 C          -6.4156   -6.7284    0.1229 C.1     1  LIG1        0.1025
@<TRIPOS>BOND
     1    11    12    3
     2    29    28    1
     3    30    27    1
     4    12     3    1
     5    28    27   ar
     6    28    24   ar
     7    27    26   ar
     8    10     8    1
     9    24    16    1
    10    24    25   ar
    11    20    19    1
    12    22    23    3
    13     3     4   ar
    14     3     2   ar
    15    23    15    1
    16    26    35    1
    17    26    25   ar
    18    16    15   ar
    19    16    17   ar
    20    15    14   ar
    21    18    17    1
    22    17    13   ar
    23    21    19    1
    24    14    13   ar
    25    14    19    1
    26    13     4    1
    27     8     9    1
    28     8     2    1
    29    35    34    3
    30     4     5   ar
    31    25    31    1
    32     2     1   ar
    33    32    31    1
    34     5     1   ar
    35     5     6    1
    36     1     7    1
    37    31    33    1
