@<TRIPOS>MOLECULE
mol_data/opt/cam/geoms/mol2/13hd12ff13dh-4if.out
 47 50 0 0 0
SMALL
GASTEIGER

@<TRIPOS>ATOM
      1 C           0.9386   -0.2313    1.3517 C.ar    1  LIG1        0.0244
      2 C           0.7463    1.0079    0.7941 C.ar    1  LIG1        0.0604
      3 C          -0.5632    1.0054    0.2137 C.ar    1  LIG1        0.1007
      4 C          -1.1283   -0.2463    0.4530 C.ar    1  LIG1        0.1053
      5 N          -0.2043   -0.9740    1.1293 N.ar    1  LIG1       -0.3555
      6 H          -0.3735   -1.9066    1.4668 H       1  LIG1        0.1655
      7 H           1.7794   -0.6374    1.8901 H       1  LIG1        0.0826
      8 N           1.6011    2.1036    0.8065 N.pl3   1  LIG1       -0.3558
      9 H           2.5834    1.8724    0.7820 H       1  LIG1        0.1424
     10 H           1.3683    2.8047    0.1159 H       1  LIG1        0.1424
     11 N          -1.4054    3.0152   -1.1537 N.1     1  LIG1       -0.1907
     12 C          -1.0823    2.0892   -0.5360 C.1     1  LIG1        0.1032
     13 C          -2.4056   -0.8091    0.1117 C.ar    1  LIG1        0.1981
     14 C          -3.6315   -0.2881   -0.1761 C.ar    1  LIG1        0.2074
     15 C          -4.5237   -1.3844   -0.3678 C.ar    1  LIG1        0.2074
     16 C          -3.7964   -2.5274   -0.1636 C.ar    1  LIG1        0.1981
     17 O          -2.4994   -2.1804    0.1329 O.2     1  LIG1       -0.4442
     18 O          -3.9750    1.0070   -0.2557 O.3     1  LIG1       -0.5008
     19 H          -4.9125    1.0535   -0.4919 H       1  LIG1        0.2924
     20 O          -5.7975   -1.1218   -0.7153 O.3     1  LIG1       -0.5008
     21 H          -6.3989   -1.8730   -0.5816 H       1  LIG1        0.2924
     22 C          -4.0485   -3.9389   -0.2511 C.ar    1  LIG1        0.1058
     23 C          -5.2361   -4.6731   -0.3017 C.ar    1  LIG1        0.1013
     24 C          -4.8932   -6.0597   -0.3798 C.ar    1  LIG1        0.0685
     25 C          -3.5178   -6.1402   -0.3540 C.ar    1  LIG1        0.0696
     26 N          -3.0389   -4.8362   -0.2965 N.ar    1  LIG1       -0.3491
     27 H          -2.0651   -4.5850   -0.2355 H       1  LIG1        0.1661
     28 N          -7.5675   -3.5930   -0.2536 N.1     1  LIG1       -0.1907
     29 C          -6.5279   -4.1118   -0.2718 C.1     1  LIG1        0.1033
     30 N          -5.8019   -7.1100   -0.4462 N.pl3   1  LIG1       -0.3553
     31 H          -6.7124   -6.8440   -0.7962 H       1  LIG1        0.1424
     32 H          -5.4466   -7.9214   -0.9344 H       1  LIG1        0.1424
     33 C          -2.6726   -8.3756    0.4180 C.ar    1  LIG1       -0.0411
     34 C          -1.7733   -9.4269    0.2234 C.ar    1  LIG1       -0.0548
     35 C          -2.6063   -7.2881   -0.4699 C.ar    1  LIG1        0.0065
     36 C          -0.8234   -9.4166   -0.7840 C.ar    1  LIG1       -0.0199
     37 H          -1.8101  -10.2754    0.9001 H       1  LIG1        0.0622
     38 C          -1.6420   -7.2708   -1.4864 C.ar    1  LIG1       -0.0108
     39 C          -0.7510   -8.3239   -1.6432 C.ar    1  LIG1        0.1175
     40 H          -1.6155   -6.4331   -2.1797 H       1  LIG1        0.0661
     41 H          -0.1292  -10.2384   -0.9173 H       1  LIG1        0.0654
     42 C          -3.6278   -8.4002    1.5830 C.3     1  LIG1       -0.0391
     43 H          -3.4353   -9.2685    2.2166 H       1  LIG1        0.0278
     44 H          -4.6748   -8.4311    1.2692 H       1  LIG1        0.0278
     45 H          -3.5174   -7.5024    2.1983 H       1  LIG1        0.0278
     46 O           0.1968   -8.3491   -2.6194 O.3     1  LIG1       -0.5067
     47 H           0.1274   -7.5519   -3.1574 H       1  LIG1        0.2921
@<TRIPOS>BOND
     1    47    46    1
     2    46    39    1
     3    40    38    1
     4    39    38   ar
     5    39    36   ar
     6    38    35   ar
     7    11    12    3
     8    32    30    1
     9    41    36    1
    10    31    30    1
    11    36    34   ar
    12    20    21    1
    13    20    15    1
    14    12     3    1
    15    19    18    1
    16    35    25    1
    17    35    33   ar
    18    30    24    1
    19    24    25   ar
    20    24    23   ar
    21    15    14   ar
    22    15    16   ar
    23    25    26   ar
    24    23    29    1
    25    23    22   ar
    26    26    22   ar
    27    26    27    1
    28    29    28    3
    29    18    14    1
    30    22    16    1
    31    14    13   ar
    32    16    17   ar
    33    13    17   ar
    34    13     4    1
    35    10     8    1
    36     3     4   ar
    37     3     2   ar
    38    34    33   ar
    39    34    37    1
    40    33    42    1
    41     4     5   ar
    42     9     8    1
    43     2     8    1
    44     2     1   ar
    45     5     1   ar
    46     5     6    1
    47    44    42    1
    48     1     7    1
    49    42    45    1
    50    42    43    1
