@<TRIPOS>MOLECULE
mol_data/opt/cam/geoms/mol2/13he13he-13he-13he-.out
 50 53 0 0 0
SMALL
GASTEIGER

@<TRIPOS>ATOM
      1 C           1.2675   -0.1965    0.2346 C.ar    1  LIG1        0.0243
      2 C           0.8207    1.0574    0.5743 C.ar    1  LIG1        0.0584
      3 C          -0.6097    1.0215    0.5262 C.ar    1  LIG1        0.0720
      4 C          -0.9726   -0.2750    0.1578 C.ar    1  LIG1        0.0821
      5 N           0.1657   -0.9874   -0.0114 N.ar    1  LIG1       -0.3569
      6 H           0.1302   -1.9578   -0.3037 H       1  LIG1        0.1655
      7 H           2.2702   -0.5867    0.1661 H       1  LIG1        0.0826
      8 N           1.5733    2.1673    0.9650 N.pl3   1  LIG1       -0.3559
      9 H           2.4740    2.2293    0.5113 H       1  LIG1        0.1424
     10 H           1.0637    3.0351    0.8639 H       1  LIG1        0.1424
     11 C          -1.4810    2.1044    0.8007 C.1     1  LIG1       -0.0656
     12 C          -2.2171    3.0359    1.0284 C.1     1  LIG1       -0.1138
     13 H          -2.8494    3.8609    1.2638 H       1  LIG1        0.1232
     14 C          -2.2661   -0.8738   -0.0586 C.ar    1  LIG1        0.0868
     15 C          -2.5953   -2.1618   -0.4108 C.ar    1  LIG1        0.0679
     16 C          -4.0214   -2.2294   -0.5218 C.ar    1  LIG1        0.0727
     17 C          -4.5205   -0.9667   -0.2127 C.ar    1  LIG1        0.0826
     18 N          -3.4410   -0.1669    0.0562 N.ar    1  LIG1       -0.3493
     19 H          -3.4837    0.7651    0.4444 H       1  LIG1        0.1661
     20 N          -1.6397   -3.1972   -0.6340 N.pl3   1  LIG1       -0.3553
     21 H          -1.7174   -3.9101    0.0875 H       1  LIG1        0.1424
     22 H          -1.8278   -3.6653   -1.5165 H       1  LIG1        0.1424
     23 C          -4.7550   -3.3653   -0.9451 C.1     1  LIG1       -0.0656
     24 C          -5.3548   -4.3499   -1.3038 C.1     1  LIG1       -0.1138
     25 H          -5.8812   -5.2084   -1.6520 H       1  LIG1        0.1232
     26 C          -5.8652   -0.4468   -0.1689 C.ar    1  LIG1        0.0868
     27 C          -7.0581   -0.9962    0.2634 C.ar    1  LIG1        0.0679
     28 C          -8.0611    0.0200    0.1481 C.ar    1  LIG1        0.0727
     29 C          -7.4485    1.1743   -0.3351 C.ar    1  LIG1        0.0826
     30 N          -6.1351    0.8757   -0.5247 N.ar    1  LIG1       -0.3493
     31 H          -5.4420    1.5368   -0.8337 H       1  LIG1        0.1661
     32 N          -7.2800   -2.2552    0.7911 N.pl3   1  LIG1       -0.3553
     33 H          -8.2612   -2.4900    0.8516 H       1  LIG1        0.1424
     34 H          -6.7298   -2.9976    0.3794 H       1  LIG1        0.1424
     35 C          -9.4357   -0.1693    0.4293 C.1     1  LIG1       -0.0656
     36 C         -10.6002   -0.3628    0.6847 C.1     1  LIG1       -0.1138
     37 H         -11.6332   -0.5400    0.8765 H       1  LIG1        0.1232
     38 C          -7.9852    2.4771   -0.6508 C.ar    1  LIG1        0.0863
     39 C          -8.9178    3.2682   -0.0055 C.ar    1  LIG1        0.0672
     40 C          -8.9897    4.5080   -0.7252 C.ar    1  LIG1        0.0632
     41 C          -8.0990    4.4276   -1.7754 C.ar    1  LIG1        0.0195
     42 N          -7.4805    3.2227   -1.7170 N.ar    1  LIG1       -0.3569
     43 H          -6.9570    2.8191   -2.4765 H       1  LIG1        0.1655
     44 H          -7.8868    5.1434   -2.5540 H       1  LIG1        0.0820
     45 N          -9.5960    3.0084    1.1714 N.pl3   1  LIG1       -0.3553
     46 H         -10.3519    3.6579    1.3401 H       1  LIG1        0.1424
     47 H          -9.8777    2.0452    1.3008 H       1  LIG1        0.1424
     48 C          -9.8289    5.5995   -0.3806 C.1     1  LIG1       -0.0663
     49 C         -10.5646    6.4970   -0.0540 C.1     1  LIG1       -0.1138
     50 H         -11.2040    7.3023    0.2240 H       1  LIG1        0.1232
@<TRIPOS>BOND
     1    44    41    1
     2    43    42    1
     3    41    42   ar
     4    41    40   ar
     5    42    38   ar
     6    25    24    1
     7    22    20    1
     8    24    23    3
     9    23    16    1
    10    31    30    1
    11    40    48    1
    12    40    39   ar
    13    38    29    1
    14    38    39   ar
    15    20    15    1
    16    20    21    1
    17    30    29   ar
    18    30    26   ar
    19    16    15   ar
    20    16    17   ar
    21    15    14   ar
    22    48    49    3
    23    29    28   ar
    24     6     5    1
    25    17    26    1
    26    17    18   ar
    27    26    27   ar
    28    14    18   ar
    29    14     4    1
    30    49    50    1
    31     5     4   ar
    32     5     1   ar
    33    39    45    1
    34    18    19    1
    35    28    27   ar
    36    28    35    1
    37     4     3   ar
    38     7     1    1
    39     1     2   ar
    40    27    32    1
    41    34    32    1
    42    35    36    3
    43     9     8    1
    44     3     2   ar
    45     3    11    1
    46     2     8    1
    47    36    37    1
    48    32    33    1
    49    11    12    3
    50    10     8    1
    51    12    13    1
    52    45    47    1
    53    45    46    1
