@<TRIPOS>MOLECULE
mol_data/opt/cam/geoms/mol2/13he6ai12lh-6fe.out
 51 54 0 0 0
SMALL
GASTEIGER

@<TRIPOS>ATOM
      1 C           1.1872    0.2019    1.3326 C.ar    1  LIG1        0.0242
      2 C           1.0850    1.1253    0.3223 C.ar    1  LIG1        0.0583
      3 C          -0.2147    0.9727   -0.2573 C.ar    1  LIG1        0.0705
      4 C          -0.8646   -0.0521    0.4293 C.ar    1  LIG1        0.0653
      5 N           0.0069   -0.5085    1.3716 N.ar    1  LIG1       -0.3580
      6 H          -0.2310   -1.1796    2.0823 H       1  LIG1        0.1654
      7 H           1.9890    0.0024    2.0252 H       1  LIG1        0.0826
      8 N           2.0171    2.0840   -0.0703 N.pl3   1  LIG1       -0.3559
      9 H           2.9778    1.7795   -0.0025 H       1  LIG1        0.1424
     10 H           1.8201    2.4595   -0.9888 H       1  LIG1        0.1424
     11 C          -0.6730    1.7213   -1.3714 C.1     1  LIG1       -0.0657
     12 C          -1.0014    2.3882   -2.3218 C.1     1  LIG1       -0.1138
     13 H          -1.3043    2.9669   -3.1635 H       1  LIG1        0.1232
     14 C          -2.4599   -1.9520    0.6575 C.ar    1  LIG1        0.0375
     15 C          -2.1898   -0.6372    0.2611 C.ar    1  LIG1        0.0179
     16 C          -3.2487    0.0681   -0.3107 C.ar    1  LIG1       -0.0461
     17 C          -4.5072   -0.5062   -0.4456 C.ar    1  LIG1       -0.0207
     18 C          -4.6687   -1.8097    0.0584 C.ar    1  LIG1        0.1126
     19 N          -3.6531   -2.5152    0.5750 N.ar    1  LIG1       -0.2508
     20 H          -3.0831    1.0759   -0.6742 H       1  LIG1        0.0628
     21 H          -1.6644   -2.5866    1.0439 H       1  LIG1        0.0836
     22 C          -5.6052    0.2477   -1.1423 C.3     1  LIG1       -0.0376
     23 H          -6.3744    0.5864   -0.4463 H       1  LIG1        0.0278
     24 H          -6.1104   -0.3884   -1.8743 H       1  LIG1        0.0278
     25 H          -5.1968    1.1150   -1.6643 H       1  LIG1        0.0278
     26 C          -5.9465   -2.5287    0.0224 C.ar    1  LIG1        0.1973
     27 C          -7.2587   -2.2072    0.2194 C.ar    1  LIG1        0.1886
     28 C          -8.0375   -3.3984    0.0686 C.ar    1  LIG1        0.1142
     29 C          -7.1456   -4.4028   -0.1838 C.ar    1  LIG1        0.1652
     30 O          -5.8778   -3.8682   -0.2141 O.2     1  LIG1       -0.4474
     31 O          -7.8064   -0.9971    0.5265 O.3     1  LIG1       -0.4896
     32 C          -8.0145   -0.8098    1.9277 C.3     1  LIG1        0.0791
     33 H          -7.0621   -0.8302    2.4665 H       1  LIG1        0.0660
     34 H          -8.4818    0.1684    2.0443 H       1  LIG1        0.0660
     35 H          -8.6745   -1.5841    2.3323 H       1  LIG1        0.0660
     36 N          -9.4229   -3.4256    0.2098 N.pl3   1  LIG1       -0.3522
     37 H          -9.8180   -2.5033    0.0684 H       1  LIG1        0.1425
     38 H          -9.8820   -4.1011   -0.3878 H       1  LIG1        0.1425
     39 C          -6.2799   -6.6170   -1.0423 C.ar    1  LIG1        0.2234
     40 C          -7.2861   -5.8306   -0.4173 C.ar    1  LIG1        0.0817
     41 C          -8.4519   -6.4899   -0.0433 C.ar    1  LIG1       -0.0290
     42 C          -8.6271   -7.8460   -0.3293 C.ar    1  LIG1        0.0437
     43 C          -7.5824   -8.4939   -0.9902 C.ar    1  LIG1        0.0468
     44 N          -6.4446   -7.8995   -1.3239 N.ar    1  LIG1       -0.2196
     45 H          -9.2249   -5.9565    0.4983 H       1  LIG1        0.0639
     46 H          -7.6764   -9.5449   -1.2505 H       1  LIG1        0.0843
     47 O          -5.0879   -6.1200   -1.3958 O.3     1  LIG1       -0.4919
     48 H          -4.9889   -5.2134   -1.0636 H       1  LIG1        0.2937
     49 C          -9.8189   -8.5434    0.0380 C.1     1  LIG1       -0.0681
     50 C         -10.8234   -9.1322    0.3445 C.1     1  LIG1       -0.1139
     51 H         -11.7094   -9.6577    0.6169 H       1  LIG1        0.1232
@<TRIPOS>BOND
     1    13    12    1
     2    12    11    3
     3    24    22    1
     4    25    22    1
     5    47    48    1
     6    47    39    1
     7    11     3    1
     8    44    39   ar
     9    44    43   ar
    10    46    43    1
    11    22    23    1
    12    22    17    1
    13    39    40   ar
    14    43    42   ar
    15    10     8    1
    16    20    16    1
    17    17    16   ar
    18    17    18   ar
    19    40    29    1
    20    40    41   ar
    21    38    36    1
    22    42    41   ar
    23    42    49    1
    24    16    15   ar
    25     3     2   ar
    26     3     4   ar
    27    30    29   ar
    28    30    26   ar
    29    29    28   ar
    30     8     9    1
    31     8     2    1
    32    41    45    1
    33    26    18    1
    34    26    27   ar
    35    49    50    3
    36    18    19   ar
    37    37    36    1
    38    28    36    1
    39    28    27   ar
    40    27    31    1
    41    15     4    1
    42    15    14   ar
    43     2     1   ar
    44    50    51    1
    45     4     5   ar
    46    31    32    1
    47    19    14   ar
    48    14    21    1
    49     1     5   ar
    50     1     7    1
    51     5     6    1
    52    32    34    1
    53    32    35    1
    54    32    33    1
