@<TRIPOS>MOLECULE
mol_data/opt/cam/geoms/mol2/13he4ia4fi13de12lh-13ha13ai6fa-.out
 96 103 0 0 0
SMALL
GASTEIGER

@<TRIPOS>ATOM
      1 C           0.6799    1.0369    2.8067 C.ar    1  LIG1        0.0242
      2 C           0.9228    1.6092    1.5848 C.ar    1  LIG1        0.0583
      3 C          -0.2071    1.3216    0.7502 C.ar    1  LIG1        0.0705
      4 C          -1.1107    0.5801    1.5057 C.ar    1  LIG1        0.0641
      5 N          -0.5454    0.4050    2.7320 N.ar    1  LIG1       -0.3580
      6 H          -1.0220   -0.0308    3.5037 H       1  LIG1        0.1654
      7 H           1.2626    1.0370    3.7139 H       1  LIG1        0.0826
      8 N           2.0213    2.3743    1.1883 N.pl3   1  LIG1       -0.3559
      9 H           2.9008    2.0568    1.5713 H       1  LIG1        0.1424
     10 H           2.0798    2.4589    0.1815 H       1  LIG1        0.1424
     11 C          -0.2802    1.6644   -0.6239 C.1     1  LIG1       -0.0657
     12 C          -0.2759    1.9750   -1.7899 C.1     1  LIG1       -0.1138
     13 H          -0.2912    2.2336   -2.8231 H       1  LIG1        0.1232
     14 C          -3.4853    0.6809    0.6444 C.ar    1  LIG1       -0.0407
     15 C          -4.6781    0.0080    0.3934 C.ar    1  LIG1       -0.0504
     16 C          -2.4054   -0.0416    1.1851 C.ar    1  LIG1        0.0025
     17 C          -4.8489   -1.3497    0.6717 C.ar    1  LIG1       -0.0141
     18 H          -5.5095    0.5657   -0.0208 H       1  LIG1        0.0626
     19 C          -2.5732   -1.4008    1.4682 C.ar    1  LIG1       -0.0518
     20 C          -3.7715   -2.0483    1.2198 C.ar    1  LIG1       -0.0533
     21 H          -1.7314   -1.9629    1.8609 H       1  LIG1        0.0624
     22 C          -3.3999    2.1575    0.3648 C.3     1  LIG1       -0.0391
     23 H          -4.3986    2.5844    0.2527 H       1  LIG1        0.0278
     24 H          -2.8390    2.3579   -0.5516 H       1  LIG1        0.0278
     25 H          -2.8846    2.6863    1.1703 H       1  LIG1        0.0278
     26 H          -3.8619   -3.1104    1.4222 H       1  LIG1        0.0624
     27 C          -6.9261   -1.8378   -0.7005 C.ar    1  LIG1        0.1252
     28 C          -8.1135   -2.5352   -0.8660 C.ar    1  LIG1       -0.0102
     29 C          -6.1427   -2.0397    0.4461 C.ar    1  LIG1        0.0239
     30 C          -8.5809   -3.4327    0.0971 C.ar    1  LIG1        0.0060
     31 H          -8.6895   -2.3810   -1.7728 H       1  LIG1        0.0661
     32 C          -6.6298   -2.9392    1.3935 C.ar    1  LIG1       -0.0470
     33 C          -7.8255   -3.6407    1.2642 C.ar    1  LIG1       -0.0405
     34 H          -6.0533   -3.0731    2.3036 H       1  LIG1        0.0628
     35 O          -6.4826   -0.9693   -1.6471 O.3     1  LIG1       -0.5061
     36 H          -7.1290   -0.9182   -2.3616 H       1  LIG1        0.2922
     37 C          -8.2630   -4.5450    2.3909 C.3     1  LIG1       -0.0391
     38 H          -7.7581   -4.2629    3.3168 H       1  LIG1        0.0278
     39 H          -8.0090   -5.5971    2.2099 H       1  LIG1        0.0278
     40 H          -9.3392   -4.4901    2.5701 H       1  LIG1        0.0278
     41 C          -9.8635   -4.1021   -0.1578 C.ar    1  LIG1        0.0662
     42 C         -11.0240   -3.6268   -0.7525 C.ar    1  LIG1        0.0930
     43 C         -11.9782   -4.6973   -0.7999 C.ar    1  LIG1        0.0710
     44 C         -11.3705   -5.7939   -0.2099 C.ar    1  LIG1        0.1031
     45 N         -10.1075   -5.4067    0.1620 N.ar    1  LIG1       -0.3496
     46 H          -9.4361   -6.0384    0.5681 H       1  LIG1        0.1661
     47 N         -11.4192   -1.2407   -1.6433 N.1     1  LIG1       -0.1908
     48 C         -11.2439   -2.3103   -1.2358 C.1     1  LIG1        0.1025
     49 C         -13.2680   -4.6471   -1.3860 C.1     1  LIG1       -0.0661
     50 C         -14.3603   -4.5976   -1.8898 C.1     1  LIG1       -0.1138
     51 H         -15.3223   -4.5529   -2.3457 H       1  LIG1        0.1232
     52 C         -11.8078   -7.1478    0.0132 C.ar    1  LIG1        0.1963
     53 C         -12.9966   -7.7782    0.2594 C.ar    1  LIG1        0.1886
     54 C         -12.7290   -9.1800    0.3338 C.ar    1  LIG1        0.1155
     55 C         -11.3788   -9.3289    0.1792 C.ar    1  LIG1        0.1779
     56 O         -10.8123   -8.1005   -0.0294 O.2     1  LIG1       -0.4461
     57 O         -14.2522   -7.2998    0.4249 O.3     1  LIG1       -0.4896
     58 C         -14.4063   -6.2548    1.3827 C.3     1  LIG1        0.0791
     59 H         -15.4797   -6.1028    1.4954 H       1  LIG1        0.0660
     60 H         -13.9724   -6.5483    2.3442 H       1  LIG1        0.0660
     61 H         -13.9500   -5.3253    1.0384 H       1  LIG1        0.0660
     62 N         -13.6952  -10.1925    0.5287 N.pl3   1  LIG1       -0.3521
     63 H         -14.5699   -9.7648    0.8173 H       1  LIG1        0.1425
     64 H         -13.8715  -10.7039   -0.3318 H       1  LIG1        0.1425
     65 C         -10.5077  -10.4667    0.1840 C.ar    1  LIG1        0.1055
     66 C         -10.6499  -11.7137    0.7817 C.ar    1  LIG1        0.0539
     67 C          -9.4924  -12.4665    0.4489 C.ar    1  LIG1       -0.0135
     68 C          -8.6740  -11.6715   -0.3259 C.ar    1  LIG1        0.0652
     69 N          -9.2746  -10.4482   -0.4568 N.ar    1  LIG1       -0.3491
     70 H          -9.0325   -9.7627   -1.1537 H       1  LIG1        0.1661
     71 N         -11.6652  -12.1066    1.6373 N.pl3   1  LIG1       -0.3562
     72 H         -12.5433  -11.6054    1.5108 H       1  LIG1        0.1424
     73 H         -11.7849  -13.1067    1.7017 H       1  LIG1        0.1424
     74 H          -9.2533  -13.4606    0.7979 H       1  LIG1        0.0658
     75 C          -7.3861  -11.9591   -0.9199 C.ar    1  LIG1        0.0636
     76 C          -6.8341  -13.1401   -1.3520 C.ar    1  LIG1       -0.0315
     77 C          -5.5225  -12.8739   -1.8374 C.ar    1  LIG1       -0.0244
     78 C          -5.3018  -11.5210   -1.6890 C.ar    1  LIG1        0.0550
     79 N          -6.4647  -10.9616   -1.1659 N.ar    1  LIG1       -0.3527
     80 H          -6.4710  -10.0791   -0.6753 H       1  LIG1        0.1660
     81 H          -7.3380  -14.0961   -1.3646 H       1  LIG1        0.0642
     82 C          -4.5944  -13.8782   -2.4472 C.3     1  LIG1       -0.0377
     83 H          -4.1320  -14.5162   -1.6865 H       1  LIG1        0.0278
     84 H          -3.7913  -13.3925   -3.0053 H       1  LIG1        0.0278
     85 H          -5.1304  -14.5370   -3.1360 H       1  LIG1        0.0278
     86 C          -4.2802   -9.4513   -2.6832 C.ar    1  LIG1        0.2216
     87 C          -4.1393  -10.6844   -2.0044 C.ar    1  LIG1        0.0599
     88 C          -2.8436  -11.0593   -1.6643 C.ar    1  LIG1       -0.0461
     89 C          -1.7714  -10.2353   -1.9852 C.ar    1  LIG1       -0.0427
     90 C          -2.0450   -9.0391   -2.6288 C.ar    1  LIG1        0.0314
     91 N          -3.2733   -8.6509   -2.9745 N.ar    1  LIG1       -0.2209
     92 H          -2.6871  -11.9904   -1.1298 H       1  LIG1        0.0626
     93 H          -1.2420   -8.3526   -2.8861 H       1  LIG1        0.0831
     94 O          -5.4950   -9.0030   -3.0764 O.3     1  LIG1       -0.4919
     95 H          -6.1400   -9.7147   -2.9578 H       1  LIG1        0.2937
     96 H          -0.7548  -10.5068   -1.7276 H       1  LIG1        0.0633
@<TRIPOS>BOND
     1    85    82    1
     2    94    95    1
     3    94    86    1
     4    84    82    1
     5    91    86   ar
     6    91    90   ar
     7    93    90    1
     8    13    12    1
     9    86    87   ar
    10    90    89   ar
    11    82    77    1
    12    82    83    1
    13    36    35    1
    14    51    50    1
    15    87    78    1
    16    87    88   ar
    17    89    96    1
    18    89    88   ar
    19    50    49    3
    20    77    78   ar
    21    77    76   ar
    22    12    11    3
    23    31    28    1
    24    78    79   ar
    25    88    92    1
    26    35    27    1
    27    47    48    3
    28    49    43    1
    29    81    76    1
    30    76    75   ar
    31    48    42    1
    32    79    75   ar
    33    79    80    1
    34    70    69    1
    35    75    68    1
    36    28    27   ar
    37    28    30   ar
    38    43    42   ar
    39    43    44   ar
    40    42    41   ar
    41    27    29   ar
    42    11     3    1
    43    24    22    1
    44    69    68   ar
    45    69    65   ar
    46    64    62    1
    47    68    67   ar
    48    44    52    1
    49    44    45   ar
    50    41    30    1
    51    41    45   ar
    52    56    52   ar
    53    56    55   ar
    54    18    15    1
    55    52    53   ar
    56    30    33   ar
    57    45    46    1
    58    55    65    1
    59    55    54   ar
    60    10     8    1
    61    65    66   ar
    62    23    22    1
    63    53    54   ar
    64    53    57    1
    65    54    62    1
    66    22    14    1
    67    22    25    1
    68    15    14   ar
    69    15    17   ar
    70    57    58    1
    71    29    17    1
    72    29    32   ar
    73    67    66   ar
    74    67    74    1
    75    62    63    1
    76    14    16   ar
    77    17    20   ar
    78     3     4   ar
    79     3     2   ar
    80    66    71    1
    81    61    58    1
    82    16    19   ar
    83    16     4    1
    84     8     9    1
    85     8     2    1
    86    20    26    1
    87    20    19   ar
    88    33    32   ar
    89    33    37    1
    90    58    59    1
    91    58    60    1
    92    32    34    1
    93    19    21    1
    94     4     5   ar
    95    72    71    1
    96     2     1   ar
    97    71    73    1
    98    39    37    1
    99    37    40    1
   100    37    38    1
   101     5     1   ar
   102     5     6    1
   103     1     7    1
