@<TRIPOS>MOLECULE
mol_data/opt/cam/geoms/mol2/13he13he13he13he.out
 50 53 0 0 0
SMALL
GASTEIGER

@<TRIPOS>ATOM
      1 C           0.7497    0.0131    1.7922 C.ar    1  LIG1        0.0243
      2 C           0.7826    0.9968    0.8419 C.ar    1  LIG1        0.0584
      3 C          -0.4301    0.8910    0.0799 C.ar    1  LIG1        0.0720
      4 C          -1.1728   -0.1569    0.6132 C.ar    1  LIG1        0.0821
      5 N          -0.4333   -0.6946    1.6281 N.ar    1  LIG1       -0.3569
      6 H          -0.8260   -1.2979    2.3321 H       1  LIG1        0.1655
      7 H           1.4607   -0.2504    2.5586 H       1  LIG1        0.0826
      8 N           1.7611    1.9661    0.6257 N.pl3   1  LIG1       -0.3559
      9 H           2.6987    1.6652    0.8503 H       1  LIG1        0.1424
     10 H           1.7194    2.3601   -0.3047 H       1  LIG1        0.1424
     11 C          -0.7473    1.6777   -1.0541 C.1     1  LIG1       -0.0656
     12 C          -0.9922    2.3690   -2.0138 C.1     1  LIG1       -0.1138
     13 H          -1.1982    2.9585   -2.8769 H       1  LIG1        0.1232
     14 C          -2.4667   -0.6876    0.2519 C.ar    1  LIG1        0.0868
     15 C          -3.6456   -0.0683   -0.1166 C.ar    1  LIG1        0.0679
     16 C          -4.6313   -1.0947   -0.2814 C.ar    1  LIG1        0.0727
     17 C          -4.0306   -2.3182    0.0069 C.ar    1  LIG1        0.0826
     18 N          -2.7318   -2.0554    0.3200 N.ar    1  LIG1       -0.3493
     19 H          -2.0605   -2.7479    0.6070 H       1  LIG1        0.1661
     20 N          -3.8962    1.2869   -0.2417 N.pl3   1  LIG1       -0.3553
     21 H          -3.1265    1.8313   -0.6094 H       1  LIG1        0.1424
     22 H          -4.7661    1.4842   -0.7168 H       1  LIG1        0.1424
     23 C          -5.9613   -0.8761   -0.7156 C.1     1  LIG1       -0.0656
     24 C          -7.0918   -0.6560   -1.0792 C.1     1  LIG1       -0.1138
     25 H          -8.0795   -0.4677   -1.4316 H       1  LIG1        0.1232
     26 C          -4.5556   -3.6630   -0.0155 C.ar    1  LIG1        0.0868
     27 C          -5.7562   -4.1865    0.4255 C.ar    1  LIG1        0.0679
     28 C          -5.6985   -5.6048    0.2325 C.ar    1  LIG1        0.0727
     29 C          -4.4536   -5.9135   -0.3107 C.ar    1  LIG1        0.0826
     30 N          -3.7809   -4.7389   -0.4511 N.ar    1  LIG1       -0.3493
     31 H          -2.8551   -4.6588   -0.8371 H       1  LIG1        0.1661
     32 N          -6.8105   -3.5191    1.0227 N.pl3   1  LIG1       -0.3553
     33 H          -6.9860   -2.5897    0.6629 H       1  LIG1        0.1424
     34 H          -7.6524   -4.0762    1.0720 H       1  LIG1        0.1424
     35 C          -6.7598   -6.5012    0.5067 C.1     1  LIG1       -0.0656
     36 C          -7.6812   -7.2404    0.7580 C.1     1  LIG1       -0.1138
     37 H          -8.5048   -7.8896    0.9464 H       1  LIG1        0.1232
     38 C          -3.8793   -7.1744   -0.7192 C.ar    1  LIG1        0.0863
     39 C          -3.9031   -8.4256   -0.1319 C.ar    1  LIG1        0.0672
     40 C          -3.0786   -9.2842   -0.9341 C.ar    1  LIG1        0.0632
     41 C          -2.5832   -8.5262   -1.9742 C.ar    1  LIG1        0.0195
     42 N          -3.0414   -7.2576   -1.8323 N.ar    1  LIG1       -0.3569
     43 H          -3.0271   -6.5688   -2.5667 H       1  LIG1        0.1655
     44 H          -1.9534   -8.8186   -2.7998 H       1  LIG1        0.0820
     45 N          -4.4992   -8.8026    1.0583 N.pl3   1  LIG1       -0.3553
     46 H          -5.3933   -8.3667    1.2448 H       1  LIG1        0.1424
     47 H          -4.5277   -9.8056    1.1806 H       1  LIG1        0.1424
     48 C          -2.8325  -10.6562   -0.6659 C.1     1  LIG1       -0.0663
     49 C          -2.6589  -11.8197   -0.4024 C.1     1  LIG1       -0.1138
     50 H          -2.4903  -12.8480   -0.1814 H       1  LIG1        0.1232
@<TRIPOS>BOND
     1    13    12    1
     2    44    41    1
     3    43    42    1
     4    12    11    3
     5    41    42   ar
     6    41    40   ar
     7    42    38   ar
     8    25    24    1
     9    24    23    3
    10    11     3    1
    11    40    48    1
    12    40    39   ar
    13    31    30    1
    14    38    29    1
    15    38    39   ar
    16    22    20    1
    17    23    16    1
    18    48    49    3
    19    21    20    1
    20    30    29   ar
    21    30    26   ar
    22    49    50    1
    23    29    28   ar
    24    10     8    1
    25    16    15   ar
    26    16    17   ar
    27    20    15    1
    28    39    45    1
    29    15    14   ar
    30    26    17    1
    31    26    27   ar
    32    17    18   ar
    33     3     4   ar
    34     3     2   ar
    35    28    27   ar
    36    28    35    1
    37    14    18   ar
    38    14     4    1
    39    18    19    1
    40    27    32    1
    41    35    36    3
    42     4     5   ar
    43     8     2    1
    44     8     9    1
    45    33    32    1
    46    36    37    1
    47     2     1   ar
    48    32    34    1
    49    45    47    1
    50    45    46    1
    51     5     1   ar
    52     5     6    1
    53     1     7    1
