@<TRIPOS>MOLECULE
mol_data/opt/cam/geoms/mol2/13he13he13he-13he.out
 50 53 0 0 0
SMALL
GASTEIGER

@<TRIPOS>ATOM
      1 C           1.1465   -0.2509   -0.8947 C.ar    1  LIG1        0.0243
      2 C           0.9398    0.9643   -0.3010 C.ar    1  LIG1        0.0584
      3 C          -0.4395    1.0175    0.0961 C.ar    1  LIG1        0.0720
      4 C          -1.0319   -0.1864   -0.2814 C.ar    1  LIG1        0.0821
      5 N          -0.0543   -0.9421   -0.8613 N.ar    1  LIG1       -0.3569
      6 H          -0.2442   -1.7829   -1.3802 H       1  LIG1        0.1655
      7 H           2.0409   -0.6933   -1.3028 H       1  LIG1        0.0826
      8 N           1.8711    1.9673   -0.0268 N.pl3   1  LIG1       -0.3559
      9 H           2.5786    2.0770   -0.7396 H       1  LIG1        0.1424
     10 H           1.4280    2.8529    0.1805 H       1  LIG1        0.1424
     11 C          -1.0248    2.1069    0.7868 C.1     1  LIG1       -0.0656
     12 C          -1.4853    3.0699    1.3511 C.1     1  LIG1       -0.1138
     13 H          -1.9037    3.8863    1.8924 H       1  LIG1        0.1232
     14 C          -2.3811   -0.6916   -0.1724 C.ar    1  LIG1        0.0868
     15 C          -3.6193   -0.0728   -0.2578 C.ar    1  LIG1        0.0679
     16 C          -4.6113   -1.1034   -0.2393 C.ar    1  LIG1        0.0727
     17 C          -3.9415   -2.3214   -0.1368 C.ar    1  LIG1        0.0826
     18 N          -2.6127   -2.0594   -0.1067 N.ar    1  LIG1       -0.3493
     19 H          -1.9487   -2.8002    0.0974 H       1  LIG1        0.1661
     20 N          -3.9169    1.2737   -0.3303 N.pl3   1  LIG1       -0.3553
     21 H          -3.1370    1.9016   -0.4499 H       1  LIG1        0.1424
     22 H          -4.7266    1.4998   -0.8883 H       1  LIG1        0.1424
     23 C          -6.0092   -0.8986   -0.3388 C.1     1  LIG1       -0.0656
     24 C          -7.1969   -0.7067   -0.4393 C.1     1  LIG1       -0.1138
     25 H          -8.2439   -0.5332   -0.5250 H       1  LIG1        0.1232
     26 C          -4.4208   -3.6773   -0.0274 C.ar    1  LIG1        0.0868
     27 C          -3.6980   -4.8397    0.1565 C.ar    1  LIG1        0.0679
     28 C          -4.6284   -5.9213    0.2133 C.ar    1  LIG1        0.0727
     29 C          -5.8979   -5.3683    0.0608 C.ar    1  LIG1        0.0826
     30 N          -5.7485   -4.0220   -0.0781 N.ar    1  LIG1       -0.3493
     31 H          -6.5390   -3.4006   -0.2336 H       1  LIG1        0.1661
     32 N          -2.2765   -4.8926    0.2816 N.pl3   1  LIG1       -0.3553
     33 H          -2.0156   -5.2630    1.1923 H       1  LIG1        0.1424
     34 H          -1.8845   -5.5294   -0.4072 H       1  LIG1        0.1424
     35 C          -4.3084   -7.2914    0.3896 C.1     1  LIG1       -0.0656
     36 C          -4.0258   -8.4565    0.5361 C.1     1  LIG1       -0.1138
     37 H          -3.7583   -9.4786    0.6751 H       1  LIG1        0.1232
     38 C          -7.2018   -5.9839    0.0222 C.ar    1  LIG1        0.0863
     39 C          -8.4484   -5.4025   -0.0803 C.ar    1  LIG1        0.0672
     40 C          -9.4124   -6.4576   -0.1189 C.ar    1  LIG1        0.0632
     41 C          -8.7092   -7.6434   -0.0317 C.ar    1  LIG1        0.0195
     42 N          -7.3870   -7.3461    0.0609 N.ar    1  LIG1       -0.3569
     43 H          -6.6293   -8.0083    0.1426 H       1  LIG1        0.1655
     44 H          -9.0664   -8.6610   -0.0275 H       1  LIG1        0.0820
     45 N          -8.6734   -4.0004   -0.1375 N.pl3   1  LIG1       -0.3553
     46 H          -9.4556   -3.7941   -0.7511 H       1  LIG1        0.1424
     47 H          -8.9136   -3.6323    0.7795 H       1  LIG1        0.1424
     48 C         -10.8182   -6.2896   -0.2339 C.1     1  LIG1       -0.0663
     49 C         -12.0050   -6.1067   -0.3352 C.1     1  LIG1       -0.1138
     50 H         -13.0568   -5.9614   -0.4219 H       1  LIG1        0.1232
@<TRIPOS>BOND
     1     6     5    1
     2     7     1    1
     3     1     5   ar
     4     1     2   ar
     5    22    20    1
     6     5     4   ar
     7    46    45    1
     8     9     8    1
     9    25    24    1
    10    21    20    1
    11    24    23    3
    12    50    49    1
    13    34    32    1
    14    23    16    1
    15    49    48    3
    16    20    15    1
    17     2     8    1
    18     2     3   ar
    19     4    14    1
    20     4     3   ar
    21    15    16   ar
    22    15    14   ar
    23    16    17   ar
    24    48    40    1
    25    31    30    1
    26    14    18   ar
    27    45    39    1
    28    45    47    1
    29    17    18   ar
    30    17    26    1
    31    40    39   ar
    32    40    41   ar
    33    18    19    1
    34    39    38   ar
    35    30    26   ar
    36    30    29   ar
    37    41    44    1
    38    41    42   ar
    39    26    27   ar
    40     8    10    1
    41    38    29    1
    42    38    42   ar
    43    29    28   ar
    44    42    43    1
    45     3    11    1
    46    27    28   ar
    47    27    32    1
    48    28    35    1
    49    32    33    1
    50    35    36    3
    51    36    37    1
    52    11    12    3
    53    12    13    1
