@<TRIPOS>MOLECULE
mol_data/opt/cam/geoms/mol2/13he6ff-13dl6ia-.out
 50 53 0 0 0
SMALL
GASTEIGER

@<TRIPOS>ATOM
      1 C           1.2562   -0.3216    0.7306 C.ar    1  LIG1        0.0242
      2 C           1.0814    0.8463    0.0342 C.ar    1  LIG1        0.0583
      3 C          -0.2989    0.9081   -0.3482 C.ar    1  LIG1        0.0707
      4 C          -0.9225   -0.2350    0.1365 C.ar    1  LIG1        0.0691
      5 N           0.0441   -0.9863    0.7561 N.ar    1  LIG1       -0.3579
      6 H          -0.1684   -1.7456    1.3851 H       1  LIG1        0.1654
      7 H           2.1349   -0.7392    1.1954 H       1  LIG1        0.0826
      8 N           2.0151    1.8378   -0.2437 N.pl3   1  LIG1       -0.3559
      9 H           2.9578    1.5050   -0.3831 H       1  LIG1        0.1424
     10 H           1.7242    2.4554   -0.9896 H       1  LIG1        0.1424
     11 C          -0.8626    1.9488   -1.1303 C.1     1  LIG1       -0.0657
     12 C          -1.2901    2.8565   -1.7990 C.1     1  LIG1       -0.1138
     13 H          -1.6899    3.6517   -2.3852 H       1  LIG1        0.1232
     14 C          -2.6815   -2.0292   -0.0176 C.ar    1  LIG1        0.2225
     15 C          -2.3167   -0.6642    0.0629 C.ar    1  LIG1        0.0644
     16 C          -3.3621    0.2410    0.0652 C.ar    1  LIG1       -0.0037
     17 C          -4.6973   -0.1725    0.0228 C.ar    1  LIG1        0.1451
     18 C          -4.9496   -1.5499    0.0004 C.ar    1  LIG1        0.1335
     19 N          -3.9229   -2.4275   -0.0336 N.ar    1  LIG1       -0.2072
     20 H          -3.1698    1.3060    0.1105 H       1  LIG1        0.0663
     21 O          -1.7500   -3.0213   -0.0648 O.3     1  LIG1       -0.4919
     22 H          -0.9191   -2.6508   -0.3942 H       1  LIG1        0.2937
     23 O          -5.5941    0.8344    0.0013 O.3     1  LIG1       -0.5045
     24 H          -6.5167    0.5641    0.1015 H       1  LIG1        0.2922
     25 C          -6.2528   -2.2348   -0.0326 C.ar    1  LIG1        0.0904
     26 C          -7.6048   -1.8904    0.0675 C.ar    1  LIG1        0.1207
     27 C          -8.3585   -3.0961   -0.0552 C.ar    1  LIG1        0.1633
     28 C          -7.4730   -4.1432   -0.2141 C.ar    1  LIG1        0.0922
     29 N          -6.2209   -3.5794   -0.1990 N.ar    1  LIG1       -0.3488
     30 H          -5.3251   -4.0395   -0.2945 H       1  LIG1        0.1661
     31 N          -8.6498    0.4324    0.4331 N.1     1  LIG1       -0.1907
     32 C          -8.1807   -0.6157    0.2631 C.1     1  LIG1        0.1050
     33 O          -9.7132   -3.1898   -0.0582 O.3     1  LIG1       -0.4917
     34 C         -10.3346   -2.9977    1.2112 C.3     1  LIG1        0.0789
     35 H         -11.4047   -3.1310    1.0530 H       1  LIG1        0.0660
     36 H          -9.9749   -3.7364    1.9350 H       1  LIG1        0.0660
     37 H         -10.1511   -1.9899    1.5956 H       1  LIG1        0.0660
     38 C          -6.8968   -6.6013    0.0463 C.ar    1  LIG1        0.0474
     39 C          -7.7421   -5.5712   -0.4149 C.ar    1  LIG1        0.0229
     40 C          -8.9107   -5.9419   -1.0873 C.ar    1  LIG1       -0.0494
     41 C          -9.1945   -7.2812   -1.2889 C.ar    1  LIG1       -0.0430
     42 C          -8.2895   -8.2185   -0.8131 C.ar    1  LIG1        0.0279
     43 N          -7.1773   -7.8905   -0.1613 N.ar    1  LIG1       -0.2595
     44 H          -9.5851   -5.1709   -1.4398 H       1  LIG1        0.0625
     45 H          -8.4655   -9.2825   -0.9536 H       1  LIG1        0.0829
     46 C          -5.6273   -6.3480    0.8178 C.3     1  LIG1       -0.0217
     47 H          -5.7332   -5.5344    1.5388 H       1  LIG1        0.0293
     48 H          -4.7894   -6.1033    0.1542 H       1  LIG1        0.0293
     49 H          -5.3586   -7.2632    1.3443 H       1  LIG1        0.0293
     50 H         -10.0934   -7.5919   -1.8091 H       1  LIG1        0.0633
@<TRIPOS>BOND
     1    13    12    1
     2    50    41    1
     3    12    11    3
     4    44    40    1
     5    41    40   ar
     6    41    42   ar
     7    11     3    1
     8    40    39   ar
     9    10     8    1
    10    45    42    1
    11    42    43   ar
    12    39    28    1
    13    39    38   ar
    14    22    21    1
    15     9     8    1
    16     3     2   ar
    17     3     4   ar
    18    30    29    1
    19     8     2    1
    20    28    29   ar
    21    28    27   ar
    22    29    25   ar
    23    43    38   ar
    24    21    14    1
    25    33    27    1
    26    33    34    1
    27    27    26   ar
    28    19    14   ar
    29    19    18   ar
    30    25    18    1
    31    25    26   ar
    32    14    15   ar
    33    18    17   ar
    34    23    17    1
    35    23    24    1
    36    17    16   ar
    37     2     1   ar
    38    38    46    1
    39    15    16   ar
    40    15     4    1
    41    16    20    1
    42    26    32    1
    43     4     5   ar
    44    48    46    1
    45    32    31    3
    46     1     5   ar
    47     1     7    1
    48     5     6    1
    49    46    49    1
    50    46    47    1
    51    35    34    1
    52    34    37    1
    53    34    36    1
