@<TRIPOS>MOLECULE
mol_data/opt/cam/geoms/mol2/13he12hl-4af-12da.out
 46 49 0 0 0
SMALL
GASTEIGER

@<TRIPOS>ATOM
      1 C           1.2283   -0.0126    0.4118 C.ar    1  LIG1        0.0243
      2 C           0.8962    1.2272   -0.0696 C.ar    1  LIG1        0.0584
      3 C          -0.5096    1.2118   -0.3515 C.ar    1  LIG1        0.0736
      4 C          -0.9867   -0.0553   -0.0103 C.ar    1  LIG1        0.1015
      5 N           0.0758   -0.7730    0.4381 N.ar    1  LIG1       -0.3556
      6 H          -0.0006   -1.7203    0.7671 H       1  LIG1        0.1655
      7 H           2.1749   -0.4101    0.7405 H       1  LIG1        0.0826
      8 N           1.7178    2.3422   -0.2309 N.pl3   1  LIG1       -0.3559
      9 H           2.6689    2.1189   -0.4879 H       1  LIG1        0.1424
     10 H           1.3239    3.0247   -0.8651 H       1  LIG1        0.1424
     11 C          -1.2079    2.2884   -0.9493 C.1     1  LIG1       -0.0656
     12 C          -1.7470    3.2364   -1.4698 C.1     1  LIG1       -0.1138
     13 H          -2.2185    4.0635   -1.9484 H       1  LIG1        0.1232
     14 C          -2.2963   -0.6512   -0.0591 C.ar    1  LIG1        0.1773
     15 C          -3.5822   -0.1784   -0.0673 C.ar    1  LIG1        0.1155
     16 C          -4.4164   -1.3402   -0.0540 C.ar    1  LIG1        0.1870
     17 C          -3.6118   -2.4441   -0.0302 C.ar    1  LIG1        0.1792
     18 O          -2.3149   -2.0302   -0.0301 O.2     1  LIG1       -0.4476
     19 N          -4.0849    1.1099   -0.0074 N.pl3   1  LIG1       -0.3521
     20 H          -3.4414    1.8330   -0.3054 H       1  LIG1        0.1425
     21 H          -4.9808    1.1880   -0.4715 H       1  LIG1        0.1425
     22 O          -5.7783   -1.2974   -0.0754 O.3     1  LIG1       -0.4896
     23 C          -6.3556   -0.9940    1.1971 C.3     1  LIG1        0.0791
     24 H          -7.4319   -0.9203    1.0393 H       1  LIG1        0.0660
     25 H          -6.1440   -1.7919    1.9162 H       1  LIG1        0.0660
     26 H          -5.9714   -0.0452    1.5836 H       1  LIG1        0.0660
     27 C          -5.1830   -4.3619   -0.1075 C.ar    1  LIG1       -0.0501
     28 C          -5.4078   -5.7249   -0.0843 C.ar    1  LIG1       -0.0469
     29 C          -3.8734   -3.8718   -0.0275 C.ar    1  LIG1        0.0245
     30 C          -4.3611   -6.6501    0.0057 C.ar    1  LIG1        0.0599
     31 H          -6.4265   -6.0908   -0.1364 H       1  LIG1        0.0626
     32 C          -2.8172   -4.7810    0.0564 C.ar    1  LIG1       -0.0087
     33 C          -3.0483   -6.1500    0.0659 C.ar    1  LIG1        0.1282
     34 H          -1.7973   -4.4123    0.1004 H       1  LIG1        0.0661
     35 H          -6.0106   -3.6704   -0.1951 H       1  LIG1        0.0625
     36 O          -2.0219   -7.0360    0.1152 O.3     1  LIG1       -0.5060
     37 H          -1.1879   -6.5522    0.0954 H       1  LIG1        0.2922
     38 C          -4.6532   -8.0792    0.0063 C.ar    1  LIG1        0.1556
     39 C          -5.6545   -8.8204   -0.5792 C.ar    1  LIG1        0.0975
     40 C          -5.4422  -10.1854   -0.1913 C.ar    1  LIG1       -0.0058
     41 C          -4.3403  -10.1741    0.5873 C.ar    1  LIG1        0.0939
     42 O          -3.8588   -8.9106    0.7147 O.2     1  LIG1       -0.4615
     43 H          -3.7890  -10.9421    1.1049 H       1  LIG1        0.1030
     44 N          -7.5457   -7.9684   -2.1101 N.1     1  LIG1       -0.1907
     45 C          -6.6898   -8.3426   -1.4260 C.1     1  LIG1        0.1030
     46 H          -6.0399  -11.0372   -0.4757 H       1  LIG1        0.0662
@<TRIPOS>BOND
     1    44    45    3
     2    13    12    1
     3    12    11    3
     4    45    39    1
     5    11     3    1
     6    10     8    1
     7    39    40   ar
     8    39    38   ar
     9     9     8    1
    10    46    40    1
    11    21    19    1
    12     3     2   ar
    13     3     4   ar
    14    20    19    1
    15     8     2    1
    16    35    27    1
    17    40    41   ar
    18    31    28    1
    19    27    28   ar
    20    27    29   ar
    21    28    30   ar
    22    22    16    1
    23    22    23    1
    24     2     1   ar
    25    15    14   ar
    26    15    16   ar
    27    15    19    1
    28    14    18   ar
    29    14     4    1
    30    16    17   ar
    31    17    18   ar
    32    17    29    1
    33    29    32   ar
    34     4     5   ar
    35    30    38    1
    36    30    33   ar
    37    38    42   ar
    38    32    33   ar
    39    32    34    1
    40    33    36    1
    41    37    36    1
    42     1     5   ar
    43     1     7    1
    44     5     6    1
    45    41    42   ar
    46    41    43    1
    47    24    23    1
    48    23    26    1
    49    23    25    1
