@<TRIPOS>MOLECULE
mol_data/opt/cam/geoms/mol2/13he13he13he13he-.out
 50 53 0 0 0
SMALL
GASTEIGER

@<TRIPOS>ATOM
      1 C           0.6868    0.1431    1.8109 C.ar    1  LIG1        0.0243
      2 C           0.7137    1.0823    0.8167 C.ar    1  LIG1        0.0584
      3 C          -0.4862    0.9180    0.0446 C.ar    1  LIG1        0.0720
      4 C          -1.2164   -0.1188    0.6166 C.ar    1  LIG1        0.0821
      5 N          -0.4804   -0.5945    1.6642 N.ar    1  LIG1       -0.3569
      6 H          -0.8707   -1.1763    2.3872 H       1  LIG1        0.1655
      7 H           1.3925   -0.0713    2.5973 H       1  LIG1        0.0826
      8 N           1.6773    2.0592    0.5679 N.pl3   1  LIG1       -0.3559
      9 H           2.6180    1.7827    0.8103 H       1  LIG1        0.1424
     10 H           1.6364    2.4112   -0.3795 H       1  LIG1        0.1424
     11 C          -0.7995    1.6434   -1.1303 C.1     1  LIG1       -0.0656
     12 C          -1.0404    2.2832   -2.1261 C.1     1  LIG1       -0.1138
     13 H          -1.2422    2.8249   -3.0210 H       1  LIG1        0.1232
     14 C          -2.4947   -0.6915    0.2669 C.ar    1  LIG1        0.0868
     15 C          -3.6780   -0.1169   -0.1556 C.ar    1  LIG1        0.0679
     16 C          -4.6450   -1.1680   -0.2687 C.ar    1  LIG1        0.0727
     17 C          -4.0275   -2.3612    0.1050 C.ar    1  LIG1        0.0826
     18 N          -2.7411   -2.0551    0.4248 N.ar    1  LIG1       -0.3493
     19 H          -2.0469   -2.7300    0.6991 H       1  LIG1        0.1661
     20 N          -3.9512    1.2237   -0.3645 N.pl3   1  LIG1       -0.3553
     21 H          -3.1862    1.7593   -0.7543 H       1  LIG1        0.1424
     22 H          -4.8173    1.3749   -0.8632 H       1  LIG1        0.1424
     23 C          -5.9662   -0.9929   -0.7459 C.1     1  LIG1       -0.0656
     24 C          -7.0874   -0.8033   -1.1535 C.1     1  LIG1       -0.1138
     25 H          -8.0650   -0.6445   -1.5462 H       1  LIG1        0.1232
     26 C          -4.5167   -3.7182    0.1562 C.ar    1  LIG1        0.0868
     27 C          -5.7387   -4.2411    0.5514 C.ar    1  LIG1        0.0679
     28 C          -5.6251   -5.6660    0.4947 C.ar    1  LIG1        0.0727
     29 C          -4.3296   -5.9627    0.0731 C.ar    1  LIG1        0.0826
     30 N          -3.6770   -4.7926   -0.1118 N.ar    1  LIG1       -0.3493
     31 H          -2.7582   -4.7852   -0.5453 H       1  LIG1        0.1661
     32 N          -6.8476   -3.5625    1.0254 N.pl3   1  LIG1       -0.3553
     33 H          -7.0151   -2.6625    0.5939 H       1  LIG1        0.1424
     34 H          -7.6803   -4.1343    1.0519 H       1  LIG1        0.1424
     35 C          -6.6477   -6.5911    0.8196 C.1     1  LIG1       -0.0656
     36 C          -7.5294   -7.3704    1.0945 C.1     1  LIG1       -0.1138
     37 H          -8.3167   -8.0425    1.3472 H       1  LIG1        0.1232
     38 C          -3.6796   -7.2196   -0.2050 C.ar    1  LIG1        0.0863
     39 C          -2.4143   -7.4625   -0.6976 C.ar    1  LIG1        0.0672
     40 C          -2.2560   -8.8806   -0.7950 C.ar    1  LIG1        0.0632
     41 C          -3.4382   -9.4433   -0.3559 C.ar    1  LIG1        0.0195
     42 N          -4.2826   -8.4367   -0.0056 N.ar    1  LIG1       -0.3569
     43 H          -5.2250   -8.5381    0.3434 H       1  LIG1        0.1655
     44 H          -3.7225  -10.4803   -0.2735 H       1  LIG1        0.0820
     45 N          -1.4808   -6.4375   -1.0409 N.pl3   1  LIG1       -0.3553
     46 H          -0.6131   -6.5673   -0.5266 H       1  LIG1        0.1424
     47 H          -1.2348   -6.5041   -2.0256 H       1  LIG1        0.1424
     48 C          -1.0954   -9.5568   -1.2576 C.1     1  LIG1       -0.0663
     49 C          -0.0941  -10.0964   -1.6554 C.1     1  LIG1       -0.1138
     50 H           0.7837  -10.5878   -2.0059 H       1  LIG1        0.1232
@<TRIPOS>BOND
     1    13    12    1
     2    12    11    3
     3    47    45    1
     4    50    49    1
     5    49    48    3
     6    25    24    1
     7    48    40    1
     8    24    23    3
     9    11     3    1
    10    45    39    1
    11    45    46    1
    12    22    20    1
    13    40    39   ar
    14    40    41   ar
    15    21    20    1
    16    23    16    1
    17    39    38   ar
    18    31    30    1
    19    10     8    1
    20    20    15    1
    21    41    44    1
    22    41    42   ar
    23    16    15   ar
    24    16    17   ar
    25    38    42   ar
    26    38    29    1
    27    15    14   ar
    28    30    29   ar
    29    30    26   ar
    30    42    43    1
    31     3     4   ar
    32     3     2   ar
    33    29    28   ar
    34    17    26    1
    35    17    18   ar
    36    26    27   ar
    37    14    18   ar
    38    14     4    1
    39    18    19    1
    40    28    27   ar
    41    28    35    1
    42    27    32    1
    43     8     9    1
    44     8     2    1
    45    33    32    1
    46     4     5   ar
    47     2     1   ar
    48    35    36    3
    49    32    34    1
    50    36    37    1
    51     5     1   ar
    52     5     6    1
    53     1     7    1
