@<TRIPOS>MOLECULE
mol_data/opt/cam/geoms/mol2/13he12eh6ll-4ei-.out
 57 60 0 0 0
SMALL
GASTEIGER

@<TRIPOS>ATOM
      1 C           1.2259   -0.0930   -0.4065 C.ar    1  LIG1        0.0243
      2 C           0.8981    1.1885   -0.0310 C.ar    1  LIG1        0.0584
      3 C          -0.5205    1.2321    0.1453 C.ar    1  LIG1        0.0736
      4 C          -1.0059   -0.0448   -0.1394 C.ar    1  LIG1        0.1008
      5 N           0.0640   -0.8209   -0.4687 N.ar    1  LIG1       -0.3556
      6 H          -0.0250   -1.7993   -0.6945 H       1  LIG1        0.1655
      7 H           2.1846   -0.5371   -0.6215 H       1  LIG1        0.0826
      8 N           1.7563    2.2600    0.2168 N.pl3   1  LIG1       -0.3559
      9 H           2.5394    2.3166   -0.4190 H       1  LIG1        0.1424
     10 H           1.2611    3.1413    0.2597 H       1  LIG1        0.1424
     11 C          -1.2126    2.3834    0.5954 C.1     1  LIG1       -0.0656
     12 C          -1.7171    3.4044    0.9915 C.1     1  LIG1       -0.1138
     13 H          -2.1956    4.2831    1.3564 H       1  LIG1        0.1232
     14 C          -2.3117   -0.6523   -0.1359 C.ar    1  LIG1        0.1702
     15 C          -3.6147   -0.2244   -0.2445 C.ar    1  LIG1        0.0931
     16 C          -4.4238   -1.4140   -0.2375 C.ar    1  LIG1        0.0874
     17 C          -3.5689   -2.4770   -0.1417 C.ar    1  LIG1        0.1627
     18 O          -2.2822   -2.0009   -0.0774 O.2     1  LIG1       -0.4500
     19 C          -4.1473    1.0722   -0.4493 C.1     1  LIG1       -0.0639
     20 C          -4.6929    2.1263   -0.6571 C.1     1  LIG1       -0.1137
     21 H          -5.1322    3.0806   -0.8333 H       1  LIG1        0.1232
     22 N          -5.8123   -1.4143   -0.3062 N.pl3   1  LIG1       -0.3541
     23 H          -6.1754   -0.5214   -0.6176 H       1  LIG1        0.1425
     24 H          -6.1946   -2.1771   -0.8502 H       1  LIG1        0.1425
     25 C          -2.8915   -4.8825   -0.5257 C.ar    1  LIG1        0.2262
     26 C          -3.8025   -3.9070   -0.0677 C.ar    1  LIG1        0.0841
     27 C          -4.9950   -4.3869    0.4738 C.ar    1  LIG1       -0.0020
     28 C          -5.2545   -5.7534    0.5221 C.ar    1  LIG1        0.1469
     29 C          -4.3043   -6.6309   -0.0070 C.ar    1  LIG1        0.1175
     30 N          -3.1413   -6.1732   -0.4869 N.ar    1  LIG1       -0.2086
     31 H          -5.6993   -3.6754    0.8868 H       1  LIG1        0.0663
     32 O          -1.7134   -4.4630   -1.0457 O.3     1  LIG1       -0.4792
     33 C          -0.8500   -5.4717   -1.5503 C.3     1  LIG1        0.0804
     34 H           0.0117   -4.9428   -1.9584 H       1  LIG1        0.0660
     35 H          -0.5322   -6.1551   -0.7588 H       1  LIG1        0.0660
     36 H          -1.3384   -6.0581   -2.3322 H       1  LIG1        0.0660
     37 O          -6.3552   -6.3011    1.0967 O.3     1  LIG1       -0.4929
     38 C          -7.4362   -5.4520    1.4099 C.3     1  LIG1        0.0789
     39 H          -8.2417   -6.1009    1.7523 H       1  LIG1        0.0660
     40 H          -7.1821   -4.7454    2.2087 H       1  LIG1        0.0660
     41 H          -7.7740   -4.8934    0.5290 H       1  LIG1        0.0660
     42 C          -5.6163   -8.7202   -0.6051 C.ar    1  LIG1        0.0340
     43 C          -5.7106  -10.1166   -0.5805 C.ar    1  LIG1       -0.0454
     44 C          -4.4960   -8.1042   -0.0188 C.ar    1  LIG1        0.0197
     45 C          -4.7198  -10.8885    0.0006 C.ar    1  LIG1       -0.0576
     46 H          -6.5753  -10.5879   -1.0343 H       1  LIG1        0.0630
     47 C          -3.5008   -8.9049    0.5381 C.ar    1  LIG1       -0.0484
     48 C          -3.5900  -10.2930    0.5623 C.ar    1  LIG1       -0.0498
     49 H          -2.6322   -8.4147    0.9661 H       1  LIG1        0.0627
     50 H          -4.8203  -11.9700    0.0121 H       1  LIG1        0.0621
     51 C          -6.6393   -7.9783   -1.2808 C.1     1  LIG1       -0.0690
     52 C          -7.5082   -7.4071   -1.8885 C.1     1  LIG1       -0.1139
     53 H          -8.2728   -6.8985   -2.4284 H       1  LIG1        0.1232
     54 C          -2.4893  -11.1304    1.1567 C.3     1  LIG1       -0.0397
     55 H          -1.8897  -10.5557    1.8661 H       1  LIG1        0.0278
     56 H          -1.8132  -11.4999    0.3782 H       1  LIG1        0.0278
     57 H          -2.8904  -12.0028    1.6790 H       1  LIG1        0.0278
@<TRIPOS>BOND
     1    53    52    1
     2    36    33    1
     3    34    33    1
     4    52    51    3
     5    33    32    1
     6    33    35    1
     7    51    42    1
     8    32    25    1
     9    46    43    1
    10    24    22    1
    11    21    20    1
    12     6     5    1
    13    20    19    3
    14     7     1    1
    15    23    22    1
    16    42    43   ar
    17    42    44   ar
    18    43    45   ar
    19    25    30   ar
    20    25    26   ar
    21    30    29   ar
    22     5     1   ar
    23     5     4   ar
    24    19    15    1
    25     9     8    1
    26     1     2   ar
    27    22    16    1
    28    15    16   ar
    29    15    14   ar
    30    16    17   ar
    31    17    18   ar
    32    17    26    1
    33     4    14    1
    34     4     3   ar
    35    14    18   ar
    36    26    27   ar
    37     2     3   ar
    38     2     8    1
    39    44    29    1
    40    44    47   ar
    41    29    28   ar
    42    45    50    1
    43    45    48   ar
    44     3    11    1
    45     8    10    1
    46    56    54    1
    47    27    28   ar
    48    27    31    1
    49    28    37    1
    50    41    38    1
    51    47    48   ar
    52    47    49    1
    53    48    54    1
    54    11    12    3
    55    12    13    1
    56    37    38    1
    57    54    57    1
    58    54    55    1
    59    38    39    1
    60    38    40    1
