@<TRIPOS>MOLECULE
mol_data/opt/cam/geoms/mol2/13he13he-13he-13he.out
 50 53 0 0 0
SMALL
GASTEIGER

@<TRIPOS>ATOM
      1 C           1.2719   -0.2899    0.0278 C.ar    1  LIG1        0.0243
      2 C           0.8756    0.9425    0.4868 C.ar    1  LIG1        0.0584
      3 C          -0.5558    0.9387    0.5204 C.ar    1  LIG1        0.0720
      4 C          -0.9707   -0.3179    0.0763 C.ar    1  LIG1        0.0821
      5 N           0.1389   -1.0371   -0.2130 N.ar    1  LIG1       -0.3569
      6 H           0.0626   -1.9835   -0.5697 H       1  LIG1        0.1655
      7 H           2.2594   -0.6932   -0.1296 H       1  LIG1        0.0826
      8 N           1.6758    2.0050    0.9151 N.pl3   1  LIG1       -0.3559
      9 H           2.5480    2.0852    0.4112 H       1  LIG1        0.1424
     10 H           1.1803    2.8868    0.9082 H       1  LIG1        0.1424
     11 C          -1.3808    2.0135    0.9335 C.1     1  LIG1       -0.0656
     12 C          -2.0742    2.9404    1.2816 C.1     1  LIG1       -0.1138
     13 H          -2.6684    3.7534    1.6290 H       1  LIG1        0.1232
     14 C          -2.2871   -0.8768   -0.1081 C.ar    1  LIG1        0.0868
     15 C          -2.6592   -2.1346   -0.5230 C.ar    1  LIG1        0.0679
     16 C          -4.0897   -2.1733   -0.5605 C.ar    1  LIG1        0.0727
     17 C          -4.5470   -0.9240   -0.1463 C.ar    1  LIG1        0.0826
     18 N          -3.4407   -0.1619    0.1148 N.ar    1  LIG1       -0.3493
     19 H          -3.4513    0.7609    0.5260 H       1  LIG1        0.1661
     20 N          -1.7377   -3.1694   -0.8634 N.pl3   1  LIG1       -0.3553
     21 H          -1.7912   -3.9260   -0.1856 H       1  LIG1        0.1424
     22 H          -1.9839   -3.5763   -1.7620 H       1  LIG1        0.1424
     23 C          -4.8611   -3.2699   -1.0179 C.1     1  LIG1       -0.0656
     24 C          -5.4899   -4.2231   -1.4109 C.1     1  LIG1       -0.1138
     25 H          -6.0432   -5.0508   -1.7903 H       1  LIG1        0.1232
     26 C          -5.8748   -0.3811    0.0060 C.ar    1  LIG1        0.0868
     27 C          -7.0635   -0.9485    0.4412 C.ar    1  LIG1        0.0679
     28 C          -8.0386    0.0970    0.4814 C.ar    1  LIG1        0.0727
     29 C          -7.4044    1.2715    0.0769 C.ar    1  LIG1        0.0826
     30 N          -6.1140    0.9726   -0.1921 N.ar    1  LIG1       -0.3493
     31 H          -5.5051    1.6670   -0.6168 H       1  LIG1        0.1661
     32 N          -7.2875   -2.2449    0.8720 N.pl3   1  LIG1       -0.3553
     33 H          -8.2694   -2.4694    0.9539 H       1  LIG1        0.1424
     34 H          -6.7725   -2.9576    0.3714 H       1  LIG1        0.1424
     35 C          -9.3927   -0.0495    0.8711 C.1     1  LIG1       -0.0656
     36 C         -10.5471   -0.1883    1.2002 C.1     1  LIG1       -0.1138
     37 H         -11.5597   -0.3271    1.5015 H       1  LIG1        0.1232
     38 C          -7.9049    2.6104   -0.1144 C.ar    1  LIG1        0.0863
     39 C          -7.2513    3.7303   -0.5848 C.ar    1  LIG1        0.0672
     40 C          -8.1951    4.8050   -0.5963 C.ar    1  LIG1        0.0632
     41 C          -9.3888    4.2904   -0.1299 C.ar    1  LIG1        0.0195
     42 N          -9.2005    2.9745    0.1568 N.ar    1  LIG1       -0.3569
     43 H          -9.8953    2.3317    0.5089 H       1  LIG1        0.1655
     44 H         -10.3421    4.7740    0.0128 H       1  LIG1        0.0820
     45 N          -5.8806    3.7426   -0.9823 N.pl3   1  LIG1       -0.3553
     46 H          -5.7925    4.0895   -1.9339 H       1  LIG1        0.1424
     47 H          -5.3457    4.3808   -0.3987 H       1  LIG1        0.1424
     48 C          -7.9328    6.1372   -1.0143 C.1     1  LIG1       -0.0663
     49 C          -7.6750    7.2571   -1.3766 C.1     1  LIG1       -0.1138
     50 H          -7.4618    8.2514   -1.6943 H       1  LIG1        0.1232
@<TRIPOS>BOND
     1    46    45    1
     2    25    24    1
     3    22    20    1
     4    50    49    1
     5    24    23    3
     6    49    48    3
     7    23    16    1
     8    48    40    1
     9    45    39    1
    10    45    47    1
    11    20    15    1
    12    20    21    1
    13    31    30    1
    14    40    39   ar
    15    40    41   ar
    16    39    38   ar
    17     6     5    1
    18    16    15   ar
    19    16    17   ar
    20    15    14   ar
    21     5     1   ar
    22     5     4   ar
    23    30    26   ar
    24    30    29   ar
    25    17    26    1
    26    17    18   ar
    27    41    44    1
    28    41    42   ar
    29     7     1    1
    30    38    29    1
    31    38    42   ar
    32    14     4    1
    33    14    18   ar
    34    26    27   ar
    35     1     2   ar
    36     4     3   ar
    37    29    28   ar
    38    18    19    1
    39    42    43    1
    40    34    32    1
    41     9     8    1
    42    27    28   ar
    43    27    32    1
    44    28    35    1
    45     2     3   ar
    46     2     8    1
    47     3    11    1
    48    35    36    3
    49    32    33    1
    50    10     8    1
    51    11    12    3
    52    36    37    1
    53    12    13    1
