@<TRIPOS>MOLECULE
mol_data/opt/cam/geoms/mol2/13he13he.out
 26 27 0 0 0
SMALL
GASTEIGER

@<TRIPOS>ATOM
      1 C           1.1539   -0.3278    0.4580 C.ar    1  LIG1        0.0243
      2 C           0.8302    0.9601    0.1286 C.ar    1  LIG1        0.0584
      3 C          -0.5733    0.9809   -0.1750 C.ar    1  LIG1        0.0720
      4 C          -1.0604   -0.3101    0.0006 C.ar    1  LIG1        0.0821
      5 N           0.0001   -1.0924    0.3549 N.ar    1  LIG1       -0.3569
      6 H          -0.1063   -2.0111    0.7520 H       1  LIG1        0.1655
      7 H           2.0960   -0.7664    0.7451 H       1  LIG1        0.0826
      8 N           1.6530    2.0857    0.1060 N.pl3   1  LIG1       -0.3559
      9 H           2.6108    1.8927   -0.1498 H       1  LIG1        0.1424
     10 H           1.2713    2.8339   -0.4574 H       1  LIG1        0.1424
     11 C          -1.2854    2.1123   -0.6418 C.1     1  LIG1       -0.0656
     12 C          -1.8656    3.0966   -1.0335 C.1     1  LIG1       -0.1138
     13 H          -2.3739    3.9550   -1.4074 H       1  LIG1        0.1232
     14 C          -2.3891   -0.8583   -0.1465 C.ar    1  LIG1        0.0863
     15 C          -3.6347   -0.3581    0.1842 C.ar    1  LIG1        0.0672
     16 C          -4.5941   -1.3825   -0.1158 C.ar    1  LIG1        0.0632
     17 C          -3.8991   -2.4665   -0.6116 C.ar    1  LIG1        0.0195
     18 N          -2.5791   -2.1595   -0.6098 N.ar    1  LIG1       -0.3569
     19 H          -1.8710   -2.6805   -1.1001 H       1  LIG1        0.1655
     20 H          -4.2673   -3.4150   -0.9699 H       1  LIG1        0.0820
     21 N          -3.9414    0.8485    0.7894 N.pl3   1  LIG1       -0.3553
     22 H          -3.3723    1.6314    0.4939 H       1  LIG1        0.1424
     23 H          -4.9295    1.0598    0.7601 H       1  LIG1        0.1424
     24 C          -5.9945   -1.2686    0.0855 C.1     1  LIG1       -0.0663
     25 C          -7.1776   -1.1232    0.2659 C.1     1  LIG1       -0.1138
     26 H          -8.2252   -1.0141    0.4253 H       1  LIG1        0.1232
@<TRIPOS>BOND
     1    13    12    1
     2    19    18    1
     3    12    11    3
     4    20    17    1
     5    11     3    1
     6    17    18   ar
     7    17    16   ar
     8    18    14   ar
     9    10     8    1
    10     3     4   ar
    11     3     2   ar
    12     9     8    1
    13    14     4    1
    14    14    15   ar
    15    16    24    1
    16    16    15   ar
    17     4     5   ar
    18    24    25    3
    19     8     2    1
    20     2     1   ar
    21    15    21    1
    22    25    26    1
    23     5     1   ar
    24     5     6    1
    25     1     7    1
    26    22    21    1
    27    23    21    1
