@<TRIPOS>MOLECULE
mol_data/opt/cam/geoms/mol2/13he13he-13he.out
 38 40 0 0 0
SMALL
GASTEIGER

@<TRIPOS>ATOM
      1 C           1.2547   -0.3474   -0.0399 C.ar    1  LIG1        0.0243
      2 C           0.8922    0.9775   -0.0562 C.ar    1  LIG1        0.0584
      3 C          -0.5381    1.0233   -0.0658 C.ar    1  LIG1        0.0720
      4 C          -0.9888   -0.2972   -0.0503 C.ar    1  LIG1        0.0821
      5 N           0.1024   -1.1010   -0.0384 N.ar    1  LIG1       -0.3569
      6 H          -0.0009   -2.1103   -0.0283 H       1  LIG1        0.1655
      7 H           2.2304   -0.8060   -0.0187 H       1  LIG1        0.0826
      8 N           1.7202    2.1029   -0.0111 N.pl3   1  LIG1       -0.3559
      9 H           2.5881    1.9881   -0.5160 H       1  LIG1        0.1424
     10 H           1.2409    2.9396   -0.3179 H       1  LIG1        0.1424
     11 C          -1.3215    2.2024   -0.1041 C.1     1  LIG1       -0.0656
     12 C          -1.9657    3.2229   -0.1475 C.1     1  LIG1       -0.1138
     13 H          -2.5355    4.1217   -0.1841 H       1  LIG1        0.1232
     14 C          -2.3174   -0.8630   -0.0514 C.ar    1  LIG1        0.0868
     15 C          -2.6948   -2.1910   -0.0403 C.ar    1  LIG1        0.0679
     16 C          -4.1227   -2.2333   -0.0383 C.ar    1  LIG1        0.0727
     17 C          -4.5639   -0.9125   -0.0479 C.ar    1  LIG1        0.0826
     18 N          -3.4638   -0.1094   -0.0539 N.ar    1  LIG1       -0.3493
     19 H          -3.5355    0.9051   -0.0864 H       1  LIG1        0.1661
     20 N          -1.7804   -3.2875   -0.0276 N.pl3   1  LIG1       -0.3553
     21 H          -1.9348   -3.8685    0.7924 H       1  LIG1        0.1424
     22 H          -1.9330   -3.8858   -0.8353 H       1  LIG1        0.1424
     23 C          -4.9254   -3.4021   -0.0298 C.1     1  LIG1       -0.0656
     24 C          -5.6016   -4.4031   -0.0251 C.1     1  LIG1       -0.1138
     25 H          -6.1813   -5.2971   -0.0159 H       1  LIG1        0.1232
     26 C          -5.8956   -0.3571   -0.0615 C.ar    1  LIG1        0.0863
     27 C          -6.3025    0.9603   -0.0346 C.ar    1  LIG1        0.0672
     28 C          -7.7315    0.9697   -0.0971 C.ar    1  LIG1        0.0632
     29 C          -8.1364   -0.3493   -0.1553 C.ar    1  LIG1        0.0195
     30 N          -7.0274   -1.1345   -0.1266 N.ar    1  LIG1       -0.3569
     31 H          -7.0078   -2.1436   -0.1519 H       1  LIG1        0.1655
     32 H          -9.1291   -0.7669   -0.2127 H       1  LIG1        0.0820
     33 N          -5.4122    2.0675    0.0404 N.pl3   1  LIG1       -0.3553
     34 H          -5.7180    2.8091   -0.5824 H       1  LIG1        0.1424
     35 H          -5.4011    2.4603    0.9783 H       1  LIG1        0.1424
     36 C          -8.5532    2.1284   -0.1042 C.1     1  LIG1       -0.0663
     37 C          -9.2183    3.1333   -0.1105 C.1     1  LIG1       -0.1138
     38 H          -9.8195    4.0128   -0.1149 H       1  LIG1        0.1232
@<TRIPOS>BOND
     1    22    20    1
     2    34    33    1
     3     9     8    1
     4    10     8    1
     5    32    29    1
     6    13    12    1
     7    29    30   ar
     8    29    28   ar
     9    31    30    1
    10    12    11    3
    11    30    26   ar
    12    38    37    1
    13    37    36    3
    14    36    28    1
    15    11     3    1
    16    28    27   ar
    17    19    18    1
    18     3     2   ar
    19     3     4   ar
    20    26    17    1
    21    26    27   ar
    22     2     1   ar
    23     2     8    1
    24    18    14   ar
    25    18    17   ar
    26    14     4    1
    27    14    15   ar
    28     4     5   ar
    29    17    16   ar
    30    15    16   ar
    31    15    20    1
    32     1     5   ar
    33     1     7    1
    34     5     6    1
    35    16    23    1
    36    27    33    1
    37    23    24    3
    38    20    21    1
    39    24    25    1
    40    33    35    1
