@<TRIPOS>MOLECULE
mol_data/opt/cam/geoms/mol2/13he13he-4he13he.out
 52 55 0 0 0
SMALL
GASTEIGER

@<TRIPOS>ATOM
      1 C           1.3603   -0.4434    0.1855 C.ar    1  LIG1        0.0243
      2 C           1.0004    0.8454    0.4985 C.ar    1  LIG1        0.0584
      3 C          -0.4273    0.9116    0.4290 C.ar    1  LIG1        0.0720
      4 C          -0.8778   -0.3610    0.0763 C.ar    1  LIG1        0.0821
      5 N           0.2087   -1.1566   -0.0655 N.ar    1  LIG1       -0.3569
      6 H           0.1059   -2.1268   -0.3434 H       1  LIG1        0.1655
      7 H           2.3334   -0.9055    0.1376 H       1  LIG1        0.0826
      8 N           1.8259    1.9057    0.8812 N.pl3   1  LIG1       -0.3559
      9 H           2.7288    1.9033    0.4274 H       1  LIG1        0.1424
     10 H           1.3745    2.8040    0.7689 H       1  LIG1        0.1424
     11 C          -1.2261    2.0584    0.6602 C.1     1  LIG1       -0.0656
     12 C          -1.9084    3.0383    0.8449 C.1     1  LIG1       -0.1138
     13 H          -2.5119    3.8960    1.0319 H       1  LIG1        0.1232
     14 C          -2.2079   -0.8725   -0.1479 C.ar    1  LIG1        0.0867
     15 C          -2.6117   -2.1339   -0.5282 C.ar    1  LIG1        0.0679
     16 C          -4.0363   -2.1198   -0.6290 C.ar    1  LIG1        0.0712
     17 C          -4.4628   -0.8354   -0.2985 C.ar    1  LIG1        0.0662
     18 N          -3.3367   -0.1040   -0.0212 N.ar    1  LIG1       -0.3505
     19 H          -3.3381    0.8511    0.3147 H       1  LIG1        0.1660
     20 N          -1.7182   -3.2193   -0.7753 N.pl3   1  LIG1       -0.3553
     21 H          -1.9131   -3.9849   -0.1346 H       1  LIG1        0.1424
     22 H          -1.8678   -3.5914   -1.7098 H       1  LIG1        0.1424
     23 C          -4.8214   -3.2319   -1.0317 C.1     1  LIG1       -0.0657
     24 C          -5.4421   -4.2058   -1.3781 C.1     1  LIG1       -0.1138
     25 H          -6.0083   -5.0536   -1.6873 H       1  LIG1        0.1232
     26 C          -6.0983    1.0782   -0.4810 C.ar    1  LIG1        0.0345
     27 C          -7.3953    1.5563   -0.3156 C.ar    1  LIG1       -0.0301
     28 C          -5.8117   -0.2745   -0.1895 C.ar    1  LIG1        0.0214
     29 C          -8.4542    0.7510    0.1114 C.ar    1  LIG1        0.0173
     30 H          -7.5870    2.6077   -0.5017 H       1  LIG1        0.0643
     31 C          -6.8631   -1.0780    0.2380 C.ar    1  LIG1       -0.0348
     32 C          -8.1692   -0.6081    0.3887 C.ar    1  LIG1        0.0346
     33 H          -6.6639   -2.1170    0.4693 H       1  LIG1        0.0637
     34 N          -5.0903    1.9576   -0.8760 N.pl3   1  LIG1       -0.3574
     35 H          -4.3783    1.5576   -1.4724 H       1  LIG1        0.1423
     36 H          -5.4307    2.8376   -1.2365 H       1  LIG1        0.1423
     37 C          -9.1566   -1.5504    0.8227 C.1     1  LIG1       -0.0690
     38 C          -9.9539   -2.3729    1.2018 C.1     1  LIG1       -0.1139
     39 H         -10.6545   -3.1158    1.5065 H       1  LIG1        0.1232
     40 C          -9.7759    1.3534    0.2520 C.ar    1  LIG1        0.0699
     41 C         -10.3044    2.5001   -0.3244 C.ar    1  LIG1        0.0658
     42 C         -11.6199    2.6826    0.1979 C.ar    1  LIG1        0.0632
     43 C         -11.8520    1.6390    1.0762 C.ar    1  LIG1        0.0195
     44 N         -10.7564    0.8547    1.0971 N.ar    1  LIG1       -0.3580
     45 H         -10.6650   -0.0182    1.5936 H       1  LIG1        0.1654
     46 H         -12.7280    1.4160    1.6649 H       1  LIG1        0.0820
     47 N          -9.6970    3.3697   -1.2374 N.pl3   1  LIG1       -0.3554
     48 H          -9.2248    2.8857   -1.9916 H       1  LIG1        0.1424
     49 H         -10.3703    4.0275   -1.6133 H       1  LIG1        0.1424
     50 C         -12.4983    3.7384   -0.1590 C.1     1  LIG1       -0.0663
     51 C         -13.2090    4.6504   -0.5017 C.1     1  LIG1       -0.1138
     52 H         -13.8504    5.4522   -0.7851 H       1  LIG1        0.1232
@<TRIPOS>BOND
     1    48    47    1
     2    22    20    1
     3    25    24    1
     4    49    47    1
     5    35    34    1
     6    24    23    3
     7    47    41    1
     8    36    34    1
     9    23    16    1
    10    34    26    1
    11    52    51    1
    12    20    15    1
    13    20    21    1
    14    16    15   ar
    15    16    17   ar
    16    15    14   ar
    17    51    50    3
    18    30    27    1
    19    26    27   ar
    20    26    28   ar
    21     6     5    1
    22    41    42   ar
    23    41    40   ar
    24    27    29   ar
    25    17    28    1
    26    17    18   ar
    27    28    31   ar
    28    50    42    1
    29    14    18   ar
    30    14     4    1
    31     5     4   ar
    32     5     1   ar
    33    18    19    1
    34     4     3   ar
    35    29    40    1
    36    29    32   ar
    37     7     1    1
    38     1     2   ar
    39    42    43   ar
    40    31    32   ar
    41    31    33    1
    42    40    44   ar
    43    32    37    1
    44     9     8    1
    45     3     2   ar
    46     3    11    1
    47     2     8    1
    48    11    12    3
    49    10     8    1
    50    37    38    3
    51    12    13    1
    52    43    44   ar
    53    43    46    1
    54    44    45    1
    55    38    39    1
