@<TRIPOS>MOLECULE
mol_data/opt/cam/geoms/mol2/13he13he13he.out
 38 40 0 0 0
SMALL
GASTEIGER

@<TRIPOS>ATOM
      1 C           1.1828   -0.2370    0.4210 C.ar    1  LIG1        0.0243
      2 C           0.8593    0.9574   -0.1621 C.ar    1  LIG1        0.0584
      3 C          -0.5641    0.9657   -0.3551 C.ar    1  LIG1        0.0720
      4 C          -1.0625   -0.2360    0.1425 C.ar    1  LIG1        0.0821
      5 N           0.0082   -0.9601    0.5788 N.ar    1  LIG1       -0.3569
      6 H          -0.0862   -1.7710    1.1671 H       1  LIG1        0.1655
      7 H           2.1364   -0.6381    0.7244 H       1  LIG1        0.0826
      8 N           1.7009    2.0173   -0.4994 N.pl3   1  LIG1       -0.3559
      9 H           2.6289    1.7339   -0.7799 H       1  LIG1        0.1424
     10 H           1.2888    2.6351   -1.1862 H       1  LIG1        0.1424
     11 C          -1.2830    1.9902   -1.0160 C.1     1  LIG1       -0.0656
     12 C          -1.8666    2.8838   -1.5823 C.1     1  LIG1       -0.1138
     13 H          -2.3782    3.6553   -2.1095 H       1  LIG1        0.1232
     14 C          -2.4042   -0.7568    0.2264 C.ar    1  LIG1        0.0868
     15 C          -3.6161   -0.1510    0.4765 C.ar    1  LIG1        0.0679
     16 C          -4.6105   -1.1898    0.5384 C.ar    1  LIG1        0.0727
     17 C          -3.9725   -2.4027    0.3172 C.ar    1  LIG1        0.0826
     18 N          -2.6318   -2.1415    0.1754 N.ar    1  LIG1       -0.3493
     19 H          -2.0536   -2.7406   -0.3956 H       1  LIG1        0.1661
     20 N          -3.8761    1.1745    0.7571 N.pl3   1  LIG1       -0.3553
     21 H          -3.2985    1.8466    0.2693 H       1  LIG1        0.1424
     22 H          -4.8595    1.4045    0.7313 H       1  LIG1        0.1424
     23 C          -5.9738   -0.9592    0.8475 C.1     1  LIG1       -0.0656
     24 C          -7.1299   -0.7135    1.0918 C.1     1  LIG1       -0.1138
     25 H          -8.1469   -0.5257    1.3477 H       1  LIG1        0.1232
     26 C          -4.4624   -3.7535    0.2054 C.ar    1  LIG1        0.0863
     27 C          -5.6434   -4.2871   -0.2850 C.ar    1  LIG1        0.0672
     28 C          -5.4976   -5.7152   -0.2792 C.ar    1  LIG1        0.0632
     29 C          -4.2442   -5.9988    0.2212 C.ar    1  LIG1        0.0195
     30 N          -3.6170   -4.8284    0.4888 N.ar    1  LIG1       -0.3569
     31 H          -2.7909   -4.7404    1.0574 H       1  LIG1        0.1655
     32 H          -3.7787   -6.9545    0.4053 H       1  LIG1        0.0820
     33 N          -6.7807   -3.6411   -0.7088 N.pl3   1  LIG1       -0.3553
     34 H          -6.7469   -2.6375   -0.7897 H       1  LIG1        0.1424
     35 H          -7.3151   -4.1194   -1.4176 H       1  LIG1        0.1424
     36 C          -6.4742   -6.6351   -0.7422 C.1     1  LIG1       -0.0663
     37 C          -7.3247   -7.3831   -1.1546 C.1     1  LIG1       -0.1138
     38 H          -8.0728   -8.0569   -1.5025 H       1  LIG1        0.1232
@<TRIPOS>BOND
     1    13    12    1
     2    12    11    3
     3    38    37    1
     4    35    33    1
     5    10     8    1
     6    37    36    3
     7    11     3    1
     8    34    33    1
     9     9     8    1
    10    36    28    1
    11    33    27    1
    12     8     2    1
    13    19    18    1
    14     3     2   ar
    15     3     4   ar
    16    27    28   ar
    17    27    26   ar
    18    28    29   ar
    19     2     1   ar
    20     4    14    1
    21     4     5   ar
    22    18    14   ar
    23    18    17   ar
    24    26    17    1
    25    26    30   ar
    26    29    32    1
    27    29    30   ar
    28    14    15   ar
    29    21    20    1
    30    17    16   ar
    31     1     5   ar
    32     1     7    1
    33    15    16   ar
    34    15    20    1
    35    30    31    1
    36    16    23    1
    37     5     6    1
    38    22    20    1
    39    23    24    3
    40    24    25    1
