@<TRIPOS>MOLECULE
mol_data/opt/cam/geoms/mol2/13he13he13he-13he-.out
 50 53 0 0 0
SMALL
GASTEIGER

@<TRIPOS>ATOM
      1 C           1.1740   -0.1376    0.7553 C.ar    1  LIG1        0.0243
      2 C           0.8883    1.0676    0.1734 C.ar    1  LIG1        0.0584
      3 C          -0.5107    1.0626   -0.1492 C.ar    1  LIG1        0.0720
      4 C          -1.0345   -0.1581    0.2700 C.ar    1  LIG1        0.0821
      5 N           0.0009   -0.8759    0.7906 N.ar    1  LIG1       -0.3569
      6 H          -0.1261   -1.7194    1.3244 H       1  LIG1        0.1655
      7 H           2.1006   -0.5332    1.1391 H       1  LIG1        0.0826
      8 N           1.7426    2.1464   -0.0570 N.pl3   1  LIG1       -0.3559
      9 H           2.6943    1.8797   -0.2657 H       1  LIG1        0.1424
     10 H           1.3837    2.7790   -0.7601 H       1  LIG1        0.1424
     11 C          -1.1800    2.0958   -0.8480 C.1     1  LIG1       -0.0656
     12 C          -1.7192    2.9983   -1.4432 C.1     1  LIG1       -0.1138
     13 H          -2.1903    3.7784   -1.9951 H       1  LIG1        0.1232
     14 C          -2.3719   -0.6998    0.2130 C.ar    1  LIG1        0.0868
     15 C          -3.6134   -0.1090    0.3888 C.ar    1  LIG1        0.0679
     16 C          -4.5901   -1.1521    0.3153 C.ar    1  LIG1        0.0727
     17 C          -3.9049   -2.3489    0.1053 C.ar    1  LIG1        0.0826
     18 N          -2.5830   -2.0643    0.0594 N.ar    1  LIG1       -0.3493
     19 H          -1.9135   -2.7753   -0.2175 H       1  LIG1        0.1661
     20 N          -3.8982    1.2117    0.6900 N.pl3   1  LIG1       -0.3553
     21 H          -3.2861    1.8909    0.2562 H       1  LIG1        0.1424
     22 H          -4.8739    1.4441    0.5678 H       1  LIG1        0.1424
     23 C          -5.9901   -0.9845    0.4519 C.1     1  LIG1       -0.0656
     24 C          -7.1830   -0.8269    0.5662 C.1     1  LIG1       -0.1138
     25 H          -8.2290   -0.6686    0.6932 H       1  LIG1        0.1232
     26 C          -4.3807   -3.6932   -0.0953 C.ar    1  LIG1        0.0868
     27 C          -3.6773   -4.8469   -0.3560 C.ar    1  LIG1        0.0679
     28 C          -4.6251   -5.9097   -0.4973 C.ar    1  LIG1        0.0727
     29 C          -5.8905   -5.3629   -0.2997 C.ar    1  LIG1        0.0826
     30 N          -5.7157   -4.0253   -0.0670 N.ar    1  LIG1       -0.3493
     31 H          -6.4393   -3.3831    0.2242 H       1  LIG1        0.1661
     32 N          -2.2571   -4.9049   -0.4841 N.pl3   1  LIG1       -0.3553
     33 H          -1.8624   -5.4918    0.2470 H       1  LIG1        0.1424
     34 H          -2.0025   -5.3438   -1.3654 H       1  LIG1        0.1424
     35 C          -4.3086   -7.2458   -0.8475 C.1     1  LIG1       -0.0656
     36 C          -4.0094   -8.3777   -1.1422 C.1     1  LIG1       -0.1138
     37 H          -3.7488   -9.3682   -1.4362 H       1  LIG1        0.1232
     38 C          -7.2082   -5.9504   -0.3276 C.ar    1  LIG1        0.0863
     39 C          -7.6871   -7.1721    0.1114 C.ar    1  LIG1        0.0672
     40 C          -9.1064   -7.1681   -0.0966 C.ar    1  LIG1        0.0632
     41 C          -9.4394   -5.9467   -0.6462 C.ar    1  LIG1        0.0195
     42 N          -8.3075   -5.2133   -0.7664 N.ar    1  LIG1       -0.3569
     43 H          -8.2321   -4.3614   -1.2977 H       1  LIG1        0.1655
     44 H         -10.4005   -5.5743   -0.9643 H       1  LIG1        0.0820
     45 N          -6.9933   -8.1917    0.7385 N.pl3   1  LIG1       -0.3553
     46 H          -7.5321   -9.0441    0.8098 H       1  LIG1        0.1424
     47 H          -6.0580   -8.3539    0.3887 H       1  LIG1        0.1424
     48 C          -9.9771   -8.2410    0.2274 C.1     1  LIG1       -0.0663
     49 C         -10.6758   -9.1814    0.5119 C.1     1  LIG1       -0.1138
     50 H         -11.3097   -9.9996    0.7636 H       1  LIG1        0.1232
@<TRIPOS>BOND
     1    13    12    1
     2    12    11    3
     3    37    36    1
     4    34    32    1
     5    43    42    1
     6    36    35    3
     7    44    41    1
     8    11     3    1
     9    35    28    1
    10    42    41   ar
    11    42    38   ar
    12    10     8    1
    13    41    40   ar
    14    28    27   ar
    15    28    29   ar
    16    32    27    1
    17    32    33    1
    18    27    26   ar
    19    38    29    1
    20    38    39   ar
    21    29    30   ar
    22     9     8    1
    23    19    18    1
    24     3     2   ar
    25     3     4   ar
    26    40    39   ar
    27    40    48    1
    28    26    30   ar
    29    26    17    1
    30    30    31    1
    31     8     2    1
    32    18    17   ar
    33    18    14   ar
    34    17    16   ar
    35    39    45    1
    36     2     1   ar
    37    14     4    1
    38    14    15   ar
    39    48    49    3
    40    21    20    1
    41     4     5   ar
    42    16    15   ar
    43    16    23    1
    44    47    45    1
    45    15    20    1
    46    23    24    3
    47    49    50    1
    48    24    25    1
    49    22    20    1
    50    45    46    1
    51     1     5   ar
    52     1     7    1
    53     5     6    1
