@<TRIPOS>MOLECULE
mol_data/opt/cam/geoms/mol2/13he13he-13he13he-.out
 50 53 0 0 0
SMALL
GASTEIGER

@<TRIPOS>ATOM
      1 C           1.3212   -0.3323   -0.1048 C.ar    1  LIG1        0.0243
      2 C           0.9655    0.9936   -0.1512 C.ar    1  LIG1        0.0584
      3 C          -0.4646    1.0476   -0.1323 C.ar    1  LIG1        0.0720
      4 C          -0.9221   -0.2693   -0.0699 C.ar    1  LIG1        0.0821
      5 N           0.1649   -1.0786   -0.0579 N.ar    1  LIG1       -0.3569
      6 H           0.0554   -2.0867   -0.0173 H       1  LIG1        0.1655
      7 H           2.2947   -0.7959   -0.0909 H       1  LIG1        0.0826
      8 N           1.8004    2.1152   -0.1559 N.pl3   1  LIG1       -0.3559
      9 H           2.6552    1.9809   -0.6781 H       1  LIG1        0.1424
     10 H           1.3181    2.9449   -0.4767 H       1  LIG1        0.1424
     11 C          -1.2407    2.2307   -0.1885 C.1     1  LIG1       -0.0656
     12 C          -1.8770    3.2554   -0.2483 C.1     1  LIG1       -0.1138
     13 H          -2.4395    4.1579   -0.3007 H       1  LIG1        0.1232
     14 C          -2.2525   -0.8291   -0.0267 C.ar    1  LIG1        0.0868
     15 C          -2.6336   -2.1552    0.0265 C.ar    1  LIG1        0.0679
     16 C          -4.0601   -2.1942    0.0643 C.ar    1  LIG1        0.0727
     17 C          -4.4997   -0.8730    0.0320 C.ar    1  LIG1        0.0826
     18 N          -3.3961   -0.0729   -0.0204 N.ar    1  LIG1       -0.3493
     19 H          -3.4656    0.9404   -0.0772 H       1  LIG1        0.1661
     20 N          -1.7225   -3.2548    0.0474 N.pl3   1  LIG1       -0.3553
     21 H          -1.8682   -3.8170    0.8821 H       1  LIG1        0.1424
     22 H          -1.8951   -3.8707   -0.7430 H       1  LIG1        0.1424
     23 C          -4.8579   -3.3639    0.1310 C.1     1  LIG1       -0.0656
     24 C          -5.5232   -4.3692    0.1880 C.1     1  LIG1       -0.1138
     25 H          -6.1132   -5.2533    0.2545 H       1  LIG1        0.1232
     26 C          -5.8270   -0.3078    0.0359 C.ar    1  LIG1        0.0868
     27 C          -6.2075    1.0192    0.0611 C.ar    1  LIG1        0.0679
     28 C          -7.6336    1.0592    0.0131 C.ar    1  LIG1        0.0727
     29 C          -8.0729   -0.2623   -0.0365 C.ar    1  LIG1        0.0826
     30 N          -6.9735   -1.0642   -0.0164 N.ar    1  LIG1       -0.3493
     31 H          -7.0408   -2.0786   -0.0051 H       1  LIG1        0.1661
     32 N          -5.2994    2.1118    0.1166 N.pl3   1  LIG1       -0.3553
     33 H          -5.6177    2.8726   -0.4753 H       1  LIG1        0.1424
     34 H          -5.2252    2.4802    1.0613 H       1  LIG1        0.1424
     35 C          -8.4366    2.2278    0.0147 C.1     1  LIG1       -0.0656
     36 C          -9.1120    3.2292    0.0182 C.1     1  LIG1       -0.1138
     37 H          -9.6913    4.1236    0.0183 H       1  LIG1        0.1232
     38 C          -9.4038   -0.8165   -0.0832 C.ar    1  LIG1        0.0863
     39 C          -9.8106   -2.1303   -0.1881 C.ar    1  LIG1        0.0672
     40 C         -11.2396   -2.1422   -0.1440 C.ar    1  LIG1        0.0632
     41 C         -11.6458   -0.8276   -0.0202 C.ar    1  LIG1        0.0195
     42 N         -10.5376   -0.0430    0.0063 N.ar    1  LIG1       -0.3569
     43 H         -10.5185    0.9635    0.0838 H       1  LIG1        0.1655
     44 H         -12.6395   -0.4137    0.0465 H       1  LIG1        0.0820
     45 N          -8.9264   -3.2360   -0.3112 N.pl3   1  LIG1       -0.3553
     46 H          -9.3169   -4.0491    0.1551 H       1  LIG1        0.1424
     47 H          -8.7976   -3.4911   -1.2872 H       1  LIG1        0.1424
     48 C         -12.0582   -3.3012   -0.2086 C.1     1  LIG1       -0.0663
     49 C         -12.7179   -4.3083   -0.2635 C.1     1  LIG1       -0.1138
     50 H         -13.3160   -5.1885   -0.3129 H       1  LIG1        0.1232
@<TRIPOS>BOND
     1    47    45    1
     2    22    20    1
     3     9     8    1
     4    10     8    1
     5    33    32    1
     6    50    49    1
     7    45    39    1
     8    45    46    1
     9    13    12    1
    10    49    48    3
    11    12    11    3
    12    48    40    1
    13    11     3    1
    14    39    40   ar
    15    39    38   ar
    16     8     2    1
    17     2     3   ar
    18     2     1   ar
    19    40    41   ar
    20     3     4   ar
    21     1     7    1
    22     1     5   ar
    23    38    29    1
    24    38    42   ar
    25    19    18    1
    26     4     5   ar
    27     4    14    1
    28     5     6    1
    29    29    30   ar
    30    29    28   ar
    31    14    18   ar
    32    14    15   ar
    33    18    17   ar
    34    41    42   ar
    35    41    44    1
    36    30    31    1
    37    30    26   ar
    38    42    43    1
    39    28    35    1
    40    28    27   ar
    41    35    36    3
    42    36    37    1
    43    15    20    1
    44    15    16   ar
    45    17    26    1
    46    17    16   ar
    47    26    27   ar
    48    20    21    1
    49    27    32    1
    50    16    23    1
    51    32    34    1
    52    23    24    3
    53    24    25    1
