@<TRIPOS>MOLECULE
mol_data/opt/cam/geoms/mol2/13he13he-.out
 26 27 0 0 0
SMALL
GASTEIGER

@<TRIPOS>ATOM
      1 C           1.1833   -0.3122   -0.0822 C.ar    1  LIG1        0.0243
      2 C           0.8201    1.0117   -0.0333 C.ar    1  LIG1        0.0584
      3 C          -0.6106    1.0545   -0.0090 C.ar    1  LIG1        0.0720
      4 C          -1.0583   -0.2667   -0.0407 C.ar    1  LIG1        0.0821
      5 N           0.0310   -1.0680   -0.0857 N.ar    1  LIG1       -0.3569
      6 H          -0.0723   -2.0768   -0.1229 H       1  LIG1        0.1655
      7 H           2.1596   -0.7695   -0.1016 H       1  LIG1        0.0826
      8 N           1.6483    2.1344    0.0446 N.pl3   1  LIG1       -0.3559
      9 H           2.5215    2.0300   -0.4531 H       1  LIG1        0.1424
     10 H           1.1760    2.9813   -0.2435 H       1  LIG1        0.1424
     11 C          -1.4079    2.2249    0.0283 C.1     1  LIG1       -0.0656
     12 C          -2.0786    3.2301    0.0504 C.1     1  LIG1       -0.1138
     13 H          -2.6535    4.1265    0.0842 H       1  LIG1        0.1232
     14 C          -2.3899   -0.8249   -0.0441 C.ar    1  LIG1        0.0863
     15 C          -2.7905   -2.1438   -0.0758 C.ar    1  LIG1        0.0672
     16 C          -4.2215   -2.1588   -0.0701 C.ar    1  LIG1        0.0632
     17 C          -4.6326   -0.8414   -0.0341 C.ar    1  LIG1        0.0195
     18 N          -3.5244   -0.0526   -0.0173 N.ar    1  LIG1       -0.3569
     19 H          -3.5066    0.9568    0.0090 H       1  LIG1        0.1655
     20 H          -5.6280   -0.4265   -0.0194 H       1  LIG1        0.0820
     21 N          -1.8898   -3.2513   -0.1064 N.pl3   1  LIG1       -0.3553
     22 H          -2.0130   -3.8278    0.7224 H       1  LIG1        0.1424
     23 H          -2.0986   -3.8511   -0.9004 H       1  LIG1        0.1424
     24 C          -5.0397   -3.3197   -0.0988 C.1     1  LIG1       -0.0663
     25 C          -5.7021   -4.3261   -0.1246 C.1     1  LIG1       -0.1138
     26 H          -6.3010   -5.2069   -0.1463 H       1  LIG1        0.1232
@<TRIPOS>BOND
     1    23    21    1
     2     9     8    1
     3    10     8    1
     4    26    25    1
     5    25    24    3
     6     6     5    1
     7    21    15    1
     8    21    22    1
     9     7     1    1
    10    24    16    1
    11     5     1   ar
    12     5     4   ar
    13     1     2   ar
    14    15    16   ar
    15    15    14   ar
    16    16    17   ar
    17    14     4    1
    18    14    18   ar
    19     4     3   ar
    20    17    20    1
    21    17    18   ar
    22     2     3   ar
    23     2     8    1
    24    18    19    1
    25     3    11    1
    26    11    12    3
    27    12    13    1
