@<TRIPOS>MOLECULE
mol_data/opt/cam/geoms/mol2/13he12ii-4fl-12df-.out
 51 54 0 0 0
SMALL
GASTEIGER

@<TRIPOS>ATOM
      1 C           1.1528   -0.3518   -0.0347 C.ar    1  LIG1        0.0243
      2 C           0.7802    0.8805   -0.5101 C.ar    1  LIG1        0.0584
      3 C          -0.6515    0.9206   -0.5128 C.ar    1  LIG1        0.0735
      4 C          -1.1000   -0.3026   -0.0157 C.ar    1  LIG1        0.0998
      5 N           0.0024   -1.0517    0.2564 N.ar    1  LIG1       -0.3556
      6 H          -0.0433   -1.9917    0.6117 H       1  LIG1        0.1655
      7 H           2.1300   -0.7777    0.1267 H       1  LIG1        0.0826
      8 N           1.5977    1.9453   -0.8912 N.pl3   1  LIG1       -0.3559
      9 H           2.4510    1.6618   -1.3521 H       1  LIG1        0.1424
     10 H           1.0980    2.6256   -1.4497 H       1  LIG1        0.1424
     11 C          -1.4046    1.9993   -1.0414 C.1     1  LIG1       -0.0656
     12 C          -1.9774    2.9453   -1.5236 C.1     1  LIG1       -0.1138
     13 H          -2.5043    3.7698   -1.9447 H       1  LIG1        0.1232
     14 C          -2.4201   -0.8502    0.2022 C.ar    1  LIG1        0.1561
     15 C          -3.6352   -0.3340    0.5481 C.ar    1  LIG1        0.0003
     16 C          -4.5388   -1.4491    0.6203 C.ar    1  LIG1       -0.0010
     17 C          -3.8061   -2.5621    0.3214 C.ar    1  LIG1        0.1425
     18 O          -2.5066   -2.2077    0.0766 O.2     1  LIG1       -0.4527
     19 C          -3.9726    1.0859    0.8665 C.3     1  LIG1       -0.0358
     20 H          -4.6146    1.1396    1.7506 H       1  LIG1        0.0279
     21 H          -4.5061    1.5711    0.0433 H       1  LIG1        0.0279
     22 H          -3.0751    1.6728    1.0599 H       1  LIG1        0.0279
     23 C          -5.9740   -1.3633    1.0282 C.3     1  LIG1       -0.0358
     24 H          -6.3424   -2.3175    1.4033 H       1  LIG1        0.0279
     25 H          -6.6121   -1.0773    0.1871 H       1  LIG1        0.0279
     26 H          -6.1027   -0.6135    1.8136 H       1  LIG1        0.0279
     27 C          -5.2639   -4.5293   -0.2602 C.ar    1  LIG1        0.1284
     28 C          -5.4684   -5.9003   -0.2789 C.ar    1  LIG1       -0.0052
     29 C          -4.0751   -3.9959    0.2642 C.ar    1  LIG1        0.0624
     30 C          -4.4937   -6.8006    0.1655 C.ar    1  LIG1        0.0637
     31 H          -6.4106   -6.2769   -0.6613 H       1  LIG1        0.0662
     32 C          -3.1022   -4.9003    0.6934 C.ar    1  LIG1       -0.0051
     33 C          -3.2848   -6.2729    0.6489 C.ar    1  LIG1        0.1317
     34 H          -2.1647   -4.5287    1.0885 H       1  LIG1        0.0662
     35 O          -6.1969   -3.6695   -0.7497 O.3     1  LIG1       -0.5060
     36 H          -6.9090   -4.1716   -1.1641 H       1  LIG1        0.2922
     37 O          -2.2728   -7.0706    1.1191 O.3     1  LIG1       -0.4944
     38 C          -1.4407   -7.6245    0.1125 C.3     1  LIG1        0.0788
     39 H          -0.6644   -8.1922    0.6266 H       1  LIG1        0.0660
     40 H          -1.9973   -8.2990   -0.5477 H       1  LIG1        0.0660
     41 H          -0.9758   -6.8371   -0.4924 H       1  LIG1        0.0660
     42 C          -4.7727   -8.2326    0.1080 C.ar    1  LIG1        0.1594
     43 C          -5.6505   -8.9743   -0.6559 C.ar    1  LIG1        0.1388
     44 C          -5.4874  -10.3394   -0.2481 C.ar    1  LIG1        0.1728
     45 C          -4.5350  -10.3393    0.7154 C.ar    1  LIG1        0.1352
     46 O          -4.1037   -9.0601    0.9297 O.2     1  LIG1       -0.4577
     47 H          -4.0787  -11.1083    1.3159 H       1  LIG1        0.1068
     48 N          -7.2699   -8.1371   -2.4752 N.1     1  LIG1       -0.1906
     49 C          -6.5382   -8.5183   -1.6628 C.1     1  LIG1        0.1067
     50 O          -6.1990  -11.3444   -0.7971 O.3     1  LIG1       -0.5028
     51 H          -5.9503  -12.1838   -0.3929 H       1  LIG1        0.2923
@<TRIPOS>BOND
     1    48    49    3
     2    13    12    1
     3    49    43    1
     4    12    11    3
     5    10     8    1
     6     9     8    1
     7    36    35    1
     8    11     3    1
     9     8     2    1
    10    50    51    1
    11    50    44    1
    12    35    27    1
    13    31    28    1
    14    43    44   ar
    15    43    42   ar
    16    40    38    1
    17     3     2   ar
    18     3     4   ar
    19     2     1   ar
    20    41    38    1
    21    28    27   ar
    22    28    30   ar
    23    27    29   ar
    24    44    45   ar
    25     1     7    1
    26     1     5   ar
    27     4    14    1
    28     4     5   ar
    29    21    19    1
    30    18    14   ar
    31    18    17   ar
    32    42    30    1
    33    42    46   ar
    34    38    39    1
    35    38    37    1
    36    30    33   ar
    37    25    23    1
    38    14    15   ar
    39     5     6    1
    40    29    17    1
    41    29    32   ar
    42    17    16   ar
    43    15    16   ar
    44    15    19    1
    45    16    23    1
    46    33    32   ar
    47    33    37    1
    48    32    34    1
    49    45    46   ar
    50    45    47    1
    51    19    22    1
    52    19    20    1
    53    23    24    1
    54    23    26    1
