@<TRIPOS>MOLECULE
mol_data/opt/cam/geoms/mol2/13hf6ff12de-4ia.out
 47 50 0 0 0
SMALL
GASTEIGER

@<TRIPOS>ATOM
      1 C           1.1851    0.0942   -0.7137 C.ar    1  LIG1        0.0267
      2 C           0.9300    0.8367    0.4051 C.ar    1  LIG1        0.0848
      3 C          -0.4472    0.6287    0.7242 C.ar    1  LIG1        0.1630
      4 C          -0.9956   -0.2278   -0.1954 C.ar    1  LIG1        0.0956
      5 N           0.0393   -0.6199   -1.0535 N.ar    1  LIG1       -0.3560
      6 H          -0.1694   -0.7968   -2.0279 H       1  LIG1        0.1655
      7 H           2.0975   -0.0235   -1.2772 H       1  LIG1        0.0827
      8 N           1.7945    1.5843    1.2009 N.pl3   1  LIG1       -0.3540
      9 H           2.5441    2.0351    0.6960 H       1  LIG1        0.1425
     10 H           1.3042    2.2399    1.7938 H       1  LIG1        0.1425
     11 O          -1.0075    1.2049    1.8205 O.3     1  LIG1       -0.5031
     12 H          -1.8495    0.7759    2.0187 H       1  LIG1        0.2923
     13 C          -2.5794   -2.1323   -0.6322 C.ar    1  LIG1        0.2226
     14 C          -2.3418   -0.7781   -0.2732 C.ar    1  LIG1        0.0667
     15 C          -3.4604   -0.0219    0.0438 C.ar    1  LIG1       -0.0036
     16 C          -4.7412   -0.5731    0.0073 C.ar    1  LIG1        0.1467
     17 C          -4.8531   -1.9135   -0.3756 C.ar    1  LIG1        0.1523
     18 N          -3.7778   -2.6571   -0.6863 N.ar    1  LIG1       -0.2056
     19 H          -3.3674    1.0271    0.3054 H       1  LIG1        0.0663
     20 O          -1.5645   -2.9628   -0.9503 O.3     1  LIG1       -0.4919
     21 H          -0.7210   -2.5191   -0.7625 H       1  LIG1        0.2937
     22 O          -5.7746    0.2037    0.4385 O.3     1  LIG1       -0.5045
     23 H          -6.4592    0.3155   -0.2383 H       1  LIG1        0.2922
     24 C          -6.1268   -2.6352   -0.4299 C.ar    1  LIG1        0.1760
     25 C          -7.4118   -2.3014   -0.7681 C.ar    1  LIG1        0.1150
     26 C          -8.2078   -3.4987   -0.6502 C.ar    1  LIG1        0.0884
     27 C          -7.3419   -4.4763   -0.2363 C.ar    1  LIG1        0.1526
     28 O          -6.0930   -3.9450   -0.1156 O.2     1  LIG1       -0.4506
     29 N          -8.1222    0.0300   -1.5928 N.1     1  LIG1       -0.1907
     30 C          -7.8399   -1.0345   -1.2309 C.1     1  LIG1        0.1043
     31 C          -9.5749   -3.6093   -1.0114 C.1     1  LIG1       -0.0645
     32 C         -10.7301   -3.6634   -1.3441 C.1     1  LIG1       -0.1138
     33 H         -11.7508   -3.7113   -1.6475 H       1  LIG1        0.1232
     34 C          -8.4587   -6.4912    0.7947 C.ar    1  LIG1       -0.0398
     35 C          -8.4559   -7.8782    0.9506 C.ar    1  LIG1       -0.0582
     36 C          -7.4420   -5.9177    0.0111 C.ar    1  LIG1        0.0214
     37 C          -7.4821   -8.6790    0.3725 C.ar    1  LIG1       -0.0615
     38 H          -9.2325   -8.3336    1.5579 H       1  LIG1        0.0620
     39 C          -6.4448   -6.7268   -0.5484 C.ar    1  LIG1       -0.0508
     40 C          -6.4629   -8.0998   -0.3745 C.ar    1  LIG1       -0.0611
     41 H          -5.6540   -6.2592   -1.1248 H       1  LIG1        0.0625
     42 H          -7.5108   -9.7541    0.5179 H       1  LIG1        0.0618
     43 C          -9.5106   -5.6749    1.4966 C.3     1  LIG1       -0.0390
     44 H          -9.9286   -6.2367    2.3344 H       1  LIG1        0.0278
     45 H         -10.3306   -5.4097    0.8249 H       1  LIG1        0.0278
     46 H          -9.1029   -4.7385    1.8843 H       1  LIG1        0.0278
     47 H          -5.6870   -8.7135   -0.8193 H       1  LIG1        0.0618
@<TRIPOS>BOND
     1     6     5    1
     2    33    32    1
     3    29    30    3
     4    32    31    3
     5     7     1    1
     6    30    25    1
     7    41    39    1
     8     5     1   ar
     9     5     4   ar
    10    31    26    1
    11    20    21    1
    12    20    13    1
    13    47    40    1
    14    25    26   ar
    15    25    24   ar
    16     1     2   ar
    17    18    13   ar
    18    18    17   ar
    19    26    27   ar
    20    13    14   ar
    21    39    40   ar
    22    39    36   ar
    23    24    17    1
    24    24    28   ar
    25    17    16   ar
    26    40    37   ar
    27    14     4    1
    28    14    15   ar
    29    23    22    1
    30    27    28   ar
    31    27    36    1
    32     4     3   ar
    33    16    15   ar
    34    16    22    1
    35    36    34   ar
    36    15    19    1
    37    37    42    1
    38    37    35   ar
    39     2     3   ar
    40     2     8    1
    41     9     8    1
    42     3    11    1
    43    34    35   ar
    44    34    43    1
    45    45    43    1
    46    35    38    1
    47     8    10    1
    48    43    46    1
    49    43    44    1
    50    11    12    1
