@<TRIPOS>MOLECULE
mol_data/opt/cam/geoms/mol2/13hf13hf-13hf-13hf-.out
 46 49 0 0 0
SMALL
GASTEIGER

@<TRIPOS>ATOM
      1 C           1.2973   -0.4895    0.2965 C.ar    1  LIG1        0.0267
      2 C           0.8744    0.7840    0.5986 C.ar    1  LIG1        0.0849
      3 C          -0.5349    0.7867    0.4281 C.ar    1  LIG1        0.1643
      4 C          -0.9447   -0.4748    0.0441 C.ar    1  LIG1        0.1087
      5 N           0.1920   -1.2346   -0.0474 N.ar    1  LIG1       -0.3549
      6 H           0.1966   -2.2111   -0.2820 H       1  LIG1        0.1655
      7 H           2.2867   -0.9175    0.3094 H       1  LIG1        0.0827
      8 N           1.6482    1.8706    1.0400 N.pl3   1  LIG1       -0.3540
      9 H           2.3725    2.1489    0.3912 H       1  LIG1        0.1425
     10 H           1.0680    2.6652    1.2757 H       1  LIG1        0.1425
     11 O          -1.3787    1.8588    0.6655 O.3     1  LIG1       -0.5031
     12 H          -1.2812    2.4904   -0.0591 H       1  LIG1        0.2923
     13 C          -2.2735   -0.9731   -0.2096 C.ar    1  LIG1        0.0916
     14 C          -2.7451   -2.2132   -0.6146 C.ar    1  LIG1        0.0945
     15 C          -4.1565   -2.1256   -0.6617 C.ar    1  LIG1        0.1650
     16 C          -4.5407   -0.8577   -0.2854 C.ar    1  LIG1        0.1092
     17 N          -3.3652   -0.1667   -0.0305 N.ar    1  LIG1       -0.3473
     18 H          -3.2887    0.7307    0.4261 H       1  LIG1        0.1662
     19 N          -2.0824   -3.4167   -0.9823 N.pl3   1  LIG1       -0.3534
     20 H          -1.4620   -3.3275   -1.7784 H       1  LIG1        0.1425
     21 H          -1.6095   -3.8859   -0.2183 H       1  LIG1        0.1425
     22 O          -4.9607   -3.1465   -1.0593 O.3     1  LIG1       -0.5030
     23 H          -4.3528   -3.8691   -1.2884 H       1  LIG1        0.2923
     24 C          -5.8534   -0.2665   -0.1809 C.ar    1  LIG1        0.0916
     25 C          -7.0647   -0.8508    0.1469 C.ar    1  LIG1        0.0945
     26 C          -8.0504    0.1604    0.0842 C.ar    1  LIG1        0.1650
     27 C          -7.4529    1.3515   -0.2613 C.ar    1  LIG1        0.1092
     28 N          -6.1047    1.0627   -0.4260 N.ar    1  LIG1       -0.3473
     29 H          -5.4104    1.7486   -0.6678 H       1  LIG1        0.1662
     30 N          -7.4082   -2.1888    0.4797 N.pl3   1  LIG1       -0.3534
     31 H          -6.9361   -2.8450   -0.1369 H       1  LIG1        0.1425
     32 H          -7.1238   -2.4167    1.4283 H       1  LIG1        0.1425
     33 O          -9.3703   -0.0644    0.3207 O.3     1  LIG1       -0.5030
     34 H          -9.4363   -1.0282    0.4346 H       1  LIG1        0.2923
     35 C          -8.0105    2.6685   -0.4588 C.ar    1  LIG1        0.0912
     36 C          -9.0925    3.2689    0.1482 C.ar    1  LIG1        0.0938
     37 C          -9.2458    4.5569   -0.4361 C.ar    1  LIG1        0.1554
     38 C          -8.2627    4.7301   -1.3692 C.ar    1  LIG1        0.0461
     39 N          -7.4845    3.5765   -1.3538 N.ar    1  LIG1       -0.3549
     40 H          -6.9367    3.2880   -2.1481 H       1  LIG1        0.1655
     41 H          -8.0347    5.5625   -2.0140 H       1  LIG1        0.0845
     42 N          -9.9650    2.8201    1.1761 N.pl3   1  LIG1       -0.3535
     43 H         -10.2383    1.8537    1.0162 H       1  LIG1        0.1425
     44 H          -9.5131    2.8543    2.0857 H       1  LIG1        0.1425
     45 O         -10.2137    5.4261   -0.0578 O.3     1  LIG1       -0.5035
     46 H         -10.7577    4.9194    0.5688 H       1  LIG1        0.2923
@<TRIPOS>BOND
     1    40    39    1
     2    41    38    1
     3    20    19    1
     4    38    39   ar
     5    38    37   ar
     6    39    35   ar
     7    23    22    1
     8    22    15    1
     9    19    14    1
    10    19    21    1
    11    29    28    1
    12    15    14   ar
    13    15    16   ar
    14    14    13   ar
    15    35    27    1
    16    35    36   ar
    17    37    45    1
    18    37    36   ar
    19    28    27   ar
    20    28    24   ar
    21    16    24    1
    22    16    17   ar
    23     6     5    1
    24    27    26   ar
    25    13    17   ar
    26    13     4    1
    27    24    25   ar
    28    31    30    1
    29    12    11    1
    30    45    46    1
    31     5     4   ar
    32     5     1   ar
    33    17    18    1
    34     4     3   ar
    35    26    25   ar
    36    26    33    1
    37    25    30    1
    38    36    42    1
    39     1     7    1
    40     1     2   ar
    41    33    34    1
    42     9     8    1
    43     3     2   ar
    44     3    11    1
    45    30    32    1
    46     2     8    1
    47    43    42    1
    48     8    10    1
    49    42    44    1
