@<TRIPOS>MOLECULE
mol_data/opt/cam/geoms/mol2/13hf13hf13hf.out
 35 37 0 0 0
SMALL
GASTEIGER

@<TRIPOS>ATOM
      1 C           1.3297   -0.2072   -0.5717 C.ar    1  LIG1        0.0267
      2 C           0.9455    1.0095   -0.0795 C.ar    1  LIG1        0.0849
      3 C          -0.4666    0.9464    0.1351 C.ar    1  LIG1        0.1643
      4 C          -0.8991   -0.3092   -0.2252 C.ar    1  LIG1        0.1087
      5 N           0.2196   -1.0452   -0.6165 N.ar    1  LIG1       -0.3549
      6 H           0.1365   -1.7184   -1.3647 H       1  LIG1        0.1655
      7 H           2.3055   -0.5628   -0.8649 H       1  LIG1        0.0827
      8 N           1.7158    2.1245    0.2705 N.pl3   1  LIG1       -0.3540
      9 H           2.4596    2.3257   -0.3840 H       1  LIG1        0.1425
     10 H           1.1260    2.9377    0.3970 H       1  LIG1        0.1425
     11 O          -1.1610    1.9837    0.6442 O.3     1  LIG1       -0.5031
     12 H          -2.1240    1.8331    0.4500 H       1  LIG1        0.2923
     13 C          -2.2203   -0.8797   -0.1494 C.ar    1  LIG1        0.0916
     14 C          -3.4569   -0.2604   -0.1042 C.ar    1  LIG1        0.0945
     15 C          -4.4491   -1.2695   -0.0353 C.ar    1  LIG1        0.1650
     16 C          -3.8091   -2.4972   -0.0365 C.ar    1  LIG1        0.1092
     17 N          -2.4455   -2.2297   -0.1249 N.ar    1  LIG1       -0.3473
     18 H          -1.7120   -2.9169   -0.1197 H       1  LIG1        0.1662
     19 N          -3.6738    1.1528   -0.1158 N.pl3   1  LIG1       -0.3534
     20 H          -3.9111    1.4791   -1.0502 H       1  LIG1        0.1425
     21 H          -4.4705    1.3753    0.4751 H       1  LIG1        0.1425
     22 O          -5.7665   -0.9979    0.0378 O.3     1  LIG1       -0.5030
     23 H          -6.2667   -1.8272   -0.1814 H       1  LIG1        0.2923
     24 C          -4.3566   -3.8253    0.0848 C.ar    1  LIG1        0.0912
     25 C          -5.6383   -4.2769   -0.1619 C.ar    1  LIG1        0.0938
     26 C          -5.6721   -5.6618    0.1551 C.ar    1  LIG1        0.1554
     27 C          -4.4279   -6.0354    0.5823 C.ar    1  LIG1        0.0461
     28 N          -3.6201   -4.9087    0.5006 N.ar    1  LIG1       -0.3549
     29 H          -2.7552   -4.8191    1.0071 H       1  LIG1        0.1655
     30 H          -4.0398   -6.9894    0.9022 H       1  LIG1        0.0845
     31 N          -6.7168   -3.4824   -0.6589 N.pl3   1  LIG1       -0.3535
     32 H          -6.8078   -3.5690   -1.6688 H       1  LIG1        0.1425
     33 H          -7.5934   -3.8050   -0.2585 H       1  LIG1        0.1425
     34 O          -6.8107   -6.3963   -0.0029 O.3     1  LIG1       -0.5035
     35 H          -6.6668   -7.2849    0.3404 H       1  LIG1        0.2923
@<TRIPOS>BOND
     1    32    31    1
     2     6     5    1
     3    20    19    1
     4     7     1    1
     5    31    33    1
     6    31    25    1
     7     5     1   ar
     8     5     4   ar
     9     1     2   ar
    10     9     8    1
    11     4    13    1
    12     4     3   ar
    13    23    22    1
    14    25    24   ar
    15    25    26   ar
    16    13    17   ar
    17    13    14   ar
    18    17    18    1
    19    17    16   ar
    20    19    14    1
    21    19    21    1
    22    14    15   ar
    23     2     3   ar
    24     2     8    1
    25    16    15   ar
    26    16    24    1
    27    15    22    1
    28    34    26    1
    29    34    35    1
    30    24    28   ar
    31     3    11    1
    32    26    27   ar
    33     8    10    1
    34    12    11    1
    35    28    27   ar
    36    28    29    1
    37    27    30    1
