@<TRIPOS>MOLECULE
mol_data/opt/cam/geoms/mol2/13hf6fh6ef12fa-.out
 45 48 0 0 0
SMALL
GASTEIGER

@<TRIPOS>ATOM
      1 C           1.3818   -0.1856    0.1633 C.ar    1  LIG1        0.0267
      2 C           0.9213    1.1023    0.2211 C.ar    1  LIG1        0.0848
      3 C          -0.5013    1.0259    0.1591 C.ar    1  LIG1        0.1630
      4 C          -0.8776   -0.2907    0.0691 C.ar    1  LIG1        0.0956
      5 N           0.2929   -1.0461    0.1375 N.ar    1  LIG1       -0.3560
      6 H           0.3458   -1.9464   -0.3180 H       1  LIG1        0.1655
      7 H           2.3910   -0.5660    0.1876 H       1  LIG1        0.0827
      8 N           1.6234    2.2943    0.4098 N.pl3   1  LIG1       -0.3540
      9 H           2.5215    2.3220   -0.0522 H       1  LIG1        0.1425
     10 H           1.0678    3.1033    0.1667 H       1  LIG1        0.1425
     11 O          -1.2798    2.1449    0.2227 O.3     1  LIG1       -0.5031
     12 H          -2.1700    1.8936    0.5003 H       1  LIG1        0.2923
     13 C          -2.5382   -2.0804    0.6688 C.ar    1  LIG1        0.2224
     14 C          -2.2104   -0.8804   -0.0011 C.ar    1  LIG1        0.0650
     15 C          -3.2363   -0.2612   -0.7071 C.ar    1  LIG1       -0.0246
     16 C          -4.5185   -0.8107   -0.7504 C.ar    1  LIG1        0.0519
     17 C          -4.7146   -2.0168   -0.0613 C.ar    1  LIG1        0.0982
     18 N          -3.7350   -2.6163    0.6223 N.ar    1  LIG1       -0.2105
     19 H          -3.0239    0.6479   -1.2637 H       1  LIG1        0.0645
     20 O          -1.6187   -2.7621    1.3979 O.3     1  LIG1       -0.4919
     21 H          -0.8397   -2.1987    1.5219 H       1  LIG1        0.2937
     22 N          -5.5481   -0.1563   -1.4321 N.pl3   1  LIG1       -0.3563
     23 H          -5.2307    0.4241   -2.1958 H       1  LIG1        0.1424
     24 H          -6.3078   -0.7586   -1.7172 H       1  LIG1        0.1424
     25 C          -6.2108   -4.0277   -0.4595 C.ar    1  LIG1        0.1234
     26 C          -6.0398   -2.6918   -0.0423 C.ar    1  LIG1        0.0396
     27 C          -7.1666   -2.0241    0.4137 C.ar    1  LIG1       -0.0060
     28 C          -8.4007   -2.6630    0.4828 C.ar    1  LIG1        0.1466
     29 C          -8.4666   -4.0061    0.0625 C.ar    1  LIG1        0.1522
     30 N          -7.3902   -4.6421   -0.4029 N.ar    1  LIG1       -0.2308
     31 H          -7.1065   -0.9944    0.7485 H       1  LIG1        0.0662
     32 C          -5.1252   -4.7906   -1.0130 C.1     1  LIG1       -0.0491
     33 C          -4.2386   -5.4356   -1.5068 C.1     1  LIG1       -0.1124
     34 H          -3.4473   -6.0135   -1.9246 H       1  LIG1        0.1232
     35 O          -9.4275   -1.9541    0.9894 O.3     1  LIG1       -0.5045
     36 H         -10.2896   -2.3514    0.7637 H       1  LIG1        0.2922
     37 C          -9.6895   -4.8139    0.1313 C.ar    1  LIG1        0.1976
     38 C         -11.0315   -4.5607    0.1993 C.ar    1  LIG1        0.1643
     39 C         -11.7174   -5.8078    0.2325 C.ar    1  LIG1        0.0185
     40 C         -10.7372   -6.7434    0.1793 C.ar    1  LIG1        0.0963
     41 O          -9.5246   -6.1681    0.1123 O.2     1  LIG1       -0.4575
     42 H         -10.7520   -7.8217    0.1779 H       1  LIG1        0.1031
     43 O         -11.5959   -3.3079    0.1709 O.3     1  LIG1       -0.5032
     44 H         -12.4465   -3.3257    0.6253 H       1  LIG1        0.2923
     45 H         -12.7835   -5.9751    0.2748 H       1  LIG1        0.0686
@<TRIPOS>BOND
     1    23    22    1
     2    34    33    1
     3    24    22    1
     4    33    32    3
     5    22    16    1
     6    19    15    1
     7    32    25    1
     8    16    15   ar
     9    16    17   ar
    10    15    14   ar
    11    25    30   ar
    12    25    26   ar
    13    30    29   ar
    14     6     5    1
    15    17    26    1
    16    17    18   ar
    17     9     8    1
    18    26    27   ar
    19    14     4    1
    20    14    13   ar
    21    29    37    1
    22    29    28   ar
    23     4     5   ar
    24     4     3   ar
    25    41    37   ar
    26    41    40   ar
    27    37    38   ar
    28     5     1   ar
    29     3     2   ar
    30     3    11    1
    31     1     7    1
    32     1     2   ar
    33    10     8    1
    34    43    38    1
    35    43    44    1
    36    42    40    1
    37    40    39   ar
    38    38    39   ar
    39     2     8    1
    40    11    12    1
    41    39    45    1
    42    27    28   ar
    43    27    31    1
    44    28    35    1
    45    18    13   ar
    46    13    20    1
    47    36    35    1
    48    20    21    1
