@<TRIPOS>MOLECULE
mol_data/opt/cam/geoms/mol2/13hf13hf13hf-13hf-.out
 46 49 0 0 0
SMALL
GASTEIGER

@<TRIPOS>ATOM
      1 C           1.3423   -0.1987    0.2699 C.ar    1  LIG1        0.0267
      2 C           0.8604    1.0392    0.5989 C.ar    1  LIG1        0.0849
      3 C          -0.5587    0.9879    0.4433 C.ar    1  LIG1        0.1643
      4 C          -0.8998   -0.2817    0.0310 C.ar    1  LIG1        0.1087
      5 N           0.2725   -1.0335   -0.0276 N.ar    1  LIG1       -0.3549
      6 H           0.3733   -1.7565   -0.7247 H       1  LIG1        0.1655
      7 H           2.3562   -0.5678    0.2525 H       1  LIG1        0.0827
      8 N           1.5297    2.1633    1.0933 N.pl3   1  LIG1       -0.3540
      9 H           2.4261    2.3298    0.6567 H       1  LIG1        0.1425
     10 H           0.9444    2.9867    1.0298 H       1  LIG1        0.1425
     11 O          -1.3474    2.0453    0.7181 O.3     1  LIG1       -0.5031
     12 H          -2.2334    1.8858    0.3021 H       1  LIG1        0.2923
     13 C          -2.1974   -0.8541   -0.2127 C.ar    1  LIG1        0.0916
     14 C          -3.4123   -0.2412   -0.4575 C.ar    1  LIG1        0.0945
     15 C          -4.3847   -1.2660   -0.5720 C.ar    1  LIG1        0.1650
     16 C          -3.7646   -2.4827   -0.3965 C.ar    1  LIG1        0.1092
     17 N          -2.4070   -2.2140   -0.2296 N.ar    1  LIG1       -0.3473
     18 H          -1.7844   -2.8456    0.2486 H       1  LIG1        0.1662
     19 N          -3.6154    1.1664   -0.5886 N.pl3   1  LIG1       -0.3534
     20 H          -3.6207    1.4517   -1.5653 H       1  LIG1        0.1425
     21 H          -4.5194    1.4249   -0.2036 H       1  LIG1        0.1425
     22 O          -5.6946   -1.0227   -0.8519 O.3     1  LIG1       -0.5030
     23 H          -6.1158   -1.8698   -1.0565 H       1  LIG1        0.2923
     24 C          -4.3366   -3.8042   -0.4470 C.ar    1  LIG1        0.0916
     25 C          -3.8592   -5.0102   -0.9070 C.ar    1  LIG1        0.0945
     26 C          -4.9044   -5.9670   -0.7622 C.ar    1  LIG1        0.1650
     27 C          -6.0006   -5.3559   -0.2146 C.ar    1  LIG1        0.1092
     28 N          -5.6613   -4.0032   -0.0646 N.ar    1  LIG1       -0.3473
     29 H          -6.0374   -3.4757    0.7116 H       1  LIG1        0.1662
     30 N          -2.6484   -5.3667   -1.5598 N.pl3   1  LIG1       -0.3534
     31 H          -2.3494   -4.6617   -2.2247 H       1  LIG1        0.1425
     32 H          -1.8863   -5.5382   -0.9121 H       1  LIG1        0.1425
     33 O          -4.7942   -7.2497   -1.1897 O.3     1  LIG1       -0.5030
     34 H          -3.9560   -7.2822   -1.6813 H       1  LIG1        0.2923
     35 C          -7.2988   -5.8714    0.1460 C.ar    1  LIG1        0.0912
     36 C          -7.6806   -7.1473    0.5135 C.ar    1  LIG1        0.0938
     37 C          -9.0839   -7.1207    0.7336 C.ar    1  LIG1        0.1554
     38 C          -9.5341   -5.8473    0.5156 C.ar    1  LIG1        0.0461
     39 N          -8.4255   -5.0825    0.1825 N.ar    1  LIG1       -0.3549
     40 H          -8.4872   -4.1920   -0.2817 H       1  LIG1        0.1655
     41 H         -10.5215   -5.4221    0.5834 H       1  LIG1        0.0845
     42 N          -6.9328   -8.3412    0.6961 N.pl3   1  LIG1       -0.3535
     43 H          -6.2536   -8.4634   -0.0497 H       1  LIG1        0.1425
     44 H          -6.4174   -8.3272    1.5717 H       1  LIG1        0.1425
     45 O          -9.7932   -8.2087    1.1176 O.3     1  LIG1       -0.5035
     46 H          -9.1506   -8.9375    1.0908 H       1  LIG1        0.2923
@<TRIPOS>BOND
     1    31    30    1
     2    34    33    1
     3    20    19    1
     4    30    32    1
     5    30    25    1
     6    33    26    1
     7    23    22    1
     8    25    26   ar
     9    25    24   ar
    10    22    15    1
    11    26    27   ar
    12     6     5    1
    13    19    14    1
    14    19    21    1
    15    15    14   ar
    16    15    16   ar
    17    14    13   ar
    18    24    16    1
    19    24    28   ar
    20    16    17   ar
    21    40    39    1
    22    17    13   ar
    23    17    18    1
    24    27    28   ar
    25    27    35    1
    26    13     4    1
    27    28    29    1
    28    43    42    1
    29     5     4   ar
    30     5     1   ar
    31     4     3   ar
    32    35    39   ar
    33    35    36   ar
    34    39    38   ar
    35     7     1    1
    36     1     2   ar
    37    12    11    1
    38     3     2   ar
    39     3    11    1
    40    36    42    1
    41    36    37   ar
    42    38    41    1
    43    38    37   ar
    44     2     8    1
    45     9     8    1
    46    42    44    1
    47    37    45    1
    48    10     8    1
    49    46    45    1
