@<TRIPOS>MOLECULE
mol_data/opt/cam/geoms/mol2/13hf13hf-13hf.out
 35 37 0 0 0
SMALL
GASTEIGER

@<TRIPOS>ATOM
      1 C           1.2490   -0.3138    0.1389 C.ar    1  LIG1        0.0267
      2 C           0.8125    0.9781   -0.0388 C.ar    1  LIG1        0.0849
      3 C          -0.6014    0.9159   -0.1336 C.ar    1  LIG1        0.1643
      4 C          -1.0036   -0.3993   -0.0022 C.ar    1  LIG1        0.1087
      5 N           0.1427   -1.1378    0.1392 N.ar    1  LIG1       -0.3549
      6 H           0.1543   -2.1287    0.3000 H       1  LIG1        0.1655
      7 H           2.2450   -0.7068    0.2655 H       1  LIG1        0.0827
      8 N           1.5600    2.1648   -0.0716 N.pl3   1  LIG1       -0.3540
      9 H           2.3638    2.1183   -0.6835 H       1  LIG1        0.1425
     10 H           0.9718    2.9476   -0.3289 H       1  LIG1        0.1425
     11 O          -1.4165    2.0199   -0.2978 O.3     1  LIG1       -0.5031
     12 H          -1.7795    2.0065   -1.1929 H       1  LIG1        0.2923
     13 C          -2.3291   -0.9680   -0.0195 C.ar    1  LIG1        0.0916
     14 C          -2.7690   -2.2884   -0.0794 C.ar    1  LIG1        0.0945
     15 C          -4.1799   -2.2508   -0.0956 C.ar    1  LIG1        0.1650
     16 C          -4.5872   -0.9372   -0.0448 C.ar    1  LIG1        0.1092
     17 N          -3.4406   -0.1743   -0.0042 N.ar    1  LIG1       -0.3473
     18 H          -3.4687    0.8357    0.0866 H       1  LIG1        0.1662
     19 N          -2.0718   -3.5277   -0.1427 N.pl3   1  LIG1       -0.3534
     20 H          -1.4316   -3.6009   -0.9250 H       1  LIG1        0.1425
     21 H          -1.5966   -3.7808    0.7166 H       1  LIG1        0.1425
     22 O          -4.9930   -3.3418   -0.1626 O.3     1  LIG1       -0.5030
     23 H          -4.3931   -4.1014   -0.2349 H       1  LIG1        0.2923
     24 C          -5.9036   -0.3579   -0.0373 C.ar    1  LIG1        0.0912
     25 C          -6.2887    0.9688    0.0190 C.ar    1  LIG1        0.0938
     26 C          -7.7085    0.9841   -0.0063 C.ar    1  LIG1        0.1554
     27 C          -8.1527   -0.3130   -0.0768 C.ar    1  LIG1        0.0461
     28 N          -7.0329   -1.1212   -0.0915 N.ar    1  LIG1       -0.3549
     29 H          -7.0158   -2.1277   -0.1393 H       1  LIG1        0.1655
     30 H          -9.1504   -0.7215   -0.1144 H       1  LIG1        0.0845
     31 N          -5.3832    2.0705    0.0907 N.pl3   1  LIG1       -0.3535
     32 H          -5.6070    2.7569   -0.6245 H       1  LIG1        0.1425
     33 H          -5.4756    2.5524    0.9812 H       1  LIG1        0.1425
     34 O          -8.4191    2.1509    0.0323 O.3     1  LIG1       -0.5035
     35 H          -9.3593    1.9462   -0.0109 H       1  LIG1        0.2923
@<TRIPOS>BOND
     1    12    11    1
     2    20    19    1
     3     9     8    1
     4    32    31    1
     5    10     8    1
     6    11     3    1
     7    23    22    1
     8    22    15    1
     9    19    14    1
    10    19    21    1
    11    29    28    1
    12     3     2   ar
    13     3     4   ar
    14    30    27    1
    15    15    14   ar
    16    15    16   ar
    17    28    27   ar
    18    28    24   ar
    19    14    13   ar
    20    27    26   ar
    21     8     2    1
    22    16    24    1
    23    16    17   ar
    24     2     1   ar
    25    24    25   ar
    26    13    17   ar
    27    13     4    1
    28    35    34    1
    29    26    25   ar
    30    26    34    1
    31    17    18    1
    32     4     5   ar
    33    25    31    1
    34    31    33    1
    35     1     5   ar
    36     1     7    1
    37     5     6    1
