@<TRIPOS>MOLECULE
mol_data/opt/cam/geoms/mol2/13hf13hf13hf-13hf.out
 46 49 0 0 0
SMALL
GASTEIGER

@<TRIPOS>ATOM
      1 C           1.2797   -0.1263    0.4973 C.ar    1  LIG1        0.0267
      2 C           0.7619    1.1319    0.6467 C.ar    1  LIG1        0.0849
      3 C          -0.6356    1.0435    0.3657 C.ar    1  LIG1        0.1643
      4 C          -0.9300   -0.2670    0.0601 C.ar    1  LIG1        0.1087
      5 N           0.2463   -1.0019    0.1900 N.ar    1  LIG1       -0.3549
      6 H           0.4130   -1.7990   -0.4058 H       1  LIG1        0.1655
      7 H           2.2919   -0.4806    0.6164 H       1  LIG1        0.0827
      8 N           1.3774    2.3126    1.0787 N.pl3   1  LIG1       -0.3540
      9 H           2.3032    2.4509    0.6967 H       1  LIG1        0.1425
     10 H           0.7902    3.1131    0.8800 H       1  LIG1        0.1425
     11 O          -1.4529    2.1130    0.4502 O.3     1  LIG1       -0.5031
     12 H          -2.2921    1.8975   -0.0324 H       1  LIG1        0.2923
     13 C          -2.1948   -0.8804   -0.2523 C.ar    1  LIG1        0.0916
     14 C          -3.3794   -0.3143   -0.6821 C.ar    1  LIG1        0.0945
     15 C          -4.3307   -1.3600   -0.7954 C.ar    1  LIG1        0.1650
     16 C          -3.7276   -2.5433   -0.4359 C.ar    1  LIG1        0.1092
     17 N          -2.3973   -2.2380   -0.1542 N.ar    1  LIG1       -0.3473
     18 H          -1.8278   -2.8129    0.4459 H       1  LIG1        0.1662
     19 N          -3.5753    1.0700   -0.9764 N.pl3   1  LIG1       -0.3534
     20 H          -3.4854    1.2528   -1.9734 H       1  LIG1        0.1425
     21 H          -4.5160    1.3494   -0.7131 H       1  LIG1        0.1425
     22 O          -5.6041   -1.1538   -1.2334 O.3     1  LIG1       -0.5030
     23 H          -6.0127   -2.0136   -1.4033 H       1  LIG1        0.2923
     24 C          -4.2773   -3.8775   -0.4046 C.ar    1  LIG1        0.0916
     25 C          -3.7313   -5.1126   -0.7298 C.ar    1  LIG1        0.0945
     26 C          -4.7649   -6.0704   -0.6059 C.ar    1  LIG1        0.1650
     27 C          -5.9157   -5.4310   -0.2140 C.ar    1  LIG1        0.1092
     28 N          -5.6047   -4.0872   -0.1145 N.ar    1  LIG1       -0.3473
     29 H          -6.2506   -3.4538    0.3474 H       1  LIG1        0.1662
     30 N          -2.4446   -5.4878   -1.2076 N.pl3   1  LIG1       -0.3534
     31 H          -2.1142   -4.8698   -1.9412 H       1  LIG1        0.1425
     32 H          -1.7429   -5.5099   -0.4751 H       1  LIG1        0.1425
     33 O          -4.6316   -7.3990   -0.8687 O.3     1  LIG1       -0.5030
     34 H          -3.7400   -7.4961   -1.2411 H       1  LIG1        0.2923
     35 C          -7.2289   -5.9307    0.0910 C.ar    1  LIG1        0.0912
     36 C          -8.3376   -5.2571    0.5697 C.ar    1  LIG1        0.0938
     37 C          -9.3732   -6.2189    0.7079 C.ar    1  LIG1        0.1554
     38 C          -8.8812   -7.4398    0.3177 C.ar    1  LIG1        0.0461
     39 N          -7.5665   -7.2433   -0.0576 N.ar    1  LIG1       -0.3549
     40 H          -6.9226   -7.9449   -0.3875 H       1  LIG1        0.1655
     41 H          -9.3459   -8.4124    0.2754 H       1  LIG1        0.0845
     42 N          -8.3669   -3.8591    0.8666 N.pl3   1  LIG1       -0.3535
     43 H          -9.0930   -3.3965    0.3257 H       1  LIG1        0.1425
     44 H          -8.6098   -3.7111    1.8427 H       1  LIG1        0.1425
     45 O         -10.6156   -5.8812    1.1638 O.3     1  LIG1       -0.5035
     46 H         -11.1641   -6.6723    1.1966 H       1  LIG1        0.2923
@<TRIPOS>BOND
     1    20    19    1
     2    31    30    1
     3    23    22    1
     4    34    33    1
     5    22    15    1
     6    30    25    1
     7    30    32    1
     8    19    21    1
     9    19    14    1
    10    33    26    1
    11    15    14   ar
    12    15    16   ar
    13    25    26   ar
    14    25    24   ar
    15    14    13   ar
    16    26    27   ar
    17    16    24    1
    18    16    17   ar
    19     6     5    1
    20    24    28   ar
    21    40    39    1
    22    13    17   ar
    23    13     4    1
    24    27    28   ar
    25    27    35    1
    26    17    18    1
    27    28    29    1
    28    39    35   ar
    29    39    38   ar
    30    12    11    1
    31     4     5   ar
    32     4     3   ar
    33    35    36   ar
    34     5     1   ar
    35    41    38    1
    36    38    37   ar
    37    43    42    1
    38     3    11    1
    39     3     2   ar
    40     1     7    1
    41     1     2   ar
    42    36    37   ar
    43    36    42    1
    44     2     8    1
    45     9     8    1
    46    37    45    1
    47    42    44    1
    48    10     8    1
    49    45    46    1
