@<TRIPOS>MOLECULE
mol_data/opt/cam/geoms/mol2/13hf13hf-.out
 24 25 0 0 0
SMALL
GASTEIGER

@<TRIPOS>ATOM
      1 C           1.1800   -0.3140   -0.0011 C.ar    1  LIG1        0.0267
      2 C           0.7484    0.9909   -0.0431 C.ar    1  LIG1        0.0849
      3 C          -0.6704    0.9424   -0.0559 C.ar    1  LIG1        0.1643
      4 C          -1.0765   -0.3762   -0.0072 C.ar    1  LIG1        0.1087
      5 N           0.0671   -1.1281    0.0065 N.ar    1  LIG1       -0.3549
      6 H           0.0765   -2.1300    0.0750 H       1  LIG1        0.1655
      7 H           2.1780   -0.7206    0.0325 H       1  LIG1        0.0827
      8 N           1.5178    2.1656   -0.0229 N.pl3   1  LIG1       -0.3540
      9 H           2.2209    2.2041   -0.7489 H       1  LIG1        0.1425
     10 H           0.9276    2.9863   -0.0668 H       1  LIG1        0.1425
     11 O          -1.5110    2.0449   -0.0720 O.3     1  LIG1       -0.5031
     12 H          -1.6366    2.3165   -0.9908 H       1  LIG1        0.2923
     13 C          -2.4091   -0.9308    0.0287 C.ar    1  LIG1        0.0911
     14 C          -2.8821   -2.2323   -0.0578 C.ar    1  LIG1        0.0938
     15 C          -4.2968   -2.1694    0.0310 C.ar    1  LIG1        0.1554
     16 C          -4.6632   -0.8561    0.1723 C.ar    1  LIG1        0.0461
     17 N          -3.4980   -0.1173    0.1615 N.ar    1  LIG1       -0.3549
     18 H          -3.4110    0.8788    0.2912 H       1  LIG1        0.1655
     19 H          -5.6329   -0.3984    0.2735 H       1  LIG1        0.0845
     20 N          -2.2159   -3.4792   -0.2201 N.pl3   1  LIG1       -0.3535
     21 H          -1.6526   -3.5459   -1.0597 H       1  LIG1        0.1425
     22 H          -1.6780   -3.7752    0.5865 H       1  LIG1        0.1425
     23 O          -5.1020   -3.2585   -0.0276 O.3     1  LIG1       -0.5035
     24 H          -4.4962   -4.0050   -0.1629 H       1  LIG1        0.2923
@<TRIPOS>BOND
     1    21    20    1
     2    12    11    1
     3     9     8    1
     4    20    14    1
     5    20    22    1
     6    24    23    1
     7    11     3    1
     8    10     8    1
     9    14    13   ar
    10    14    15   ar
    11     3     2   ar
    12     3     4   ar
    13     2     8    1
    14     2     1   ar
    15    23    15    1
    16     4     5   ar
    17     4    13    1
    18     1     5   ar
    19     1     7    1
    20     5     6    1
    21    13    17   ar
    22    15    16   ar
    23    17    16   ar
    24    17    18    1
    25    16    19    1
