@<TRIPOS>MOLECULE
mol_data/opt/cam/geoms/mol2/13hf4de-6af6ha-.out
 47 50 0 0 0
SMALL
GASTEIGER

@<TRIPOS>ATOM
      1 C           1.3432   -0.1436    0.3953 C.ar    1  LIG1        0.0267
      2 C           0.9735    1.1103   -0.0264 C.ar    1  LIG1        0.0848
      3 C          -0.4407    1.0990   -0.1590 C.ar    1  LIG1        0.1629
      4 C          -0.9047   -0.1666    0.1745 C.ar    1  LIG1        0.0917
      5 N           0.2121   -0.9215    0.4721 N.ar    1  LIG1       -0.3561
      6 H           0.1691   -1.7888    0.9814 H       1  LIG1        0.1655
      7 H           2.3141   -0.5390    0.6493 H       1  LIG1        0.0827
      8 N           1.7637    2.2373   -0.2700 N.pl3   1  LIG1       -0.3540
      9 H           2.6137    2.0361   -0.7790 H       1  LIG1        0.1425
     10 H           1.2248    2.9455   -0.7540 H       1  LIG1        0.1425
     11 O          -1.1171    2.1564   -0.6932 O.3     1  LIG1       -0.5031
     12 H          -1.7132    2.5409   -0.0314 H       1  LIG1        0.2923
     13 C          -3.4081   -0.0893    0.4657 C.ar    1  LIG1        0.0616
     14 C          -4.6517   -0.7188    0.3872 C.ar    1  LIG1       -0.0348
     15 C          -2.2236   -0.7763    0.1313 C.ar    1  LIG1        0.0205
     16 C          -4.7800   -2.0493    0.0115 C.ar    1  LIG1        0.0003
     17 H          -5.5378   -0.1585    0.6638 H       1  LIG1        0.0637
     18 C          -2.3628   -2.1145   -0.2501 C.ar    1  LIG1       -0.0353
     19 C          -3.5990   -2.7558   -0.3098 C.ar    1  LIG1        0.0331
     20 H          -1.4825   -2.6672   -0.5560 H       1  LIG1        0.0637
     21 N          -3.3048    2.3430    1.3450 N.1     1  LIG1       -0.1908
     22 C          -3.3585    1.2543    0.9525 C.1     1  LIG1        0.0998
     23 C          -3.6249   -4.1161   -0.7592 C.1     1  LIG1       -0.0690
     24 C          -3.5964   -5.2543   -1.1494 C.1     1  LIG1       -0.1139
     25 H          -3.5871   -6.2614   -1.4991 H       1  LIG1        0.1232
     26 C          -6.4135   -3.8858    0.5626 C.ar    1  LIG1        0.0362
     27 C          -6.1292   -2.6588   -0.0407 C.ar    1  LIG1        0.0049
     28 C          -7.1801   -2.0098   -0.6799 C.ar    1  LIG1       -0.0088
     29 C          -8.4468   -2.5762   -0.6787 C.ar    1  LIG1        0.1434
     30 C          -8.6550   -3.7898    0.0017 C.ar    1  LIG1        0.1155
     31 N          -7.6255   -4.4236    0.5784 N.ar    1  LIG1       -0.2506
     32 H          -7.0292   -1.0784   -1.2149 H       1  LIG1        0.0661
     33 H          -5.6303   -4.4477    1.0607 H       1  LIG1        0.0836
     34 O          -9.4199   -1.9208   -1.3588 O.3     1  LIG1       -0.5046
     35 H         -10.1833   -2.5057   -1.4621 H       1  LIG1        0.2922
     36 C         -10.1930   -5.8162   -0.0335 C.ar    1  LIG1        0.1255
     37 C          -9.9998   -4.4105    0.0889 C.ar    1  LIG1        0.0434
     38 C         -11.1363   -3.6416    0.3264 C.ar    1  LIG1       -0.0477
     39 C         -12.3966   -4.2269    0.3768 C.ar    1  LIG1       -0.0428
     40 C         -12.4686   -5.5973    0.1865 C.ar    1  LIG1        0.0297
     41 N         -11.4071   -6.3761   -0.0013 N.ar    1  LIG1       -0.2401
     42 H         -11.0312   -2.5734    0.4930 H       1  LIG1        0.0626
     43 H         -13.4303   -6.1060    0.1991 H       1  LIG1        0.0830
     44 N          -9.1425   -6.6644   -0.2251 N.pl3   1  LIG1       -0.3426
     45 H          -9.3821   -7.6397   -0.1339 H       1  LIG1        0.1437
     46 H          -8.2533   -6.3547    0.1441 H       1  LIG1        0.1437
     47 H         -13.2870   -3.6390    0.5625 H       1  LIG1        0.0633
@<TRIPOS>BOND
     1    25    24    1
     2    35    34    1
     3    34    29    1
     4    32    28    1
     5    24    23    3
     6     9     8    1
     7    23    19    1
     8    10     8    1
     9    11     3    1
    10    11    12    1
    11    28    29   ar
    12    28    27   ar
    13    29    30   ar
    14    20    18    1
    15    19    18   ar
    16    19    16   ar
    17     8     2    1
    18    18    15   ar
    19    44    45    1
    20    44    36    1
    21    44    46    1
    22     3     2   ar
    23     3     4   ar
    24    27    16    1
    25    27    26   ar
    26    36    41   ar
    27    36    37   ar
    28     2     1   ar
    29    41    40   ar
    30    30    37    1
    31    30    31   ar
    32    16    14   ar
    33    37    38   ar
    34    15     4    1
    35    15    13   ar
    36     4     5   ar
    37    40    43    1
    38    40    39   ar
    39    38    39   ar
    40    38    42    1
    41    39    47    1
    42    14    13   ar
    43    14    17    1
    44     1     5   ar
    45     1     7    1
    46    13    22    1
    47     5     6    1
    48    26    31   ar
    49    26    33    1
    50    22    21    3
