@<TRIPOS>MOLECULE
mol_data/opt/cam/geoms/mol2/13hf13hf.out
 24 25 0 0 0
SMALL
GASTEIGER

@<TRIPOS>ATOM
      1 C           1.2571   -0.3898   -0.2229 C.ar    1  LIG1        0.0267
      2 C           0.8591    0.9022   -0.0105 C.ar    1  LIG1        0.0849
      3 C          -0.5664    0.8895    0.0806 C.ar    1  LIG1        0.1643
      4 C          -0.9944   -0.4097   -0.0718 C.ar    1  LIG1        0.1087
      5 N           0.1364   -1.2104   -0.2117 N.ar    1  LIG1       -0.3549
      6 H           0.1042   -2.0370   -0.7897 H       1  LIG1        0.1655
      7 H           2.2464   -0.8017   -0.3497 H       1  LIG1        0.0827
      8 N           1.6232    2.0587    0.1881 N.pl3   1  LIG1       -0.3540
      9 H           2.4239    2.1253   -0.4257 H       1  LIG1        0.1425
     10 H           1.0441    2.8849    0.1031 H       1  LIG1        0.1425
     11 O          -1.2809    2.0102    0.3147 O.3     1  LIG1       -0.5031
     12 H          -2.2234    1.8301    0.0637 H       1  LIG1        0.2923
     13 C          -2.3295   -0.9532   -0.0178 C.ar    1  LIG1        0.0911
     14 C          -3.5524   -0.3321   -0.1797 C.ar    1  LIG1        0.0938
     15 C          -4.5571   -1.3190    0.0080 C.ar    1  LIG1        0.1554
     16 C          -3.9429   -2.5128    0.2754 C.ar    1  LIG1        0.0461
     17 N          -2.5770   -2.2798    0.2243 N.ar    1  LIG1       -0.3549
     18 H          -1.8826   -2.8982    0.6090 H       1  LIG1        0.1655
     19 H          -4.3458   -3.4943    0.4694 H       1  LIG1        0.0845
     20 N          -3.7458    1.0502   -0.4870 N.pl3   1  LIG1       -0.3535
     21 H          -3.9074    1.1901   -1.4819 H       1  LIG1        0.1425
     22 H          -4.5721    1.3963   -0.0073 H       1  LIG1        0.1425
     23 O          -5.8828   -1.0134   -0.1018 O.3     1  LIG1       -0.5035
     24 H          -6.4075   -1.7831    0.1438 H       1  LIG1        0.2923
@<TRIPOS>BOND
     1    21    20    1
     2     6     5    1
     3    20    14    1
     4    20    22    1
     5     9     8    1
     6     7     1    1
     7     1     5   ar
     8     1     2   ar
     9     5     4   ar
    10    14    13   ar
    11    14    15   ar
    12    23    15    1
    13    23    24    1
    14     4    13    1
    15     4     3   ar
    16    13    17   ar
    17     2     3   ar
    18     2     8    1
    19    15    16   ar
    20    12    11    1
    21     3    11    1
    22    10     8    1
    23    17    16   ar
    24    17    18    1
    25    16    19    1
