@<TRIPOS>MOLECULE
mol_data/opt/cam/geoms/mol2/13hf13hf-4hf13hf.out
 48 51 0 0 0
SMALL
GASTEIGER

@<TRIPOS>ATOM
      1 C           1.3758   -0.3465   -0.1230 C.ar    1  LIG1        0.0267
      2 C           0.9325    0.9432   -0.3005 C.ar    1  LIG1        0.0849
      3 C          -0.4851    0.8867   -0.2840 C.ar    1  LIG1        0.1643
      4 C          -0.8808   -0.4220   -0.0845 C.ar    1  LIG1        0.1087
      5 N           0.2698   -1.1622   -0.0101 N.ar    1  LIG1       -0.3549
      6 H           0.2895   -2.1508    0.1643 H       1  LIG1        0.1655
      7 H           2.3771   -0.7419   -0.0633 H       1  LIG1        0.0827
      8 N           1.6846    2.1217   -0.4195 N.pl3   1  LIG1       -0.3540
      9 H           2.4162    2.0676   -1.1156 H       1  LIG1        0.1425
     10 H           1.0823    2.9130   -0.6080 H       1  LIG1        0.1425
     11 O          -1.3168    1.9854   -0.4046 O.3     1  LIG1       -0.5031
     12 H          -1.6150    2.0498   -1.3213 H       1  LIG1        0.2923
     13 C          -2.2048   -0.9843    0.0235 C.ar    1  LIG1        0.0916
     14 C          -2.6494   -2.2997    0.1033 C.ar    1  LIG1        0.0945
     15 C          -4.0574   -2.2569    0.1799 C.ar    1  LIG1        0.1636
     16 C          -4.4718   -0.9362    0.1546 C.ar    1  LIG1        0.0927
     17 N          -3.3090   -0.1885    0.0575 N.ar    1  LIG1       -0.3485
     18 H          -3.3090    0.8239    0.0167 H       1  LIG1        0.1661
     19 N          -1.9637   -3.5469    0.1115 N.pl3   1  LIG1       -0.3534
     20 H          -1.4051   -3.7206   -0.7161 H       1  LIG1        0.1425
     21 H          -1.4129   -3.7162    0.9457 H       1  LIG1        0.1425
     22 O          -4.8287   -3.3730    0.2536 O.3     1  LIG1       -0.5031
     23 H          -4.1928   -4.1081    0.2279 H       1  LIG1        0.2923
     24 C          -6.0652    1.0129    0.3551 C.ar    1  LIG1        0.0347
     25 C          -7.3610    1.4973    0.2504 C.ar    1  LIG1       -0.0277
     26 C          -5.8087   -0.3566    0.1486 C.ar    1  LIG1        0.0260
     27 C          -8.4641    0.6841   -0.0368 C.ar    1  LIG1        0.0434
     28 H          -7.5456    2.5521    0.4276 H       1  LIG1        0.0644
     29 C          -6.9109   -1.1835   -0.0961 C.ar    1  LIG1       -0.0085
     30 C          -8.1985   -0.6871   -0.1815 C.ar    1  LIG1        0.1267
     31 H          -6.7402   -2.2461   -0.2395 H       1  LIG1        0.0661
     32 N          -4.9920    1.9067    0.6503 N.pl3   1  LIG1       -0.3574
     33 H          -5.3234    2.8632    0.6954 H       1  LIG1        0.1423
     34 H          -4.5629    1.6853    1.5450 H       1  LIG1        0.1423
     35 O          -9.2513   -1.5433   -0.4267 O.3     1  LIG1       -0.5061
     36 H          -8.9097   -2.4428   -0.4822 H       1  LIG1        0.2922
     37 C          -9.8020    1.2645   -0.1297 C.ar    1  LIG1        0.0747
     38 C         -10.2078    2.5939   -0.1888 C.ar    1  LIG1        0.0923
     39 C         -11.6211    2.5954   -0.2304 C.ar    1  LIG1        0.1553
     40 C         -12.0590    1.2937   -0.1990 C.ar    1  LIG1        0.0460
     41 N         -10.9455    0.5013   -0.1434 N.ar    1  LIG1       -0.3560
     42 H         -10.9169   -0.5048   -0.1656 H       1  LIG1        0.1655
     43 H         -13.0550    0.8797   -0.2258 H       1  LIG1        0.0845
     44 N          -9.4064    3.7628   -0.1855 N.pl3   1  LIG1       -0.3535
     45 H          -8.8913    3.8608   -1.0558 H       1  LIG1        0.1425
     46 H         -10.0092    4.5740   -0.0935 H       1  LIG1        0.1425
     47 O         -12.3308    3.7663   -0.2973 O.3     1  LIG1       -0.5035
     48 H         -13.2517    3.5898   -0.0790 H       1  LIG1        0.2923
@<TRIPOS>BOND
     1    12    11    1
     2     9     8    1
     3    45    44    1
     4    20    19    1
     5    10     8    1
     6    36    35    1
     7    35    30    1
     8     8     2    1
     9    11     3    1
    10     2     3   ar
    11     2     1   ar
    12    47    39    1
    13    47    48    1
    14     3     4   ar
    15    31    29    1
    16    39    40   ar
    17    39    38   ar
    18    43    40    1
    19    40    41   ar
    20    38    44    1
    21    38    37   ar
    22    44    46    1
    23    30    29   ar
    24    30    27   ar
    25    42    41    1
    26    41    37   ar
    27    37    27    1
    28     1     7    1
    29     1     5   ar
    30    29    26   ar
    31     4     5   ar
    32     4    13    1
    33    27    25   ar
    34     5     6    1
    35    18    17    1
    36    13    17   ar
    37    13    14   ar
    38    17    16   ar
    39    14    19    1
    40    14    15   ar
    41    19    21    1
    42    26    16    1
    43    26    24   ar
    44    16    15   ar
    45    15    22    1
    46    23    22    1
    47    25    24   ar
    48    25    28    1
    49    24    32    1
    50    32    33    1
    51    32    34    1
