@<TRIPOS>MOLECULE
mol_data/opt/cam/geoms/mol2/13hf13hf-13hf13hf-.out
 46 49 0 0 0
SMALL
GASTEIGER

@<TRIPOS>ATOM
      1 C           1.2949   -0.2606    0.0741 C.ar    1  LIG1        0.0267
      2 C           0.8495    1.0326   -0.0709 C.ar    1  LIG1        0.0849
      3 C          -0.5648    0.9625   -0.1572 C.ar    1  LIG1        0.1643
      4 C          -0.9576   -0.3579   -0.0517 C.ar    1  LIG1        0.1087
      5 N           0.1937   -1.0912    0.0663 N.ar    1  LIG1       -0.3549
      6 H           0.2135   -2.0854    0.2054 H       1  LIG1        0.1655
      7 H           2.2941   -0.6498    0.1852 H       1  LIG1        0.0827
      8 N           1.5921    2.2221   -0.0797 N.pl3   1  LIG1       -0.3540
      9 H           2.3864    2.2012   -0.7052 H       1  LIG1        0.1425
     10 H           0.9995    3.0143   -0.2929 H       1  LIG1        0.1425
     11 O          -1.3995    2.0583   -0.2913 O.3     1  LIG1       -0.5031
     12 H          -1.6532    2.1372   -1.2202 H       1  LIG1        0.2923
     13 C          -2.2806   -0.9315   -0.0633 C.ar    1  LIG1        0.0916
     14 C          -2.7186   -2.2518   -0.1331 C.ar    1  LIG1        0.0945
     15 C          -4.1289   -2.2161   -0.1267 C.ar    1  LIG1        0.1650
     16 C          -4.5393   -0.9034   -0.0519 C.ar    1  LIG1        0.1092
     17 N          -3.3928   -0.1394   -0.0201 N.ar    1  LIG1       -0.3473
     18 H          -3.4027    0.8684    0.0774 H       1  LIG1        0.1662
     19 N          -2.0214   -3.4891   -0.2192 N.pl3   1  LIG1       -0.3534
     20 H          -1.3965   -3.5572   -1.0142 H       1  LIG1        0.1425
     21 H          -1.5318   -3.7506    0.6293 H       1  LIG1        0.1425
     22 O          -4.9409   -3.3083   -0.1938 O.3     1  LIG1       -0.5030
     23 H          -4.3401   -4.0661   -0.2802 H       1  LIG1        0.2923
     24 C          -5.8616   -0.3461   -0.0097 C.ar    1  LIG1        0.0916
     25 C          -6.2860    0.9696    0.0876 C.ar    1  LIG1        0.0945
     26 C          -7.7038    0.9375    0.0937 C.ar    1  LIG1        0.1650
     27 C          -8.1212   -0.3727   -0.0004 C.ar    1  LIG1        0.1092
     28 N          -6.9723   -1.1373   -0.0626 N.ar    1  LIG1       -0.3473
     29 H          -6.9387   -2.1419   -0.1326 H       1  LIG1        0.1662
     30 N          -5.4182    2.0966    0.1698 N.pl3   1  LIG1       -0.3534
     31 H          -5.5871    2.7842   -0.5566 H       1  LIG1        0.1425
     32 H          -5.4382    2.5580    1.0736 H       1  LIG1        0.1425
     33 O          -8.5597    2.0071    0.1621 O.3     1  LIG1       -0.5030
     34 H          -8.0439    2.7910    0.3842 H       1  LIG1        0.2923
     35 C          -9.4508   -0.9273   -0.0308 C.ar    1  LIG1        0.0912
     36 C          -9.9055   -2.2359   -0.1179 C.ar    1  LIG1        0.0938
     37 C         -11.3234   -2.1878   -0.1005 C.ar    1  LIG1        0.1554
     38 C         -11.7118   -0.8774   -0.0051 C.ar    1  LIG1        0.0461
     39 N         -10.5539   -0.1245    0.0353 N.ar    1  LIG1       -0.3549
     40 H         -10.4945    0.8784    0.1094 H       1  LIG1        0.1655
     41 H         -12.6898   -0.4281    0.0347 H       1  LIG1        0.0845
     42 N          -9.2203   -3.4805   -0.2116 N.pl3   1  LIG1       -0.3535
     43 H          -8.6666   -3.5873   -1.0541 H       1  LIG1        0.1425
     44 H          -8.6527   -3.7043    0.5981 H       1  LIG1        0.1425
     45 O         -12.1089   -3.2917   -0.1706 O.3     1  LIG1       -0.5035
     46 H         -11.4810   -4.0305   -0.2288 H       1  LIG1        0.2923
@<TRIPOS>BOND
     1    12    11    1
     2    43    42    1
     3    20    19    1
     4     9     8    1
     5    31    30    1
     6    10     8    1
     7    11     3    1
     8    23    22    1
     9    46    45    1
    10    19    14    1
    11    19    21    1
    12    42    36    1
    13    42    44    1
    14    22    15    1
    15    45    37    1
    16     3     2   ar
    17     3     4   ar
    18    14    15   ar
    19    14    13   ar
    20    29    28    1
    21    15    16   ar
    22    36    37   ar
    23    36    35   ar
    24    37    38   ar
    25     8     2    1
    26     2     1   ar
    27    13     4    1
    28    13    17   ar
    29    28    24   ar
    30    28    27   ar
    31    16    17   ar
    32    16    24    1
    33     4     5   ar
    34    35    27    1
    35    35    39   ar
    36    17    18    1
    37    24    25   ar
    38    38    41    1
    39    38    39   ar
    40    27    26   ar
    41    39    40    1
    42     5     1   ar
    43     5     6    1
    44     1     7    1
    45    25    26   ar
    46    25    30    1
    47    26    33    1
    48    33    34    1
    49    30    32    1
