@<TRIPOS>MOLECULE
mol_data/opt/cam/geoms/mol2/13hf13hf13hf13hf-.out
 46 49 0 0 0
SMALL
GASTEIGER

@<TRIPOS>ATOM
      1 C           1.2987    0.1057   -0.5930 C.ar    1  LIG1        0.0267
      2 C           0.8954    1.2438    0.0487 C.ar    1  LIG1        0.0849
      3 C          -0.5080    1.1119    0.2900 C.ar    1  LIG1        0.1643
      4 C          -0.9151   -0.1060   -0.2043 C.ar    1  LIG1        0.1087
      5 N           0.2124   -0.7575   -0.7072 N.ar    1  LIG1       -0.3549
      6 H           0.1248   -1.3308   -1.5344 H       1  LIG1        0.1655
      7 H           2.2750   -0.1815   -0.9520 H       1  LIG1        0.0827
      8 N           1.6426    2.3331    0.5082 N.pl3   1  LIG1       -0.3540
      9 H           2.3695    2.6277   -0.1296 H       1  LIG1        0.1425
     10 H           1.0364    3.1098    0.7407 H       1  LIG1        0.1425
     11 O          -1.2155    2.0598    0.9353 O.3     1  LIG1       -0.5031
     12 H          -2.1796    1.9010    0.7541 H       1  LIG1        0.2923
     13 C          -2.2149   -0.7248   -0.1573 C.ar    1  LIG1        0.0916
     14 C          -3.4680   -0.1566   -0.0044 C.ar    1  LIG1        0.0945
     15 C          -4.4260   -1.1994   -0.0255 C.ar    1  LIG1        0.1650
     16 C          -3.7488   -2.3978   -0.1886 C.ar    1  LIG1        0.1092
     17 N          -2.3973   -2.0749   -0.2847 N.ar    1  LIG1       -0.3473
     18 H          -1.6424   -2.7329   -0.3696 H       1  LIG1        0.1662
     19 N          -3.7266    1.2401    0.1555 N.pl3   1  LIG1       -0.3534
     20 H          -4.0010    1.6658   -0.7273 H       1  LIG1        0.1425
     21 H          -4.5103    1.3672    0.7903 H       1  LIG1        0.1425
     22 O          -5.7466   -0.9821    0.1178 O.3     1  LIG1       -0.5030
     23 H          -6.2302   -1.8004   -0.1689 H       1  LIG1        0.2923
     24 C          -4.2462   -3.7476   -0.2028 C.ar    1  LIG1        0.0916
     25 C          -5.5253   -4.2155   -0.4380 C.ar    1  LIG1        0.0945
     26 C          -5.4966   -5.6251   -0.2839 C.ar    1  LIG1        0.1650
     27 C          -4.2172   -6.0057    0.0423 C.ar    1  LIG1        0.1092
     28 N          -3.4437   -4.8438    0.0367 N.ar    1  LIG1       -0.3473
     29 H          -2.6053   -4.7764    0.5916 H       1  LIG1        0.1662
     30 N          -6.6470   -3.4101   -0.8025 N.pl3   1  LIG1       -0.3534
     31 H          -6.7746   -3.3861   -1.8119 H       1  LIG1        0.1425
     32 H          -7.4979   -3.8023   -0.4096 H       1  LIG1        0.1425
     33 O          -6.5886   -6.4135   -0.4845 O.3     1  LIG1       -0.5030
     34 H          -6.2949   -7.3353   -0.5066 H       1  LIG1        0.2923
     35 C          -3.6950   -7.3319    0.2790 C.ar    1  LIG1        0.0912
     36 C          -2.5137   -7.9476   -0.0806 C.ar    1  LIG1        0.0938
     37 C          -2.5829   -9.2985    0.3679 C.ar    1  LIG1        0.1554
     38 C          -3.7833   -9.4891    0.9901 C.ar    1  LIG1        0.0461
     39 N          -4.4797   -8.2887    0.8954 N.ar    1  LIG1       -0.3549
     40 H          -5.2128   -8.0300    1.5374 H       1  LIG1        0.1655
     41 H          -4.2126  -10.3631    1.4508 H       1  LIG1        0.0845
     42 N          -1.4058   -7.4984   -0.8505 N.pl3   1  LIG1       -0.3535
     43 H          -1.6944   -6.9758   -1.6703 H       1  LIG1        0.1425
     44 H          -0.7621   -6.9230   -0.3179 H       1  LIG1        0.1425
     45 O          -1.6042  -10.2035    0.1398 O.3     1  LIG1       -0.5035
     46 H          -0.9745   -9.7475   -0.4431 H       1  LIG1        0.2923
@<TRIPOS>BOND
     1    31    30    1
     2    43    42    1
     3     6     5    1
     4     7     1    1
     5    42    44    1
     6    42    36    1
     7    30    25    1
     8    30    32    1
     9    20    19    1
    10     5     1   ar
    11     5     4   ar
    12     1     2   ar
    13    34    33    1
    14    33    26    1
    15    46    45    1
    16    25    26   ar
    17    25    24   ar
    18    18    17    1
    19    17    16   ar
    20    17    13   ar
    21    26    27   ar
    22     4    13    1
    23     4     3   ar
    24    24    16    1
    25    24    28   ar
    26    16    15   ar
    27    23    22    1
    28    13    14   ar
    29     9     8    1
    30    36    35   ar
    31    36    37   ar
    32    15    14   ar
    33    15    22    1
    34    14    19    1
    35    28    27   ar
    36    28    29    1
    37    27    35    1
    38     2     3   ar
    39     2     8    1
    40    45    37    1
    41    19    21    1
    42    35    39   ar
    43     3    11    1
    44    37    38   ar
    45     8    10    1
    46    12    11    1
    47    39    38   ar
    48    39    40    1
    49    38    41    1
