@<TRIPOS>MOLECULE
mol_data/opt/cam/geoms/mol2/13hf13hf13hf13hf.out
 46 49 0 0 0
SMALL
GASTEIGER

@<TRIPOS>ATOM
      1 C           1.3770   -0.0007   -0.0353 C.ar    1  LIG1        0.0267
      2 C           0.8890    1.2625    0.1681 C.ar    1  LIG1        0.0849
      3 C          -0.5348    1.1733    0.1144 C.ar    1  LIG1        0.1643
      4 C          -0.8735   -0.1432   -0.1146 C.ar    1  LIG1        0.1087
      5 N           0.3083   -0.8776   -0.1577 N.ar    1  LIG1       -0.3549
      6 H           0.3744   -1.6969   -0.7425 H       1  LIG1        0.1655
      7 H           2.3955   -0.3556   -0.0686 H       1  LIG1        0.0827
      8 N           1.5674    2.4497    0.4728 N.pl3   1  LIG1       -0.3540
      9 H           2.4111    2.5826   -0.0687 H       1  LIG1        0.1425
     10 H           0.9516    3.2461    0.3634 H       1  LIG1        0.1425
     11 O          -1.3292    2.2457    0.3079 O.3     1  LIG1       -0.5031
     12 H          -2.2375    2.0240   -0.0268 H       1  LIG1        0.2923
     13 C          -2.1712   -0.7551   -0.2188 C.ar    1  LIG1        0.0916
     14 C          -3.4024   -0.1880   -0.4652 C.ar    1  LIG1        0.0945
     15 C          -4.3820   -1.2165   -0.3904 C.ar    1  LIG1        0.1650
     16 C          -3.7303   -2.4001   -0.1064 C.ar    1  LIG1        0.1092
     17 N          -2.3591   -2.1137   -0.0556 N.ar    1  LIG1       -0.3473
     18 H          -1.7451   -2.6277    0.5592 H       1  LIG1        0.1662
     19 N          -3.6394    1.1889   -0.7615 N.pl3   1  LIG1       -0.3534
     20 H          -3.6598    1.3493   -1.7665 H       1  LIG1        0.1425
     21 H          -4.5575    1.4501   -0.4112 H       1  LIG1        0.1425
     22 O          -5.6886   -0.9918   -0.6096 O.3     1  LIG1       -0.5030
     23 H          -6.2014   -1.7787   -0.2778 H       1  LIG1        0.2923
     24 C          -4.2501   -3.7317    0.0297 C.ar    1  LIG1        0.0916
     25 C          -5.5428   -4.1605    0.2379 C.ar    1  LIG1        0.0945
     26 C          -5.5414   -5.5834    0.2224 C.ar    1  LIG1        0.1650
     27 C          -4.2448   -6.0029    0.0173 C.ar    1  LIG1        0.1092
     28 N          -3.4432   -4.8524   -0.0488 N.ar    1  LIG1       -0.3473
     29 H          -2.6302   -4.8269   -0.6474 H       1  LIG1        0.1662
     30 N          -6.6745   -3.3153    0.4539 N.pl3   1  LIG1       -0.3534
     31 H          -7.5020   -3.7629    0.0678 H       1  LIG1        0.1425
     32 H          -6.8542   -3.1925    1.4485 H       1  LIG1        0.1425
     33 O          -6.6544   -6.3111    0.4185 O.3     1  LIG1       -0.5030
     34 H          -6.4694   -7.2438    0.1249 H       1  LIG1        0.2923
     35 C          -3.6970   -7.3340   -0.0180 C.ar    1  LIG1        0.0912
     36 C          -4.3241   -8.5477   -0.2269 C.ar    1  LIG1        0.0938
     37 C          -3.3328   -9.5606   -0.1288 C.ar    1  LIG1        0.1554
     38 C          -2.1301   -8.9621    0.1320 C.ar    1  LIG1        0.0461
     39 N          -2.3624   -7.5940    0.1630 N.ar    1  LIG1       -0.3549
     40 H          -1.7298   -6.9265    0.5711 H       1  LIG1        0.1655
     41 H          -1.1428   -9.3741    0.2682 H       1  LIG1        0.0845
     42 N          -5.7164   -8.7237   -0.5008 N.pl3   1  LIG1       -0.3535
     43 H          -5.8859   -8.8434   -1.4972 H       1  LIG1        0.1425
     44 H          -6.0524   -9.5686   -0.0466 H       1  LIG1        0.1425
     45 O          -3.6452  -10.8772   -0.3022 O.3     1  LIG1       -0.5035
     46 H          -2.8665  -11.4157   -0.1244 H       1  LIG1        0.2923
@<TRIPOS>BOND
     1    20    19    1
     2    43    42    1
     3    19    14    1
     4    19    21    1
     5     6     5    1
     6    29    28    1
     7    22    15    1
     8    22    23    1
     9    42    36    1
    10    42    44    1
    11    14    15   ar
    12    14    13   ar
    13    15    16   ar
    14    45    37    1
    15    45    46    1
    16    36    37   ar
    17    36    35   ar
    18    13     4    1
    19    13    17   ar
    20     5     4   ar
    21     5     1   ar
    22    37    38   ar
    23     4     3   ar
    24    16    17   ar
    25    16    24    1
    26     9     8    1
    27     7     1    1
    28    17    18    1
    29    28    27   ar
    30    28    24   ar
    31     1     2   ar
    32    12    11    1
    33    35    27    1
    34    35    39   ar
    35    27    26   ar
    36    24    25   ar
    37    31    30    1
    38     3     2   ar
    39     3    11    1
    40    34    33    1
    41    38    39   ar
    42    38    41    1
    43    39    40    1
    44     2     8    1
    45    26    25   ar
    46    26    33    1
    47    25    30    1
    48    10     8    1
    49    30    32    1
