@<TRIPOS>MOLECULE
mol_data/opt/cam/geoms/mol2/13hf13hf-13hf-13hf.out
 46 49 0 0 0
SMALL
GASTEIGER

@<TRIPOS>ATOM
      1 C           1.2926   -0.4403    0.1048 C.ar    1  LIG1        0.0267
      2 C           0.8638    0.8426    0.3537 C.ar    1  LIG1        0.0849
      3 C          -0.5520    0.8157    0.2607 C.ar    1  LIG1        0.1643
      4 C          -0.9605   -0.4723   -0.0260 C.ar    1  LIG1        0.1087
      5 N           0.1811   -1.2202   -0.1368 N.ar    1  LIG1       -0.3549
      6 H           0.1894   -2.2099   -0.3061 H       1  LIG1        0.1655
      7 H           2.2876   -0.8551    0.0885 H       1  LIG1        0.0827
      8 N           1.6286    1.9691    0.6926 N.pl3   1  LIG1       -0.3540
      9 H           2.3857    2.1574    0.0492 H       1  LIG1        0.1425
     10 H           1.0438    2.7886    0.7938 H       1  LIG1        0.1425
     11 O          -1.3891    1.8996    0.4719 O.3     1  LIG1       -0.5031
     12 H          -1.5086    2.3613   -0.3686 H       1  LIG1        0.2923
     13 C          -2.2933   -0.9978   -0.1849 C.ar    1  LIG1        0.0916
     14 C          -2.7695   -2.2464   -0.5576 C.ar    1  LIG1        0.0945
     15 C          -4.1821   -2.1800   -0.5253 C.ar    1  LIG1        0.1650
     16 C          -4.5629   -0.9156   -0.1304 C.ar    1  LIG1        0.1092
     17 N          -3.3862   -0.2090    0.0557 N.ar    1  LIG1       -0.3473
     18 H          -3.3063    0.7005    0.4865 H       1  LIG1        0.1662
     19 N          -2.1098   -3.4386   -0.9673 N.pl3   1  LIG1       -0.3534
     20 H          -1.5105   -3.3240   -1.7763 H       1  LIG1        0.1425
     21 H          -1.6071   -3.9134   -0.2258 H       1  LIG1        0.1425
     22 O          -4.9904   -3.2150   -0.8807 O.3     1  LIG1       -0.5030
     23 H          -4.3829   -3.9204   -1.1588 H       1  LIG1        0.2923
     24 C          -5.8681   -0.3254    0.0419 C.ar    1  LIG1        0.0916
     25 C          -7.0800   -0.9209    0.3689 C.ar    1  LIG1        0.0945
     26 C          -8.0489    0.1042    0.3930 C.ar    1  LIG1        0.1650
     27 C          -7.4352    1.3009    0.1029 C.ar    1  LIG1        0.1092
     28 N          -6.1002    1.0178   -0.1025 N.ar    1  LIG1       -0.3473
     29 H          -5.4774    1.7364   -0.4518 H       1  LIG1        0.1662
     30 N          -7.4263   -2.2685    0.6613 N.pl3   1  LIG1       -0.3534
     31 H          -6.9677   -2.9050    0.0150 H       1  LIG1        0.1425
     32 H          -7.1199   -2.5297    1.5946 H       1  LIG1        0.1425
     33 O          -9.3700   -0.0802    0.6705 O.3     1  LIG1       -0.5030
     34 H          -9.4748   -1.0435    0.7421 H       1  LIG1        0.2923
     35 C          -7.9647    2.6300   -0.0319 C.ar    1  LIG1        0.0912
     36 C          -7.3303    3.8079   -0.3828 C.ar    1  LIG1        0.0938
     37 C          -8.3222    4.8241   -0.3811 C.ar    1  LIG1        0.1554
     38 C          -9.5225    4.2550   -0.0360 C.ar    1  LIG1        0.0461
     39 N          -9.2825    2.9112    0.1773 N.ar    1  LIG1       -0.3549
     40 H          -9.9602    2.2085    0.4286 H       1  LIG1        0.1655
     41 H         -10.5060    4.6832    0.0774 H       1  LIG1        0.0845
     42 N          -5.9378    3.9230   -0.6897 N.pl3   1  LIG1       -0.3535
     43 H          -5.8197    4.3498   -1.6050 H       1  LIG1        0.1425
     44 H          -5.4848    4.5505   -0.0296 H       1  LIG1        0.1425
     45 O          -8.0258    6.1229   -0.6892 O.3     1  LIG1       -0.5035
     46 H          -8.8342    6.6451   -0.6495 H       1  LIG1        0.2923
@<TRIPOS>BOND
     1    20    19    1
     2    43    42    1
     3    23    22    1
     4    19    14    1
     5    19    21    1
     6    22    15    1
     7    42    36    1
     8    42    44    1
     9    45    46    1
    10    45    37    1
    11    14    15   ar
    12    14    13   ar
    13    15    16   ar
    14    29    28    1
    15    36    37   ar
    16    36    35   ar
    17    37    38   ar
    18    12    11    1
    19     6     5    1
    20    13     4    1
    21    13    17   ar
    22     5     4   ar
    23     5     1   ar
    24    16    24    1
    25    16    17   ar
    26    28    24   ar
    27    28    27   ar
    28    38    41    1
    29    38    39   ar
    30    35    27    1
    31    35    39   ar
    32     4     3   ar
    33    31    30    1
    34    24    25   ar
    35     9     8    1
    36    17    18    1
    37     7     1    1
    38    27    26   ar
    39     1     2   ar
    40    39    40    1
    41     3     2   ar
    42     3    11    1
    43     2     8    1
    44    25    26   ar
    45    25    30    1
    46    26    33    1
    47    30    32    1
    48    33    34    1
    49     8    10    1
