@<TRIPOS>MOLECULE
mol_data/opt/cam/geoms/mol2/13hg13hg13hg-13hg.out
 46 49 0 0 0
SMALL
GASTEIGER

@<TRIPOS>ATOM
      1 C           0.7136    0.4649   -1.9877 C.ar    1  LIG1        0.0241
      2 C           0.8758    1.1413   -0.8039 C.ar    1  LIG1        0.0561
      3 C          -0.2090    0.7671    0.0469 C.ar    1  LIG1        0.0522
      4 C          -1.0041   -0.1232   -0.6510 C.ar    1  LIG1        0.0799
      5 N          -0.4204   -0.3177   -1.8798 N.ar    1  LIG1       -0.3570
      6 H          -0.9064   -0.7160   -2.6658 H       1  LIG1        0.1655
      7 H           1.3246    0.4534   -2.8768 H       1  LIG1        0.0826
      8 N           1.9329    1.9701   -0.4175 N.pl3   1  LIG1       -0.3560
      9 H           2.3629    2.4624   -1.1884 H       1  LIG1        0.1424
     10 H           1.6551    2.6194    0.3088 H       1  LIG1        0.1424
     11 S          -0.3653    1.2883    1.7289 S.3     1  LIG1       -0.1388
     12 H          -1.7038    1.5049    1.7071 H       1  LIG1        0.1072
     13 C          -2.2456   -0.7607   -0.2618 C.ar    1  LIG1        0.0865
     14 C          -3.3722   -0.2166    0.3236 C.ar    1  LIG1        0.0657
     15 C          -4.3042   -1.2698    0.5335 C.ar    1  LIG1        0.0529
     16 C          -3.7352   -2.4361    0.0484 C.ar    1  LIG1        0.0804
     17 N          -2.4965   -2.1074   -0.4450 N.ar    1  LIG1       -0.3494
     18 H          -1.8488   -2.7535   -0.8642 H       1  LIG1        0.1661
     19 N          -3.5462    1.1313    0.6816 N.pl3   1  LIG1       -0.3554
     20 H          -3.2498    1.7617   -0.0554 H       1  LIG1        0.1424
     21 H          -4.5114    1.3227    0.9286 H       1  LIG1        0.1424
     22 S          -5.8551   -1.0757    1.3588 S.3     1  LIG1       -0.1388
     23 H          -6.5857   -1.8426    0.5108 H       1  LIG1        0.1072
     24 C          -4.2830   -3.7764   -0.0065 C.ar    1  LIG1        0.0865
     25 C          -5.5196   -4.2028   -0.4497 C.ar    1  LIG1        0.0657
     26 C          -5.5912   -5.6090   -0.2541 C.ar    1  LIG1        0.0529
     27 C          -4.3830   -6.0176    0.2851 C.ar    1  LIG1        0.0804
     28 N          -3.5946   -4.9006    0.4107 N.ar    1  LIG1       -0.3494
     29 H          -2.6658   -4.8911    0.7986 H       1  LIG1        0.1661
     30 N          -6.5377   -3.3821   -0.9661 N.pl3   1  LIG1       -0.3554
     31 H          -6.1860   -2.7280   -1.6566 H       1  LIG1        0.1424
     32 H          -7.2838   -3.9373   -1.3718 H       1  LIG1        0.1424
     33 S          -7.0228   -6.5897   -0.5859 S.3     1  LIG1       -0.1388
     34 H          -6.3636   -7.6329   -1.1527 H       1  LIG1        0.1072
     35 C          -3.9305   -7.3479    0.6431 C.ar    1  LIG1        0.0860
     36 C          -3.9981   -8.5291   -0.0651 C.ar    1  LIG1        0.0650
     37 C          -3.4277   -9.5512    0.7515 C.ar    1  LIG1        0.0434
     38 C          -3.0350   -8.9623    1.9318 C.ar    1  LIG1        0.0173
     39 N          -3.3121   -7.6351    1.8506 N.ar    1  LIG1       -0.3570
     40 H          -3.2655   -6.9879    2.6209 H       1  LIG1        0.1655
     41 H          -2.5817   -9.4026    2.8063 H       1  LIG1        0.0819
     42 N          -4.5474   -8.6934   -1.3483 N.pl3   1  LIG1       -0.3554
     43 H          -4.1361   -8.0710   -2.0345 H       1  LIG1        0.1424
     44 H          -4.4652   -9.6557   -1.6585 H       1  LIG1        0.1424
     45 S          -3.3064  -11.2627    0.3335 S.3     1  LIG1       -0.1394
     46 H          -2.0980  -11.2447   -0.2634 H       1  LIG1        0.1072
@<TRIPOS>BOND
     1     7     1    1
     2     6     5    1
     3    43    42    1
     4     1     5   ar
     5     1     2   ar
     6     5     4   ar
     7    44    42    1
     8    31    30    1
     9    32    30    1
    10    42    36    1
    11     9     8    1
    12    34    33    1
    13    30    25    1
    14    18    17    1
    15     2     8    1
    16     2     3   ar
    17     4    13    1
    18     4     3   ar
    19    33    26    1
    20    25    26   ar
    21    25    24   ar
    22    17    13   ar
    23    17    16   ar
    24     8    10    1
    25    46    45    1
    26    13    14   ar
    27    26    27   ar
    28    36    35   ar
    29    36    37   ar
    30    20    19    1
    31    24    16    1
    32    24    28   ar
    33     3    11    1
    34    16    15   ar
    35    27    28   ar
    36    27    35    1
    37    14    15   ar
    38    14    19    1
    39    45    37    1
    40    28    29    1
    41    23    22    1
    42    15    22    1
    43    35    39   ar
    44    19    21    1
    45    37    38   ar
    46    12    11    1
    47    39    38   ar
    48    39    40    1
    49    38    41    1
