@<TRIPOS>MOLECULE
mol_data/opt/cam/geoms/mol2/13hg13hg-13hg-13hg.out
 46 49 0 0 0
SMALL
GASTEIGER

@<TRIPOS>ATOM
      1 C           0.7010    0.4511   -2.0124 C.ar    1  LIG1        0.0241
      2 C           0.8647    1.1409   -0.8366 C.ar    1  LIG1        0.0561
      3 C          -0.2172    0.7739    0.0211 C.ar    1  LIG1        0.0522
      4 C          -1.0122   -0.1258   -0.6648 C.ar    1  LIG1        0.0799
      5 N          -0.4311   -0.3327   -1.8929 N.ar    1  LIG1       -0.3570
      6 H          -0.9183   -0.7407   -2.6733 H       1  LIG1        0.1655
      7 H           1.3097    0.4309   -2.9028 H       1  LIG1        0.0826
      8 N           1.9210    1.9761   -0.4620 N.pl3   1  LIG1       -0.3560
      9 H           2.3481    2.4606   -1.2394 H       1  LIG1        0.1424
     10 H           1.6438    2.6328    0.2578 H       1  LIG1        0.1424
     11 S          -0.3703    1.3133    1.6977 S.3     1  LIG1       -0.1388
     12 H          -1.7094    1.5269    1.6768 H       1  LIG1        0.1072
     13 C          -2.2513   -0.7614   -0.2655 C.ar    1  LIG1        0.0865
     14 C          -3.3776   -0.2133    0.3167 C.ar    1  LIG1        0.0657
     15 C          -4.3068   -1.2659    0.5406 C.ar    1  LIG1        0.0529
     16 C          -3.7366   -2.4364    0.0670 C.ar    1  LIG1        0.0804
     17 N          -2.4999   -2.1107   -0.4332 N.ar    1  LIG1       -0.3494
     18 H          -1.8519   -2.7600   -0.8469 H       1  LIG1        0.1661
     19 N          -3.5535    1.1382    0.6602 N.pl3   1  LIG1       -0.3554
     20 H          -3.2603    1.7610   -0.0845 H       1  LIG1        0.1424
     21 H          -4.5185    1.3303    0.9075 H       1  LIG1        0.1424
     22 S          -5.8561   -1.0659    1.3676 S.3     1  LIG1       -0.1388
     23 H          -6.5873   -1.8437    0.5301 H       1  LIG1        0.1072
     24 C          -4.2818   -3.7783    0.0284 C.ar    1  LIG1        0.0865
     25 C          -5.5187   -4.2121   -0.4069 C.ar    1  LIG1        0.0657
     26 C          -5.5868   -5.6162   -0.1957 C.ar    1  LIG1        0.0529
     27 C          -4.3764   -6.0164    0.3449 C.ar    1  LIG1        0.0804
     28 N          -3.5900   -4.8964    0.4562 N.ar    1  LIG1       -0.3494
     29 H          -2.6603   -4.8807    0.8416 H       1  LIG1        0.1661
     30 N          -6.5397   -3.3993   -0.9299 N.pl3   1  LIG1       -0.3554
     31 H          -6.1912   -2.7522   -1.6285 H       1  LIG1        0.1424
     32 H          -7.2857   -3.9605   -1.3274 H       1  LIG1        0.1424
     33 S          -7.0172   -6.6035   -0.5130 S.3     1  LIG1       -0.1388
     34 H          -6.3573   -7.6515   -1.0698 H       1  LIG1        0.1072
     35 C          -3.9203   -7.3417    0.7165 C.ar    1  LIG1        0.0860
     36 C          -3.9872   -8.5308    0.0215 C.ar    1  LIG1        0.0650
     37 C          -3.4126   -9.5426    0.8479 C.ar    1  LIG1        0.0434
     38 C          -3.0181   -8.9399    2.0207 C.ar    1  LIG1        0.0173
     39 N          -3.2981   -7.6142    1.9255 N.ar    1  LIG1       -0.3570
     40 H          -3.2510   -6.9585    2.6885 H       1  LIG1        0.1655
     41 H          -2.5617   -9.3695    2.8988 H       1  LIG1        0.0819
     42 N          -4.5393   -8.7105   -1.2584 N.pl3   1  LIG1       -0.3554
     43 H          -4.1311   -8.0948   -1.9524 H       1  LIG1        0.1424
     44 H          -4.4560   -9.6759   -1.5581 H       1  LIG1        0.1424
     45 S          -3.2888  -11.2584    0.4487 S.3     1  LIG1       -0.1394
     46 H          -2.0820  -11.2445   -0.1516 H       1  LIG1        0.1072
@<TRIPOS>BOND
     1     7     1    1
     2     6     5    1
     3     1     5   ar
     4     1     2   ar
     5    43    42    1
     6     5     4   ar
     7    31    30    1
     8    44    42    1
     9    32    30    1
    10    42    36    1
    11     9     8    1
    12    34    33    1
    13    30    25    1
    14    18    17    1
    15     2     8    1
    16     2     3   ar
    17     4    13    1
    18     4     3   ar
    19    33    26    1
    20     8    10    1
    21    17    13   ar
    22    17    16   ar
    23    25    26   ar
    24    25    24   ar
    25    13    14   ar
    26    26    27   ar
    27    46    45    1
    28    20    19    1
    29     3    11    1
    30    36    35   ar
    31    36    37   ar
    32    24    16    1
    33    24    28   ar
    34    16    15   ar
    35    14    15   ar
    36    14    19    1
    37    27    28   ar
    38    27    35    1
    39    45    37    1
    40    28    29    1
    41    23    22    1
    42    15    22    1
    43    19    21    1
    44    35    39   ar
    45    37    38   ar
    46    12    11    1
    47    39    38   ar
    48    39    40    1
    49    38    41    1
