@<TRIPOS>MOLECULE
mol_data/opt/cam/geoms/mol2/13hg13hg13hg13hg.out
 46 49 0 0 0
SMALL
GASTEIGER

@<TRIPOS>ATOM
      1 C           0.7066    0.4667   -1.9884 C.ar    1  LIG1        0.0241
      2 C           0.8655    1.1482   -0.8070 C.ar    1  LIG1        0.0561
      3 C          -0.2195    0.7746    0.0439 C.ar    1  LIG1        0.0522
      4 C          -1.0114   -0.1205   -0.6516 C.ar    1  LIG1        0.0799
      5 N          -0.4255   -0.3184   -1.8788 N.ar    1  LIG1       -0.3570
      6 H          -0.9096   -0.7209   -2.6640 H       1  LIG1        0.1655
      7 H           1.3188    0.4532   -2.8766 H       1  LIG1        0.0826
      8 N           1.9200    1.9812   -0.4224 N.pl3   1  LIG1       -0.3560
      9 H           2.3498    2.4714   -1.1947 H       1  LIG1        0.1424
     10 H           1.6396    2.6326    0.3009 H       1  LIG1        0.1424
     11 S          -0.3793    1.3019    1.7236 S.3     1  LIG1       -0.1388
     12 H          -1.7184    1.5150    1.6991 H       1  LIG1        0.1072
     13 C          -2.2518   -0.7596   -0.2616 C.ar    1  LIG1        0.0865
     14 C          -3.3806   -0.2161    0.3202 C.ar    1  LIG1        0.0657
     15 C          -4.3101   -1.2708    0.5330 C.ar    1  LIG1        0.0529
     16 C          -3.7376   -2.4376    0.0532 C.ar    1  LIG1        0.0804
     17 N          -2.4991   -2.1077   -0.4399 N.ar    1  LIG1       -0.3494
     18 H          -1.8492   -2.7537   -0.8558 H       1  LIG1        0.1661
     19 N          -3.5585    1.1328    0.6727 N.pl3   1  LIG1       -0.3554
     20 H          -3.2628    1.7611   -0.0664 H       1  LIG1        0.1424
     21 H          -4.5245    1.3226    0.9178 H       1  LIG1        0.1424
     22 S          -5.8627   -1.0774    1.3555 S.3     1  LIG1       -0.1388
     23 H          -6.5902   -1.8495    0.5096 H       1  LIG1        0.1072
     24 C          -4.2819   -3.7794    0.0027 C.ar    1  LIG1        0.0865
     25 C          -5.5169   -4.2106   -0.4404 C.ar    1  LIG1        0.0657
     26 C          -5.5851   -5.6162   -0.2395 C.ar    1  LIG1        0.0529
     27 C          -4.3767   -6.0198    0.3028 C.ar    1  LIG1        0.0804
     28 N          -3.5912   -4.9003    0.4252 N.ar    1  LIG1       -0.3494
     29 H          -2.6630   -4.8869    0.8142 H       1  LIG1        0.1661
     30 N          -6.5364   -3.3945   -0.9614 N.pl3   1  LIG1       -0.3554
     31 H          -6.1855   -2.7422   -1.6539 H       1  LIG1        0.1424
     32 H          -7.2805   -3.9532   -1.3658 H       1  LIG1        0.1424
     33 S          -7.0139   -6.6019   -0.5694 S.3     1  LIG1       -0.1388
     34 H          -6.3513   -7.6456   -1.1312 H       1  LIG1        0.1072
     35 C          -3.9213   -7.3475    0.6665 C.ar    1  LIG1        0.0860
     36 C          -3.9850   -8.5316   -0.0372 C.ar    1  LIG1        0.0650
     37 C          -3.4130   -9.5491    0.7841 C.ar    1  LIG1        0.0434
     38 C          -3.0234   -8.9546    1.9627 C.ar    1  LIG1        0.0173
     39 N          -3.3036   -7.6284    1.8760 N.ar    1  LIG1       -0.3570
     40 H          -3.2597   -6.9782    2.6438 H       1  LIG1        0.1655
     41 H          -2.5701   -9.3904    2.8394 H       1  LIG1        0.0819
     42 N          -4.5322   -8.7023   -1.3204 N.pl3   1  LIG1       -0.3554
     43 H          -4.1216   -8.0814   -2.0085 H       1  LIG1        0.1424
     44 H          -4.4472   -9.6655   -1.6268 H       1  LIG1        0.1424
     45 S          -3.2869  -11.2618    0.3730 S.3     1  LIG1       -0.1394
     46 H          -2.0778  -11.2431   -0.2225 H       1  LIG1        0.1072
@<TRIPOS>BOND
     1     7     1    1
     2     6     5    1
     3    43    42    1
     4     1     5   ar
     5     1     2   ar
     6     5     4   ar
     7    31    30    1
     8    44    42    1
     9    32    30    1
    10    42    36    1
    11     9     8    1
    12    34    33    1
    13    30    25    1
    14    18    17    1
    15     2     8    1
    16     2     3   ar
    17     4    13    1
    18     4     3   ar
    19    33    26    1
    20    25    26   ar
    21    25    24   ar
    22    17    13   ar
    23    17    16   ar
    24     8    10    1
    25    13    14   ar
    26    26    27   ar
    27    46    45    1
    28    20    19    1
    29    36    35   ar
    30    36    37   ar
    31    24    16    1
    32    24    28   ar
    33     3    11    1
    34    16    15   ar
    35    27    28   ar
    36    27    35    1
    37    14    15   ar
    38    14    19    1
    39    45    37    1
    40    28    29    1
    41    23    22    1
    42    15    22    1
    43    35    39   ar
    44    19    21    1
    45    37    38   ar
    46    12    11    1
    47    39    38   ar
    48    39    40    1
    49    38    41    1
