@<TRIPOS>MOLECULE
mol_data/opt/cam/geoms/mol2/13hg13hg13hg-.out
 35 37 0 0 0
SMALL
GASTEIGER

@<TRIPOS>ATOM
      1 C           1.0792   -0.0459   -1.2147 C.ar    1  LIG1        0.0241
      2 C           0.9312    0.9384   -0.2689 C.ar    1  LIG1        0.0561
      3 C          -0.3594    0.7669    0.3191 C.ar    1  LIG1        0.0522
      4 C          -0.9613   -0.3163   -0.2945 C.ar    1  LIG1        0.0799
      5 N          -0.0675   -0.8173   -1.2103 N.ar    1  LIG1       -0.3570
      6 H          -0.3302   -1.4405   -1.9554 H       1  LIG1        0.1655
      7 H           1.9116   -0.2763   -1.8610 H       1  LIG1        0.0826
      8 N           1.8688    1.8877    0.1474 N.pl3   1  LIG1       -0.3560
      9 H           2.5132    2.1649   -0.5803 H       1  LIG1        0.1424
     10 H           1.4242    2.7003    0.5575 H       1  LIG1        0.1424
     11 S          -0.9548    1.7254    1.6799 S.3     1  LIG1       -0.1388
     12 H          -2.2278    1.8660    1.2346 H       1  LIG1        0.1072
     13 C          -2.2839   -0.8754   -0.1026 C.ar    1  LIG1        0.0865
     14 C          -3.5085   -0.2411   -0.0240 C.ar    1  LIG1        0.0657
     15 C          -4.4993   -1.2356    0.2009 C.ar    1  LIG1        0.0529
     16 C          -3.8603   -2.4637    0.2315 C.ar    1  LIG1        0.0804
     17 N          -2.5225   -2.2303    0.0280 N.ar    1  LIG1       -0.3494
     18 H          -1.8068   -2.9376    0.0095 H       1  LIG1        0.1661
     19 N          -3.7268    1.1445   -0.1144 N.pl3   1  LIG1       -0.3554
     20 H          -3.2131    1.5606   -0.8834 H       1  LIG1        0.1424
     21 H          -4.7149    1.3539   -0.2094 H       1  LIG1        0.1424
     22 S          -6.2130   -0.8939    0.4638 S.3     1  LIG1       -0.1388
     23 H          -6.6903   -1.9043   -0.3067 H       1  LIG1        0.1072
     24 C          -4.4137   -3.7933    0.3990 C.ar    1  LIG1        0.0860
     25 C          -5.4918   -4.3906   -0.2192 C.ar    1  LIG1        0.0650
     26 C          -5.6230   -5.7042    0.3232 C.ar    1  LIG1        0.0434
     27 C          -4.6248   -5.8643    1.2573 C.ar    1  LIG1        0.0173
     28 N          -3.8841   -4.7260    1.2782 N.ar    1  LIG1       -0.3570
     29 H          -3.1822   -4.5060    1.9661 H       1  LIG1        0.1655
     30 H          -4.4029   -6.7068    1.8938 H       1  LIG1        0.0819
     31 N          -6.3188   -3.8003   -1.1897 N.pl3   1  LIG1       -0.3554
     32 H          -5.7991   -3.4337   -1.9789 H       1  LIG1        0.1424
     33 H          -7.0277   -4.4509   -1.5102 H       1  LIG1        0.1424
     34 S          -6.8740   -6.8777   -0.0965 S.3     1  LIG1       -0.1394
     35 H          -6.2407   -7.5024   -1.1092 H       1  LIG1        0.1072
@<TRIPOS>BOND
     1    32    31    1
     2     6     5    1
     3     7     1    1
     4    33    31    1
     5     1     5   ar
     6     1     2   ar
     7     5     4   ar
     8    31    25    1
     9    35    34    1
    10    20    19    1
    11     9     8    1
    12    23    22    1
    13     4    13    1
    14     4     3   ar
    15     2     8    1
    16     2     3   ar
    17    25    26   ar
    18    25    24   ar
    19    21    19    1
    20    19    14    1
    21    13    14   ar
    22    13    17   ar
    23    34    26    1
    24    14    15   ar
    25    18    17    1
    26    17    16   ar
    27     8    10    1
    28    15    16   ar
    29    15    22    1
    30    16    24    1
    31     3    11    1
    32    26    27   ar
    33    24    28   ar
    34    12    11    1
    35    27    28   ar
    36    27    30    1
    37    28    29    1
