@<TRIPOS>MOLECULE
mol_data/opt/cam/geoms/mol2/13hg13hg-13hg.out
 35 37 0 0 0
SMALL
GASTEIGER

@<TRIPOS>ATOM
      1 C           1.0839   -0.0559   -1.2046 C.ar    1  LIG1        0.0241
      2 C           0.9302    0.9390   -0.2709 C.ar    1  LIG1        0.0561
      3 C          -0.3631    0.7730    0.3126 C.ar    1  LIG1        0.0522
      4 C          -0.9609   -0.3178   -0.2916 C.ar    1  LIG1        0.0799
      5 N          -0.0621   -0.8283   -1.1971 N.ar    1  LIG1       -0.3570
      6 H          -0.3205   -1.4603   -1.9364 H       1  LIG1        0.1655
      7 H           1.9198   -0.2929   -1.8440 H       1  LIG1        0.0826
      8 N           1.8648    1.8940    0.1391 N.pl3   1  LIG1       -0.3560
      9 H           2.5124    2.1638   -0.5885 H       1  LIG1        0.1424
     10 H           1.4174    2.7105    0.5383 H       1  LIG1        0.1424
     11 S          -0.9663    1.7463    1.6594 S.3     1  LIG1       -0.1388
     12 H          -2.2370    1.8812    1.2057 H       1  LIG1        0.1072
     13 C          -2.2840   -0.8759   -0.0998 C.ar    1  LIG1        0.0865
     14 C          -3.5095   -0.2419   -0.0348 C.ar    1  LIG1        0.0657
     15 C          -4.5006   -1.2345    0.1969 C.ar    1  LIG1        0.0529
     16 C          -3.8607   -2.4616    0.2450 C.ar    1  LIG1        0.0804
     17 N          -2.5220   -2.2294    0.0455 N.ar    1  LIG1       -0.3494
     18 H          -1.8057   -2.9363    0.0388 H       1  LIG1        0.1661
     19 N          -3.7286    1.1423   -0.1426 N.pl3   1  LIG1       -0.3554
     20 H          -3.2114    1.5500   -0.9138 H       1  LIG1        0.1424
     21 H          -4.7164    1.3496   -0.2449 H       1  LIG1        0.1424
     22 S          -6.2159   -0.8914    0.4472 S.3     1  LIG1       -0.1388
     23 H          -6.6885   -1.9113   -0.3138 H       1  LIG1        0.1072
     24 C          -4.4139   -3.7897    0.4252 C.ar    1  LIG1        0.0860
     25 C          -5.4883   -4.3950   -0.1915 C.ar    1  LIG1        0.0650
     26 C          -5.6212   -5.7023    0.3655 C.ar    1  LIG1        0.0434
     27 C          -4.6278   -5.8507    1.3065 C.ar    1  LIG1        0.0173
     28 N          -3.8880   -4.7116    1.3179 N.ar    1  LIG1       -0.3570
     29 H          -3.1900   -4.4829    2.0069 H       1  LIG1        0.1655
     30 H          -4.4085   -6.6855    1.9539 H       1  LIG1        0.0819
     31 N          -6.3108   -3.8167   -1.1730 N.pl3   1  LIG1       -0.3554
     32 H          -5.7875   -3.4590   -1.9638 H       1  LIG1        0.1424
     33 H          -7.0177   -4.4715   -1.4893 H       1  LIG1        0.1424
     34 S          -6.8692   -6.8816   -0.0470 S.3     1  LIG1       -0.1394
     35 H          -6.2303   -7.5175   -1.0492 H       1  LIG1        0.1072
@<TRIPOS>BOND
     1    32    31    1
     2     6     5    1
     3     7     1    1
     4    33    31    1
     5     1     5   ar
     6     1     2   ar
     7     5     4   ar
     8    31    25    1
     9    35    34    1
    10    20    19    1
    11     9     8    1
    12    23    22    1
    13     4    13    1
    14     4     3   ar
    15     2     8    1
    16     2     3   ar
    17    21    19    1
    18    25    26   ar
    19    25    24   ar
    20    19    14    1
    21    13    14   ar
    22    13    17   ar
    23    34    26    1
    24    14    15   ar
    25    18    17    1
    26    17    16   ar
    27     8    10    1
    28    15    16   ar
    29    15    22    1
    30    16    24    1
    31     3    11    1
    32    26    27   ar
    33    24    28   ar
    34    12    11    1
    35    27    28   ar
    36    27    30    1
    37    28    29    1
