@<TRIPOS>MOLECULE
mol_data/opt/cam/geoms/mol2/13hg13hg13hg.out
 35 37 0 0 0
SMALL
GASTEIGER

@<TRIPOS>ATOM
      1 C           1.0851   -0.0508   -1.2043 C.ar    1  LIG1        0.0241
      2 C           0.9331    0.9366   -0.2623 C.ar    1  LIG1        0.0561
      3 C          -0.3603    0.7674    0.3203 C.ar    1  LIG1        0.0522
      4 C          -0.9596   -0.3177   -0.2926 C.ar    1  LIG1        0.0799
      5 N          -0.0618   -0.8218   -1.2027 N.ar    1  LIG1       -0.3570
      6 H          -0.3212   -1.4474   -1.9470 H       1  LIG1        0.1655
      7 H           1.9205   -0.2835   -1.8460 H       1  LIG1        0.0826
      8 N           1.8691    1.8870    0.1553 N.pl3   1  LIG1       -0.3560
      9 H           2.5169    2.1616   -0.5703 H       1  LIG1        0.1424
     10 H           1.4228    2.7010    0.5608 H       1  LIG1        0.1424
     11 S          -0.9616    1.7303    1.6753 S.3     1  LIG1       -0.1388
     12 H          -2.2324    1.8703    1.2235 H       1  LIG1        0.1072
     13 C          -2.2833   -0.8758   -0.1050 C.ar    1  LIG1        0.0865
     14 C          -3.5081   -0.2409   -0.0342 C.ar    1  LIG1        0.0657
     15 C          -4.5002   -1.2345    0.1894 C.ar    1  LIG1        0.0529
     16 C          -3.8616   -2.4626    0.2269 C.ar    1  LIG1        0.0804
     17 N          -2.5228   -2.2302    0.0288 N.ar    1  LIG1       -0.3494
     18 H          -1.8072   -2.9378    0.0159 H       1  LIG1        0.1661
     19 N          -3.7256    1.1443   -0.1302 N.pl3   1  LIG1       -0.3554
     20 H          -3.2083    1.5579   -0.8982 H       1  LIG1        0.1424
     21 H          -4.7133    1.3536   -0.2304 H       1  LIG1        0.1424
     22 S          -6.2150   -0.8916    0.4432 S.3     1  LIG1       -0.1388
     23 H          -6.6890   -1.9047   -0.3259 H       1  LIG1        0.1072
     24 C          -4.4161   -3.7916    0.3960 C.ar    1  LIG1        0.0860
     25 C          -5.4916   -4.3905   -0.2252 C.ar    1  LIG1        0.0650
     26 C          -5.6256   -5.7023    0.3208 C.ar    1  LIG1        0.0434
     27 C          -4.6318   -5.8598    1.2600 C.ar    1  LIG1        0.0173
     28 N          -3.8908   -4.7216    1.2807 N.ar    1  LIG1       -0.3570
     29 H          -3.1921   -4.4996    1.9711 H       1  LIG1        0.1655
     30 H          -4.4131   -6.7003    1.9001 H       1  LIG1        0.0819
     31 N          -6.3140   -3.8030   -1.2012 N.pl3   1  LIG1       -0.3554
     32 H          -5.7906   -3.4391   -1.9892 H       1  LIG1        0.1424
     33 H          -7.0217   -4.4544   -1.5229 H       1  LIG1        0.1424
     34 S          -6.8751   -6.8768   -0.1009 S.3     1  LIG1       -0.1394
     35 H          -6.2374   -7.5049   -1.1087 H       1  LIG1        0.1072
@<TRIPOS>BOND
     1    32    31    1
     2     6     5    1
     3     7     1    1
     4    33    31    1
     5     1     5   ar
     6     1     2   ar
     7     5     4   ar
     8    31    25    1
     9    35    34    1
    10    20    19    1
    11     9     8    1
    12    23    22    1
    13     4    13    1
    14     4     3   ar
    15     2     8    1
    16     2     3   ar
    17    21    19    1
    18    25    26   ar
    19    25    24   ar
    20    19    14    1
    21    13    14   ar
    22    13    17   ar
    23    34    26    1
    24    14    15   ar
    25    18    17    1
    26    17    16   ar
    27     8    10    1
    28    15    16   ar
    29    15    22    1
    30    16    24    1
    31     3    11    1
    32    26    27   ar
    33    24    28   ar
    34    12    11    1
    35    27    28   ar
    36    27    30    1
    37    28    29    1
