@<TRIPOS>MOLECULE
mol_data/opt/cam/geoms/mol2/13hg13hg-13hg-.out
 35 37 0 0 0
SMALL
GASTEIGER

@<TRIPOS>ATOM
      1 C           1.0799   -0.0532   -1.2097 C.ar    1  LIG1        0.0241
      2 C           0.9285    0.9406   -0.2745 C.ar    1  LIG1        0.0561
      3 C          -0.3633    0.7737    0.3121 C.ar    1  LIG1        0.0522
      4 C          -0.9624   -0.3165   -0.2917 C.ar    1  LIG1        0.0799
      5 N          -0.0658   -0.8258   -1.2001 N.ar    1  LIG1       -0.3570
      6 H          -0.3259   -1.4571   -1.9394 H       1  LIG1        0.1655
      7 H           1.9142   -0.2892   -1.8516 H       1  LIG1        0.0826
      8 N           1.8640    1.8953    0.1343 N.pl3   1  LIG1       -0.3560
      9 H           2.5103    2.1652   -0.5944 H       1  LIG1        0.1424
     10 H           1.4175    2.7118    0.5344 H       1  LIG1        0.1424
     11 S          -0.9630    1.7455    1.6616 S.3     1  LIG1       -0.1388
     12 H          -2.2352    1.8799    1.2118 H       1  LIG1        0.1072
     13 C          -2.2848   -0.8752   -0.0973 C.ar    1  LIG1        0.0865
     14 C          -3.5104   -0.2417   -0.0281 C.ar    1  LIG1        0.0657
     15 C          -4.5005   -1.2351    0.2045 C.ar    1  LIG1        0.0529
     16 C          -3.8601   -2.4620    0.2490 C.ar    1  LIG1        0.0804
     17 N          -2.5221   -2.2291    0.0463 N.ar    1  LIG1       -0.3494
     18 H          -1.8055   -2.9356    0.0366 H       1  LIG1        0.1661
     19 N          -3.7301    1.1426   -0.1332 N.pl3   1  LIG1       -0.3554
     20 H          -3.2152    1.5515   -0.9053 H       1  LIG1        0.1424
     21 H          -4.7183    1.3498   -0.2325 H       1  LIG1        0.1424
     22 S          -6.2152   -0.8929    0.4598 S.3     1  LIG1       -0.1388
     23 H          -6.6895   -1.9116   -0.3016 H       1  LIG1        0.1072
     24 C          -4.4122   -3.7906    0.4285 C.ar    1  LIG1        0.0860
     25 C          -5.4882   -4.3955   -0.1862 C.ar    1  LIG1        0.0650
     26 C          -5.6190   -5.7036    0.3692 C.ar    1  LIG1        0.0434
     27 C          -4.6228   -5.8531    1.3072 C.ar    1  LIG1        0.0173
     28 N          -3.8837   -4.7137    1.3185 N.ar    1  LIG1       -0.3570
     29 H          -3.1833   -4.4861    2.0055 H       1  LIG1        0.1655
     30 H          -4.4015   -6.6889    1.9526 H       1  LIG1        0.0819
     31 N          -6.3135   -3.8159   -1.1645 N.pl3   1  LIG1       -0.3554
     32 H          -5.7924   -3.4567   -1.9561 H       1  LIG1        0.1424
     33 H          -7.0209   -4.4706   -1.4801 H       1  LIG1        0.1424
     34 S          -6.8677   -6.8829   -0.0416 S.3     1  LIG1       -0.1394
     35 H          -6.2312   -7.5171   -1.0464 H       1  LIG1        0.1072
@<TRIPOS>BOND
     1    32    31    1
     2     6     5    1
     3     7     1    1
     4    33    31    1
     5     1     5   ar
     6     1     2   ar
     7     5     4   ar
     8    31    25    1
     9    35    34    1
    10    20    19    1
    11     9     8    1
    12    23    22    1
    13     4    13    1
    14     4     3   ar
    15     2     8    1
    16     2     3   ar
    17    21    19    1
    18    25    26   ar
    19    25    24   ar
    20    19    14    1
    21    13    14   ar
    22    13    17   ar
    23    34    26    1
    24    14    15   ar
    25    18    17    1
    26    17    16   ar
    27     8    10    1
    28    15    16   ar
    29    15    22    1
    30    16    24    1
    31     3    11    1
    32    26    27   ar
    33    24    28   ar
    34    12    11    1
    35    27    28   ar
    36    27    30    1
    37    28    29    1
