@<TRIPOS>MOLECULE
mol_data/opt/cam/geoms/mol2/13hg13hg-13hg-13hg-.out
 46 49 0 0 0
SMALL
GASTEIGER

@<TRIPOS>ATOM
      1 C           0.7121    0.4541   -1.9871 C.ar    1  LIG1        0.0241
      2 C           0.8719    1.1399   -0.8084 C.ar    1  LIG1        0.0561
      3 C          -0.2136    0.7711    0.0439 C.ar    1  LIG1        0.0522
      4 C          -1.0068   -0.1256   -0.6481 C.ar    1  LIG1        0.0799
      5 N          -0.4211   -0.3290   -1.8746 N.ar    1  LIG1       -0.3570
      6 H          -0.9057   -0.7340   -2.6582 H       1  LIG1        0.1655
      7 H           1.3242    0.4363   -2.8752 H       1  LIG1        0.0826
      8 N           1.9275    1.9729   -0.4270 N.pl3   1  LIG1       -0.3560
      9 H           2.3580    2.4596   -1.2012 H       1  LIG1        0.1424
     10 H           1.6480    2.6275    0.2938 H       1  LIG1        0.1424
     11 S          -0.3728    1.3051    1.7216 S.3     1  LIG1       -0.1388
     12 H          -1.7115    1.5200    1.6963 H       1  LIG1        0.1072
     13 C          -2.2480   -0.7615   -0.2556 C.ar    1  LIG1        0.0865
     14 C          -3.3761   -0.2142    0.3240 C.ar    1  LIG1        0.0657
     15 C          -4.3071   -1.2668    0.5408 C.ar    1  LIG1        0.0529
     16 C          -3.7361   -2.4362    0.0656 C.ar    1  LIG1        0.0804
     17 N          -2.4971   -2.1099   -0.4287 N.ar    1  LIG1       -0.3494
     18 H          -1.8481   -2.7585   -0.8421 H       1  LIG1        0.1661
     19 N          -3.5521    1.1363    0.6713 N.pl3   1  LIG1       -0.3554
     20 H          -3.2555    1.7613   -0.0702 H       1  LIG1        0.1424
     21 H          -4.5179    1.3284    0.9155 H       1  LIG1        0.1424
     22 S          -5.8593   -1.0681    1.3626 S.3     1  LIG1       -0.1388
     23 H          -6.5879   -1.8424    0.5196 H       1  LIG1        0.1072
     24 C          -4.2823   -3.7775    0.0204 C.ar    1  LIG1        0.0865
     25 C          -5.5178   -4.2087   -0.4211 C.ar    1  LIG1        0.0657
     26 C          -5.5880   -5.6135   -0.2147 C.ar    1  LIG1        0.0529
     27 C          -4.3801   -6.0165    0.3292 C.ar    1  LIG1        0.0804
     28 N          -3.5931   -4.8976    0.4472 N.ar    1  LIG1       -0.3494
     29 H          -2.6649   -4.8840    0.8362 H       1  LIG1        0.1661
     30 N          -6.5362   -3.3933   -0.9453 N.pl3   1  LIG1       -0.3554
     31 H          -6.1843   -2.7442   -1.6404 H       1  LIG1        0.1424
     32 H          -7.2811   -3.9525   -1.3476 H       1  LIG1        0.1424
     33 S          -7.0181   -6.5985   -0.5408 S.3     1  LIG1       -0.1388
     34 H          -6.3568   -7.6452   -1.0986 H       1  LIG1        0.1072
     35 C          -3.9265   -7.3434    0.6981 C.ar    1  LIG1        0.0860
     36 C          -3.9918   -8.5302   -0.0010 C.ar    1  LIG1        0.0650
     37 C          -3.4212   -9.5452    0.8242 C.ar    1  LIG1        0.0434
     38 C          -3.0308   -8.9467    2.0005 C.ar    1  LIG1        0.0173
     39 N          -3.3093   -7.6205    1.9086 N.ar    1  LIG1       -0.3570
     40 H          -3.2645   -6.9673    2.6740 H       1  LIG1        0.1655
     41 H          -2.5781   -9.3797    2.8789 H       1  LIG1        0.0819
     42 N          -4.5392   -8.7051   -1.2836 N.pl3   1  LIG1       -0.3554
     43 H          -4.1277   -8.0875   -1.9740 H       1  LIG1        0.1424
     44 H          -4.4555   -9.6696   -1.5862 H       1  LIG1        0.1424
     45 S          -3.2974  -11.2598    0.4198 S.3     1  LIG1       -0.1394
     46 H          -2.0883  -11.2450   -0.1757 H       1  LIG1        0.1072
@<TRIPOS>BOND
     1     7     1    1
     2     6     5    1
     3     1     5   ar
     4     1     2   ar
     5    43    42    1
     6     5     4   ar
     7    31    30    1
     8    44    42    1
     9    32    30    1
    10    42    36    1
    11     9     8    1
    12    34    33    1
    13    30    25    1
    14    18    17    1
    15     2     8    1
    16     2     3   ar
    17     4    13    1
    18     4     3   ar
    19    33    26    1
    20    17    13   ar
    21    17    16   ar
    22     8    10    1
    23    25    26   ar
    24    25    24   ar
    25    13    14   ar
    26    26    27   ar
    27    46    45    1
    28    20    19    1
    29    36    35   ar
    30    36    37   ar
    31    24    16    1
    32    24    28   ar
    33     3    11    1
    34    16    15   ar
    35    14    15   ar
    36    14    19    1
    37    27    28   ar
    38    27    35    1
    39    45    37    1
    40    28    29    1
    41    23    22    1
    42    15    22    1
    43    19    21    1
    44    35    39   ar
    45    37    38   ar
    46    12    11    1
    47    39    38   ar
    48    39    40    1
    49    38    41    1
