@<TRIPOS>MOLECULE
mol_data/opt/cam/geoms/mol2/13hg13hg13hg-13hg-.out
 46 49 0 0 0
SMALL
GASTEIGER

@<TRIPOS>ATOM
      1 C           0.7179    0.4623   -1.9872 C.ar    1  LIG1        0.0241
      2 C           0.8810    1.1377   -0.8029 C.ar    1  LIG1        0.0561
      3 C          -0.2042    0.7641    0.0478 C.ar    1  LIG1        0.0522
      4 C          -1.0003   -0.1249   -0.6506 C.ar    1  LIG1        0.0799
      5 N          -0.4169   -0.3192   -1.8796 N.ar    1  LIG1       -0.3570
      6 H          -0.9035   -0.7163   -2.6659 H       1  LIG1        0.1655
      7 H           1.3287    0.4507   -2.8763 H       1  LIG1        0.0826
      8 N           1.9389    1.9651   -0.4160 N.pl3   1  LIG1       -0.3560
      9 H           2.3695    2.4574   -1.1866 H       1  LIG1        0.1424
     10 H           1.6620    2.6142    0.3107 H       1  LIG1        0.1424
     11 S          -0.3597    1.2842    1.7302 S.3     1  LIG1       -0.1388
     12 H          -1.6980    1.5023    1.7087 H       1  LIG1        0.1072
     13 C          -2.2424   -0.7613   -0.2618 C.ar    1  LIG1        0.0865
     14 C          -3.3684   -0.2165    0.3242 C.ar    1  LIG1        0.0657
     15 C          -4.3015   -1.2688    0.5334 C.ar    1  LIG1        0.0529
     16 C          -3.7338   -2.4354    0.0474 C.ar    1  LIG1        0.0804
     17 N          -2.4948   -2.1077   -0.4460 N.ar    1  LIG1       -0.3494
     18 H          -1.8479   -2.7541   -0.8658 H       1  LIG1        0.1661
     19 N          -3.5409    1.1314    0.6832 N.pl3   1  LIG1       -0.3554
     20 H          -3.2440    1.7620   -0.0534 H       1  LIG1        0.1424
     21 H          -4.5059    1.3236    0.9305 H       1  LIG1        0.1424
     22 S          -5.8521   -1.0736    1.3590 S.3     1  LIG1       -0.1388
     23 H          -6.5837   -1.8391    0.5106 H       1  LIG1        0.1072
     24 C          -4.2831   -3.7750   -0.0085 C.ar    1  LIG1        0.0865
     25 C          -5.5202   -4.1997   -0.4518 C.ar    1  LIG1        0.0657
     26 C          -5.5932   -5.6060   -0.2573 C.ar    1  LIG1        0.0529
     27 C          -4.3855   -6.0164    0.2813 C.ar    1  LIG1        0.0804
     28 N          -3.5958   -4.9003    0.4077 N.ar    1  LIG1       -0.3494
     29 H          -2.6670   -4.8921    0.7955 H       1  LIG1        0.1661
     30 N          -6.5375   -3.3775   -0.9675 N.pl3   1  LIG1       -0.3554
     31 H          -6.1852   -2.7233   -1.6576 H       1  LIG1        0.1424
     32 H          -7.2843   -3.9316   -1.3735 H       1  LIG1        0.1424
     33 S          -7.0260   -6.5850   -0.5897 S.3     1  LIG1       -0.1388
     34 H          -6.3680   -7.6284   -1.1573 H       1  LIG1        0.1072
     35 C          -3.9344   -7.3474    0.6383 C.ar    1  LIG1        0.0860
     36 C          -4.0033   -8.5280   -0.0708 C.ar    1  LIG1        0.0650
     37 C          -3.4339   -9.5513    0.7449 C.ar    1  LIG1        0.0434
     38 C          -3.0404   -8.9638    1.9256 C.ar    1  LIG1        0.0173
     39 N          -3.3160   -7.6362    1.8454 N.ar    1  LIG1       -0.3570
     40 H          -3.2686   -6.9896    2.6163 H       1  LIG1        0.1655
     41 H          -2.5874   -9.4052    2.7996 H       1  LIG1        0.0819
     42 N          -4.5530   -8.6907   -1.3541 N.pl3   1  LIG1       -0.3554
     43 H          -4.1412   -8.0682   -2.0398 H       1  LIG1        0.1424
     44 H          -4.4720   -9.6528   -1.6650 H       1  LIG1        0.1424
     45 S          -3.3145  -11.2626    0.3256 S.3     1  LIG1       -0.1394
     46 H          -2.1063  -11.2455   -0.2716 H       1  LIG1        0.1072
@<TRIPOS>BOND
     1     7     1    1
     2     6     5    1
     3    43    42    1
     4     1     5   ar
     5     1     2   ar
     6     5     4   ar
     7    44    42    1
     8    31    30    1
     9    32    30    1
    10    42    36    1
    11     9     8    1
    12    34    33    1
    13    30    25    1
    14    18    17    1
    15     2     8    1
    16     2     3   ar
    17     4    13    1
    18     4     3   ar
    19    33    26    1
    20    25    26   ar
    21    25    24   ar
    22    17    13   ar
    23    17    16   ar
    24     8    10    1
    25    46    45    1
    26    13    14   ar
    27    26    27   ar
    28    36    35   ar
    29    36    37   ar
    30    20    19    1
    31    24    16    1
    32    24    28   ar
    33    16    15   ar
    34     3    11    1
    35    27    28   ar
    36    27    35    1
    37    14    15   ar
    38    14    19    1
    39    45    37    1
    40    28    29    1
    41    23    22    1
    42    15    22    1
    43    35    39   ar
    44    19    21    1
    45    37    38   ar
    46    12    11    1
    47    39    38   ar
    48    39    40    1
    49    38    41    1
