@<TRIPOS>MOLECULE
mol_data/opt/cam/geoms/mol2/13hg13hg-.out
 24 25 0 0 0
SMALL
GASTEIGER

@<TRIPOS>ATOM
      1 C           1.1208   -0.4289   -0.4775 C.ar    1  LIG1        0.0241
      2 C           0.8466    0.8837   -0.1974 C.ar    1  LIG1        0.0561
      3 C          -0.5560    0.9715    0.0819 C.ar    1  LIG1        0.0522
      4 C          -1.0986   -0.3022   -0.0377 C.ar    1  LIG1        0.0799
      5 N          -0.0621   -1.1379   -0.3555 N.ar    1  LIG1       -0.3570
      6 H          -0.2038   -2.0724   -0.7015 H       1  LIG1        0.1655
      7 H           2.0514   -0.9202   -0.7130 H       1  LIG1        0.0826
      8 N           1.7450    1.9467   -0.1009 N.pl3   1  LIG1       -0.3560
      9 H           2.4891    1.9186   -0.7836 H       1  LIG1        0.1424
     10 H           1.2755    2.8432   -0.1110 H       1  LIG1        0.1424
     11 S          -1.3813    2.4817    0.4651 S.3     1  LIG1       -0.1388
     12 H          -1.4820    2.3645    1.8033 H       1  LIG1        0.1072
     13 C          -2.4252   -0.8588    0.1473 C.ar    1  LIG1        0.0860
     14 C          -3.7011   -0.4262   -0.1759 C.ar    1  LIG1        0.0650
     15 C          -4.5963   -1.5051    0.1205 C.ar    1  LIG1        0.0434
     16 C          -3.8516   -2.5404    0.6331 C.ar    1  LIG1        0.0173
     17 N          -2.5485   -2.1673    0.6243 N.ar    1  LIG1       -0.3570
     18 H          -1.8197   -2.6298    1.1434 H       1  LIG1        0.1655
     19 H          -4.1737   -3.5005    1.0059 H       1  LIG1        0.0819
     20 N          -4.1001    0.7953   -0.6640 N.pl3   1  LIG1       -0.3554
     21 H          -3.3837    1.4448   -0.9425 H       1  LIG1        0.1424
     22 H          -4.9510    0.8048   -1.2029 H       1  LIG1        0.1424
     23 S          -6.3479   -1.4832   -0.0959 S.3     1  LIG1       -0.1394
     24 H          -6.4129   -1.9923   -1.3428 H       1  LIG1        0.1072
@<TRIPOS>BOND
     1    24    23    1
     2    22    20    1
     3    21    20    1
     4     9     8    1
     5     7     1    1
     6     6     5    1
     7    20    14    1
     8     1     5   ar
     9     1     2   ar
    10     5     4   ar
    11     2     8    1
    12     2     3   ar
    13    14    15   ar
    14    14    13   ar
    15    10     8    1
    16    23    15    1
    17     4     3   ar
    18     4    13    1
    19     3    11    1
    20    15    16   ar
    21    13    17   ar
    22    11    12    1
    23    17    16   ar
    24    17    18    1
    25    16    19    1
