@<TRIPOS>MOLECULE
mol_data/opt/cam/geoms/mol2/13hg13hg.out
 24 25 0 0 0
SMALL
GASTEIGER

@<TRIPOS>ATOM
      1 C           1.1160   -0.4269   -0.5079 C.ar    1  LIG1        0.0241
      2 C           0.8457    0.8837   -0.2150 C.ar    1  LIG1        0.0561
      3 C          -0.5537    0.9702    0.0805 C.ar    1  LIG1        0.0522
      4 C          -1.0983   -0.3023   -0.0425 C.ar    1  LIG1        0.0799
      5 N          -0.0659   -1.1361   -0.3780 N.ar    1  LIG1       -0.3570
      6 H          -0.2120   -2.0679   -0.7293 H       1  LIG1        0.1655
      7 H           2.0436   -0.9168   -0.7574 H       1  LIG1        0.0826
      8 N           1.7457    1.9455   -0.1206 N.pl3   1  LIG1       -0.3560
      9 H           2.4821    1.9221   -0.8118 H       1  LIG1        0.1424
     10 H           1.2767    2.8423   -0.1188 H       1  LIG1        0.1424
     11 S          -1.3738    2.4779    0.4841 S.3     1  LIG1       -0.1388
     12 H          -1.4596    2.3508    1.8225 H       1  LIG1        0.1072
     13 C          -2.4231   -0.8596    0.1531 C.ar    1  LIG1        0.0860
     14 C          -3.7023   -0.4239   -0.1527 C.ar    1  LIG1        0.0650
     15 C          -4.5947   -1.5045    0.1458 C.ar    1  LIG1        0.0434
     16 C          -3.8451   -2.5440    0.6424 C.ar    1  LIG1        0.0173
     17 N          -2.5419   -2.1715    0.6219 N.ar    1  LIG1       -0.3570
     18 H          -1.8076   -2.6382    1.1293 H       1  LIG1        0.1655
     19 H          -4.1636   -3.5067    1.0116 H       1  LIG1        0.0819
     20 N          -4.1060    0.8014   -0.6272 N.pl3   1  LIG1       -0.3554
     21 H          -3.3922    1.4524   -0.9091 H       1  LIG1        0.1424
     22 H          -4.9628    0.8152   -1.1567 H       1  LIG1        0.1424
     23 S          -6.3487   -1.4801   -0.0510 S.3     1  LIG1       -0.1394
     24 H          -6.4278   -1.9800   -1.3008 H       1  LIG1        0.1072
@<TRIPOS>BOND
     1    24    23    1
     2    22    20    1
     3    21    20    1
     4     9     8    1
     5     7     1    1
     6     6     5    1
     7    20    14    1
     8     1     5   ar
     9     1     2   ar
    10     5     4   ar
    11     2     8    1
    12     2     3   ar
    13    14    15   ar
    14    14    13   ar
    15     8    10    1
    16    23    15    1
    17     4     3   ar
    18     4    13    1
    19     3    11    1
    20    15    16   ar
    21    13    17   ar
    22    11    12    1
    23    17    16   ar
    24    17    18    1
    25    16    19    1
