@<TRIPOS>MOLECULE
mol_data/opt/cam/geoms/mol2/13hg13hg-13hg13hg-.out
 46 49 0 0 0
SMALL
GASTEIGER

@<TRIPOS>ATOM
      1 C           0.7413    0.3609   -2.0463 C.ar    1  LIG1        0.0241
      2 C           0.8941    1.0505   -0.8688 C.ar    1  LIG1        0.0561
      3 C          -0.2079    0.7007   -0.0300 C.ar    1  LIG1        0.0522
      4 C          -1.0037   -0.1887   -0.7285 C.ar    1  LIG1        0.0799
      5 N          -0.4042   -0.4056   -1.9458 N.ar    1  LIG1       -0.3570
      6 H          -0.8817   -0.8111   -2.7334 H       1  LIG1        0.1655
      7 H           1.3653    0.3303   -2.9258 H       1  LIG1        0.0826
      8 N           1.9558    1.8710   -0.4771 N.pl3   1  LIG1       -0.3560
      9 H           2.4024    2.3491   -1.2475 H       1  LIG1        0.1424
     10 H           1.6759    2.5320    0.2377 H       1  LIG1        0.1424
     11 S          -0.3817    1.2445    1.6432 S.3     1  LIG1       -0.1388
     12 H          -1.7167    1.4785    1.5999 H       1  LIG1        0.1072
     13 C          -2.2580   -0.8069   -0.3497 C.ar    1  LIG1        0.0865
     14 C          -3.3862   -0.2431    0.2134 C.ar    1  LIG1        0.0657
     15 C          -4.3327   -1.2830    0.4228 C.ar    1  LIG1        0.0529
     16 C          -3.7715   -2.4613   -0.0411 C.ar    1  LIG1        0.0804
     17 N          -2.5218   -2.1528   -0.5206 N.ar    1  LIG1       -0.3494
     18 H          -1.8764   -2.8100   -0.9260 H       1  LIG1        0.1661
     19 N          -3.5500    1.1112    0.5521 N.pl3   1  LIG1       -0.3554
     20 H          -3.2338    1.7286   -0.1877 H       1  LIG1        0.1424
     21 H          -4.5169    1.3171    0.7799 H       1  LIG1        0.1424
     22 S          -5.8965   -1.0627    1.2159 S.3     1  LIG1       -0.1388
     23 H          -6.6118   -1.8407    0.3640 H       1  LIG1        0.1072
     24 C          -4.3304   -3.7973   -0.0873 C.ar    1  LIG1        0.0865
     25 C          -5.5591   -4.2310   -0.5339 C.ar    1  LIG1        0.0657
     26 C          -5.6245   -5.6416   -0.3312 C.ar    1  LIG1        0.0529
     27 C          -4.4171   -6.0483    0.2281 C.ar    1  LIG1        0.0804
     28 N          -3.6529   -4.9209    0.3595 N.ar    1  LIG1       -0.3494
     29 H          -2.7155   -4.9145    0.7271 H       1  LIG1        0.1661
     30 N          -6.5787   -3.4187   -1.0562 N.pl3   1  LIG1       -0.3554
     31 H          -6.2586   -2.8302   -1.8168 H       1  LIG1        0.1424
     32 H          -7.3716   -3.9752   -1.3567 H       1  LIG1        0.1424
     33 S          -7.0107   -6.6293   -0.7934 S.3     1  LIG1       -0.1388
     34 H          -7.5237   -6.8884    0.4245 H       1  LIG1        0.1072
     35 C          -3.9088   -7.3186    0.7057 C.ar    1  LIG1        0.0860
     36 C          -3.9649   -8.6117    0.2112 C.ar    1  LIG1        0.0650
     37 C          -3.1268   -9.4169    1.0498 C.ar    1  LIG1        0.0434
     38 C          -2.6126   -8.6050    2.0319 C.ar    1  LIG1        0.0173
     39 N          -3.0517   -7.3412    1.8122 N.ar    1  LIG1       -0.3570
     40 H          -3.0347   -6.6119    2.5073 H       1  LIG1        0.1655
     41 H          -1.9768   -8.8553    2.8672 H       1  LIG1        0.0819
     42 N          -4.6796   -9.0952   -0.8557 N.pl3   1  LIG1       -0.3554
     43 H          -5.1491   -8.4368   -1.4539 H       1  LIG1        0.1424
     44 H          -4.3393   -9.9414   -1.2824 H       1  LIG1        0.1424
     45 S          -2.8470  -11.1500    0.8667 S.3     1  LIG1       -0.1394
     46 H          -1.7394  -11.1034    0.0994 H       1  LIG1        0.1072
@<TRIPOS>BOND
     1     7     1    1
     2     6     5    1
     3     1     5   ar
     4     1     2   ar
     5     5     4   ar
     6    31    30    1
     7    43    42    1
     8    32    30    1
     9    44    42    1
    10     9     8    1
    11    30    25    1
    12    18    17    1
    13     2     8    1
    14     2     3   ar
    15    42    36    1
    16    33    26    1
    17    33    34    1
    18     4    13    1
    19     4     3   ar
    20    25    26   ar
    21    25    24   ar
    22    17    13   ar
    23    17    16   ar
    24     8    10    1
    25    13    14   ar
    26    26    27   ar
    27    20    19    1
    28    24    16    1
    29    24    28   ar
    30    16    15   ar
    31     3    11    1
    32    46    45    1
    33    36    35   ar
    34    36    37   ar
    35    14    15   ar
    36    14    19    1
    37    27    28   ar
    38    27    35    1
    39    28    29    1
    40    23    22    1
    41    15    22    1
    42    19    21    1
    43    35    39   ar
    44    45    37    1
    45    37    38   ar
    46    12    11    1
    47    39    38   ar
    48    39    40    1
    49    38    41    1
