@<TRIPOS>MOLECULE
mol_data/opt/cam/geoms/mol2/13hg.out
 13 13 0 0 0
SMALL
GASTEIGER

@<TRIPOS>ATOM
      1 C           1.1306   -0.4447   -0.0986 C.ar    1  LIG1        0.0237
      2 C           0.6796    0.8499   -0.0144 C.ar    1  LIG1        0.0554
      3 C          -0.7365    0.7819    0.1784 C.ar    1  LIG1        0.0428
      4 C          -1.0877   -0.5497    0.2198 C.ar    1  LIG1        0.0168
      5 N           0.0395   -1.2809    0.0396 N.ar    1  LIG1       -0.3645
      6 H           0.0821   -2.2853    0.0310 H       1  LIG1        0.1649
      7 H          -2.0558   -1.0055    0.3582 H       1  LIG1        0.0818
      8 H           2.1277   -0.8348   -0.2277 H       1  LIG1        0.0826
      9 N           1.4380    2.0235   -0.0432 N.pl3   1  LIG1       -0.3560
     10 H           2.1604    2.0276   -0.7496 H       1  LIG1        0.1424
     11 H           0.8544    2.8467   -0.1204 H       1  LIG1        0.1424
     12 S          -1.8202    2.1601    0.3869 S.3     1  LIG1       -0.1394
     13 H          -2.1694    2.3520   -0.9013 H       1  LIG1        0.1072
@<TRIPOS>BOND
     1    13    12    1
     2    10     9    1
     3     8     1    1
     4    11     9    1
     5     1     2   ar
     6     1     5   ar
     7     9     2    1
     8     2     3   ar
     9     6     5    1
    10     5     4   ar
    11     3     4   ar
    12     3    12    1
    13     4     7    1
