@<TRIPOS>MOLECULE
mol_data/opt/cam/geoms/mol2/13hg13hg13hg13hg-.out
 46 49 0 0 0
SMALL
GASTEIGER

@<TRIPOS>ATOM
      1 C           0.7220    0.4573   -1.9800 C.ar    1  LIG1        0.0241
      2 C           0.8781    1.1394   -0.7986 C.ar    1  LIG1        0.0561
      3 C          -0.2108    0.7688    0.0486 C.ar    1  LIG1        0.0522
      4 C          -1.0021   -0.1252   -0.6490 C.ar    1  LIG1        0.0799
      5 N          -0.4122   -0.3253   -1.8739 N.ar    1  LIG1       -0.3570
      6 H          -0.8942   -0.7274   -2.6605 H       1  LIG1        0.1655
      7 H           1.3373    0.4418   -2.8659 H       1  LIG1        0.0826
      8 N           1.9329    1.9704   -0.4109 N.pl3   1  LIG1       -0.3560
      9 H           2.3666    2.4592   -1.1820 H       1  LIG1        0.1424
     10 H           1.6513    2.6231    0.3109 H       1  LIG1        0.1424
     11 S          -0.3756    1.2979    1.7273 S.3     1  LIG1       -0.1388
     12 H          -1.7141    1.5138    1.6978 H       1  LIG1        0.1072
     13 C          -2.2452   -0.7613   -0.2629 C.ar    1  LIG1        0.0865
     14 C          -3.3750   -0.2149    0.3143 C.ar    1  LIG1        0.0657
     15 C          -4.3076   -1.2674    0.5245 C.ar    1  LIG1        0.0529
     16 C          -3.7357   -2.4358    0.0478 C.ar    1  LIG1        0.0804
     17 N          -2.4948   -2.1090   -0.4411 N.ar    1  LIG1       -0.3494
     18 H          -1.8447   -2.7567   -0.8540 H       1  LIG1        0.1661
     19 N          -3.5513    1.1346    0.6650 N.pl3   1  LIG1       -0.3554
     20 H          -3.2515    1.7617   -0.0735 H       1  LIG1        0.1424
     21 H          -4.5178    1.3267    0.9064 H       1  LIG1        0.1424
     22 S          -5.8626   -1.0701    1.3412 S.3     1  LIG1       -0.1388
     23 H          -6.5888   -1.8413    0.4933 H       1  LIG1        0.1072
     24 C          -4.2827   -3.7765   -0.0035 C.ar    1  LIG1        0.0865
     25 C          -5.5170   -4.2055   -0.4508 C.ar    1  LIG1        0.0657
     26 C          -5.5890   -5.6108   -0.2490 C.ar    1  LIG1        0.0529
     27 C          -4.3834   -6.0165    0.2981 C.ar    1  LIG1        0.0804
     28 N          -3.5960   -4.8985    0.4224 N.ar    1  LIG1       -0.3494
     29 H          -2.6691   -4.8868    0.8147 H       1  LIG1        0.1661
     30 N          -6.5329   -3.3877   -0.9761 N.pl3   1  LIG1       -0.3554
     31 H          -6.1780   -2.7367   -1.6680 H       1  LIG1        0.1424
     32 H          -7.2767   -3.9451   -1.3828 H       1  LIG1        0.1424
     33 S          -7.0186   -6.5937   -0.5832 S.3     1  LIG1       -0.1388
     34 H          -6.3562   -7.6393   -1.1418 H       1  LIG1        0.1072
     35 C          -3.9322   -7.3448    0.6646 C.ar    1  LIG1        0.0860
     36 C          -3.9958   -8.5294   -0.0384 C.ar    1  LIG1        0.0650
     37 C          -3.4290   -9.5474    0.7858 C.ar    1  LIG1        0.0434
     38 C          -3.0424   -8.9528    1.9653 C.ar    1  LIG1        0.0173
     39 N          -3.3195   -7.6261    1.8765 N.ar    1  LIG1       -0.3570
     40 H          -3.2770   -6.9753    2.6439 H       1  LIG1        0.1655
     41 H          -2.5932   -9.3888    2.8440 H       1  LIG1        0.0819
     42 N          -4.5387   -8.7000   -1.3235 N.pl3   1  LIG1       -0.3554
     43 H          -4.1242   -8.0806   -2.0106 H       1  LIG1        0.1424
     44 H          -4.4546   -9.6636   -1.6287 H       1  LIG1        0.1424
     45 S          -3.3050  -11.2608    0.3765 S.3     1  LIG1       -0.1394
     46 H          -2.0937  -11.2451   -0.2146 H       1  LIG1        0.1072
@<TRIPOS>BOND
     1     7     1    1
     2     6     5    1
     3    43    42    1
     4     1     5   ar
     5     1     2   ar
     6     5     4   ar
     7    31    30    1
     8    44    42    1
     9    32    30    1
    10    42    36    1
    11     9     8    1
    12    34    33    1
    13    30    25    1
    14    18    17    1
    15     2     8    1
    16     2     3   ar
    17     4    13    1
    18     4     3   ar
    19    33    26    1
    20    25    26   ar
    21    25    24   ar
    22    17    13   ar
    23    17    16   ar
    24     8    10    1
    25    13    14   ar
    26    26    27   ar
    27    46    45    1
    28    20    19    1
    29    36    35   ar
    30    36    37   ar
    31    24    16    1
    32    24    28   ar
    33    16    15   ar
    34     3    11    1
    35    27    28   ar
    36    27    35    1
    37    14    15   ar
    38    14    19    1
    39    45    37    1
    40    28    29    1
    41    23    22    1
    42    15    22    1
    43    35    39   ar
    44    19    21    1
    45    37    38   ar
    46    12    11    1
    47    39    38   ar
    48    39    40    1
    49    38    41    1
