@<TRIPOS>MOLECULE
mol_data/opt/cam/geoms/mol2/13hg13hg-13hg13hg.out
 46 49 0 0 0
SMALL
GASTEIGER

@<TRIPOS>ATOM
      1 C           0.6976    0.4578   -1.9960 C.ar    1  LIG1        0.0241
      2 C           0.8551    1.1502   -0.8208 C.ar    1  LIG1        0.0561
      3 C          -0.2290    0.7818    0.0335 C.ar    1  LIG1        0.0522
      4 C          -1.0189   -0.1214   -0.6538 C.ar    1  LIG1        0.0799
      5 N          -0.4327   -0.3289   -1.8793 N.ar    1  LIG1       -0.3570
      6 H          -0.9158   -0.7396   -2.6607 H       1  LIG1        0.1655
      7 H           1.3097    0.4378   -2.8841 H       1  LIG1        0.0826
      8 N           1.9076    1.9890   -0.4438 N.pl3   1  LIG1       -0.3560
      9 H           2.3363    2.4734   -1.2205 H       1  LIG1        0.1424
     10 H           1.6258    2.6463    0.2737 H       1  LIG1        0.1424
     11 S          -0.3899    1.3237    1.7085 S.3     1  LIG1       -0.1388
     12 H          -1.7295    1.5336    1.6823 H       1  LIG1        0.1072
     13 C          -2.2577   -0.7598   -0.2579 C.ar    1  LIG1        0.0865
     14 C          -3.3878   -0.2137    0.3191 C.ar    1  LIG1        0.0657
     15 C          -4.3148   -1.2686    0.5414 C.ar    1  LIG1        0.0529
     16 C          -3.7396   -2.4383    0.0721 C.ar    1  LIG1        0.0804
     17 N          -2.5019   -2.1100   -0.4241 N.ar    1  LIG1       -0.3494
     18 H          -1.8506   -2.7582   -0.8342 H       1  LIG1        0.1661
     19 N          -3.5687    1.1379    0.6595 N.pl3   1  LIG1       -0.3554
     20 H          -3.2745    1.7602   -0.0852 H       1  LIG1        0.1424
     21 H          -4.5351    1.3277    0.9029 H       1  LIG1        0.1424
     22 S          -5.8677   -1.0714    1.3623 S.3     1  LIG1       -0.1388
     23 H          -6.5936   -1.8527    0.5235 H       1  LIG1        0.1072
     24 C          -4.2809   -3.7818    0.0338 C.ar    1  LIG1        0.0865
     25 C          -5.5149   -4.2198   -0.4053 C.ar    1  LIG1        0.0657
     26 C          -5.5798   -5.6237   -0.1918 C.ar    1  LIG1        0.0529
     27 C          -4.3704   -6.0196    0.3540 C.ar    1  LIG1        0.0804
     28 N          -3.5875   -4.8972    0.4662 N.ar    1  LIG1       -0.3494
     29 H          -2.6593   -4.8782    0.8550 H       1  LIG1        0.1661
     30 N          -6.5363   -3.4108   -0.9335 N.pl3   1  LIG1       -0.3554
     31 H          -6.1869   -2.7640   -1.6320 H       1  LIG1        0.1424
     32 H          -7.2792   -3.9748   -1.3329 H       1  LIG1        0.1424
     33 S          -7.0064   -6.6157   -0.5127 S.3     1  LIG1       -0.1388
     34 H          -6.3414   -7.6628   -1.0652 H       1  LIG1        0.1072
     35 C          -3.9119   -7.3429    0.7296 C.ar    1  LIG1        0.0860
     36 C          -3.9729   -8.5335    0.0366 C.ar    1  LIG1        0.0650
     37 C          -3.3986   -9.5422    0.8669 C.ar    1  LIG1        0.0434
     38 C          -3.0102   -8.9363    2.0401 C.ar    1  LIG1        0.0173
     39 N          -3.2935   -7.6116    1.9415 N.ar    1  LIG1       -0.3570
     40 H          -3.2511   -6.9543    2.7035 H       1  LIG1        0.1655
     41 H          -2.5559   -9.3631    2.9206 H       1  LIG1        0.0819
     42 N          -4.5198   -8.7169   -1.2450 N.pl3   1  LIG1       -0.3554
     43 H          -4.1107   -8.1014   -1.9387 H       1  LIG1        0.1424
     44 H          -4.4326   -9.6827   -1.5427 H       1  LIG1        0.1424
     45 S          -3.2685  -11.2583    0.4712 S.3     1  LIG1       -0.1394
     46 H          -2.0595  -11.2421   -0.1246 H       1  LIG1        0.1072
@<TRIPOS>BOND
     1     7     1    1
     2     6     5    1
     3     1     5   ar
     4     1     2   ar
     5    43    42    1
     6     5     4   ar
     7    31    30    1
     8    44    42    1
     9    32    30    1
    10    42    36    1
    11     9     8    1
    12    34    33    1
    13    30    25    1
    14    18    17    1
    15     2     8    1
    16     2     3   ar
    17     4    13    1
    18     4     3   ar
    19    33    26    1
    20     8    10    1
    21    17    13   ar
    22    17    16   ar
    23    25    26   ar
    24    25    24   ar
    25    13    14   ar
    26    26    27   ar
    27    46    45    1
    28    20    19    1
    29     3    11    1
    30    24    16    1
    31    24    28   ar
    32    36    35   ar
    33    36    37   ar
    34    16    15   ar
    35    14    15   ar
    36    14    19    1
    37    27    28   ar
    38    27    35    1
    39    28    29    1
    40    45    37    1
    41    23    22    1
    42    15    22    1
    43    19    21    1
    44    35    39   ar
    45    37    38   ar
    46    12    11    1
    47    39    38   ar
    48    39    40    1
    49    38    41    1
