@<TRIPOS>MOLECULE
mol_data/opt/cam/geoms/mol2/13hh13hh-13hh13hh-.out
 50 53 0 0 0
SMALL
GASTEIGER

@<TRIPOS>ATOM
      1 C           1.3195   -0.2803   -0.0812 C.ar    1  LIG1        0.0249
      2 C           0.9233    1.0330   -0.1899 C.ar    1  LIG1        0.0637
      3 C          -0.4995    1.0418   -0.2464 C.ar    1  LIG1        0.0726
      4 C          -0.9226   -0.2716   -0.1668 C.ar    1  LIG1        0.0875
      5 N           0.1893   -1.0597   -0.0705 N.ar    1  LIG1       -0.3564
      6 H           0.1089   -2.0639    0.0252 H       1  LIG1        0.1655
      7 H           2.3064   -0.7116   -0.0082 H       1  LIG1        0.0826
      8 N           1.7103    2.2097   -0.1774 N.pl3   1  LIG1       -0.3554
      9 H           2.6854    2.0059    0.0047 H       1  LIG1        0.1424
     10 H           1.6536    2.7084   -1.0597 H       1  LIG1        0.1424
     11 N          -1.3610    2.1743   -0.3255 N.pl3   1  LIG1       -0.3549
     12 H          -0.9658    2.9382    0.2158 H       1  LIG1        0.1424
     13 H          -1.4565    2.5072   -1.2813 H       1  LIG1        0.1424
     14 C          -2.2504   -0.8360   -0.1345 C.ar    1  LIG1        0.0880
     15 C          -2.6535   -2.1589   -0.0776 C.ar    1  LIG1        0.0733
     16 C          -4.0753   -2.1676   -0.0289 C.ar    1  LIG1        0.0733
     17 C          -4.4953   -0.8485   -0.0631 C.ar    1  LIG1        0.0880
     18 N          -3.3754   -0.0612   -0.1216 N.ar    1  LIG1       -0.3488
     19 H          -3.3789    0.9539   -0.1482 H       1  LIG1        0.1661
     20 N          -1.7541   -3.2722   -0.0722 N.pl3   1  LIG1       -0.3548
     21 H          -2.0122   -3.9448    0.6437 H       1  LIG1        0.1424
     22 H          -1.7658   -3.7648   -0.9616 H       1  LIG1        0.1424
     23 N          -4.9532   -3.2878    0.0439 N.pl3   1  LIG1       -0.3548
     24 H          -4.5885   -4.0776   -0.4775 H       1  LIG1        0.1424
     25 H          -5.1003   -3.5951    1.0012 H       1  LIG1        0.1424
     26 C          -5.8268   -0.2930   -0.0626 C.ar    1  LIG1        0.0880
     27 C          -6.2466    1.0261   -0.0289 C.ar    1  LIG1        0.0733
     28 C          -7.6684    1.0175   -0.0766 C.ar    1  LIG1        0.0733
     29 C          -8.0717   -0.3055   -0.1322 C.ar    1  LIG1        0.0880
     30 N          -6.9467   -1.0803   -0.1197 N.ar    1  LIG1       -0.3488
     31 H          -6.9431   -2.0955   -0.1446 H       1  LIG1        0.1661
     32 N          -5.3690    2.1465    0.0422 N.pl3   1  LIG1       -0.3548
     33 H          -5.7369    2.9376   -0.4750 H       1  LIG1        0.1424
     34 H          -5.2167    2.4511    0.9996 H       1  LIG1        0.1424
     35 N          -8.5677    2.1309   -0.0713 N.pl3   1  LIG1       -0.3548
     36 H          -8.3079    2.8049    0.6428 H       1  LIG1        0.1424
     37 H          -8.5583    2.6217   -0.9617 H       1  LIG1        0.1424
     38 C          -9.3996   -0.8697   -0.1626 C.ar    1  LIG1        0.0875
     39 C          -9.8230   -2.1831   -0.2408 C.ar    1  LIG1        0.0726
     40 C         -11.2457   -2.1741   -0.1824 C.ar    1  LIG1        0.0637
     41 C         -11.6416   -0.8606   -0.0742 C.ar    1  LIG1        0.0249
     42 N         -10.5113   -0.0814   -0.0656 N.ar    1  LIG1       -0.3564
     43 H         -10.4306    0.9228    0.0299 H       1  LIG1        0.1655
     44 H         -12.6283   -0.4291   -0.0003 H       1  LIG1        0.0826
     45 N          -8.9618   -3.3158   -0.3201 N.pl3   1  LIG1       -0.3549
     46 H          -9.3568   -4.0794    0.2217 H       1  LIG1        0.1424
     47 H          -8.8671   -3.6490   -1.2758 H       1  LIG1        0.1424
     48 N         -12.0329   -3.3507   -0.1683 N.pl3   1  LIG1       -0.3554
     49 H         -13.0076   -3.1466    0.0152 H       1  LIG1        0.1424
     50 H         -11.9776   -3.8497   -1.0503 H       1  LIG1        0.1424
@<TRIPOS>BOND
     1    13    11    1
     2    47    45    1
     3    10     8    1
     4    50    48    1
     5    37    35    1
     6    22    20    1
     7    24    23    1
     8    33    32    1
     9    11     3    1
    10    11    12    1
    11    45    39    1
    12    45    46    1
    13     3     2   ar
    14     3     4   ar
    15    39    40   ar
    16    39    38   ar
    17     2     8    1
    18     2     1   ar
    19    40    48    1
    20    40    41   ar
    21     8     9    1
    22    48    49    1
    23     4    14    1
    24     4     5   ar
    25    38    29    1
    26    38    42   ar
    27    19    18    1
    28    31    30    1
    29    14    18   ar
    30    14    15   ar
    31    29    30   ar
    32    29    28   ar
    33    18    17   ar
    34    30    26   ar
    35     1     5   ar
    36     1     7    1
    37    15    20    1
    38    15    16   ar
    39    28    35    1
    40    28    27   ar
    41    41    42   ar
    42    41    44    1
    43    20    21    1
    44    35    36    1
    45     5     6    1
    46    42    43    1
    47    17    26    1
    48    17    16   ar
    49    26    27   ar
    50    27    32    1
    51    16    23    1
    52    32    34    1
    53    23    25    1
