@<TRIPOS>MOLECULE
mol_data/opt/cam/geoms/mol2/13hh13hh-13hh-13hh-.out
 50 53 0 0 0
SMALL
GASTEIGER

@<TRIPOS>ATOM
      1 C           1.3214   -0.2122   -0.3306 C.ar    1  LIG1        0.0249
      2 C           0.8611    1.0124   -0.7584 C.ar    1  LIG1        0.0637
      3 C          -0.5615    0.9527   -0.7492 C.ar    1  LIG1        0.0726
      4 C          -0.9178   -0.3085   -0.3092 C.ar    1  LIG1        0.0875
      5 N           0.2293   -1.0006   -0.0581 N.ar    1  LIG1       -0.3564
      6 H           0.1983   -1.9556    0.2762 H       1  LIG1        0.1655
      7 H           2.3293   -0.5723   -0.1916 H       1  LIG1        0.0826
      8 N           1.5965    2.1756   -1.0821 N.pl3   1  LIG1       -0.3554
      9 H           2.5921    2.0363   -0.9614 H       1  LIG1        0.1424
     10 H           1.4335    2.4716   -2.0387 H       1  LIG1        0.1424
     11 N          -1.4925    1.9826   -1.0949 N.pl3   1  LIG1       -0.3549
     12 H          -1.2061    2.8593   -0.6664 H       1  LIG1        0.1424
     13 H          -1.5040    2.1447   -2.0991 H       1  LIG1        0.1424
     14 C          -2.2195   -0.8863   -0.0876 C.ar    1  LIG1        0.0880
     15 C          -2.5836   -2.1694    0.2782 C.ar    1  LIG1        0.0733
     16 C          -4.0043   -2.2137    0.3444 C.ar    1  LIG1        0.0733
     17 C          -4.4703   -0.9497    0.0110 C.ar    1  LIG1        0.0880
     18 N          -3.3577   -0.1568   -0.2365 N.ar    1  LIG1       -0.3488
     19 H          -3.3215    0.7854   -0.6049 H       1  LIG1        0.1661
     20 N          -1.6526   -3.2172    0.5633 N.pl3   1  LIG1       -0.3548
     21 H          -1.8316   -3.6185    1.4800 H       1  LIG1        0.1424
     22 H          -1.7207   -3.9739   -0.1125 H       1  LIG1        0.1424
     23 N          -4.7568   -3.3112    0.7639 N.pl3   1  LIG1       -0.3548
     24 H          -5.7082   -3.2721    0.3941 H       1  LIG1        0.1424
     25 H          -4.3094   -4.1887    0.5304 H       1  LIG1        0.1424
     26 C          -5.8078   -0.4013   -0.0138 C.ar    1  LIG1        0.0880
     27 C          -7.0427   -0.9780   -0.2666 C.ar    1  LIG1        0.0733
     28 C          -8.0351    0.0397   -0.1809 C.ar    1  LIG1        0.0733
     29 C          -7.3914    1.2251    0.1183 C.ar    1  LIG1        0.0880
     30 N          -6.0359    0.9322    0.2100 N.ar    1  LIG1       -0.3488
     31 H          -5.3193    1.6028    0.4286 H       1  LIG1        0.1661
     32 N          -7.2802   -2.3582   -0.5395 N.pl3   1  LIG1       -0.3548
     33 H          -8.1458   -2.6596   -0.1017 H       1  LIG1        0.1424
     34 H          -7.3502   -2.5505   -1.5351 H       1  LIG1        0.1424
     35 N          -9.4134   -0.1798   -0.2986 N.pl3   1  LIG1       -0.3548
     36 H          -9.9265    0.6739   -0.5130 H       1  LIG1        0.1424
     37 H          -9.6206   -0.8843   -0.9965 H       1  LIG1        0.1424
     38 C          -7.9341    2.5419    0.3643 C.ar    1  LIG1        0.0875
     39 C          -8.9976    3.1879   -0.2269 C.ar    1  LIG1        0.0726
     40 C          -9.1580    4.4506    0.4096 C.ar    1  LIG1        0.0637
     41 C          -8.1784    4.5528    1.3678 C.ar    1  LIG1        0.0249
     42 N          -7.4192    3.4111    1.3127 N.ar    1  LIG1       -0.3564
     43 H          -6.7761    3.1235    2.0311 H       1  LIG1        0.1655
     44 H          -7.9495    5.3513    2.0574 H       1  LIG1        0.0826
     45 N          -9.8097    2.7053   -1.2774 N.pl3   1  LIG1       -0.3549
     46 H         -10.4104    3.4633   -1.5910 H       1  LIG1        0.1424
     47 H          -9.2440    2.3937   -2.0614 H       1  LIG1        0.1424
     48 N         -10.1522    5.3836    0.0001 N.pl3   1  LIG1       -0.3554
     49 H         -10.9871    5.3178    0.5740 H       1  LIG1        0.1424
     50 H          -9.8160    6.3379    0.0537 H       1  LIG1        0.1424
@<TRIPOS>BOND
     1    13    11    1
     2    47    45    1
     3    10     8    1
     4    46    45    1
     5    34    32    1
     6    45    39    1
     7    11     3    1
     8    11    12    1
     9     8     9    1
    10     8     2    1
    11    37    35    1
    12     2     3   ar
    13     2     1   ar
    14     3     4   ar
    15    19    18    1
    16    32    27    1
    17    32    33    1
    18    36    35    1
    19     1     7    1
    20     1     5   ar
    21     4    14    1
    22     4     5   ar
    23    35    28    1
    24    27    28   ar
    25    27    26   ar
    26    18    14   ar
    27    18    17   ar
    28    39    38   ar
    29    39    40   ar
    30    28    29   ar
    31    22    20    1
    32    14    15   ar
    33     5     6    1
    34    26    17    1
    35    26    30   ar
    36    48    50    1
    37    48    40    1
    38    48    49    1
    39    17    16   ar
    40    29    30   ar
    41    29    38    1
    42    30    31    1
    43    15    16   ar
    44    15    20    1
    45    16    23    1
    46    38    42   ar
    47    24    23    1
    48    40    41   ar
    49    25    23    1
    50    20    21    1
    51    42    41   ar
    52    42    43    1
    53    41    44    1
