@<TRIPOS>MOLECULE
mol_data/opt/cam/geoms/mol2/13hh.out
 14 14 0 0 0
SMALL
GASTEIGER

@<TRIPOS>ATOM
      1 C           1.0946   -0.3820   -0.2527 C.ar    1  LIG1        0.0244
      2 C           0.6642    0.9228   -0.2179 C.ar    1  LIG1        0.0631
      3 C          -0.7444    0.9040   -0.0006 C.ar    1  LIG1        0.0631
      4 C          -1.1267   -0.4113    0.0906 C.ar    1  LIG1        0.0244
      5 N           0.0017   -1.1863   -0.0749 N.ar    1  LIG1       -0.3639
      6 H           0.0169   -2.1901   -0.0666 H       1  LIG1        0.1649
      7 H          -2.0967   -0.8542    0.2539 H       1  LIG1        0.0826
      8 H           2.0819   -0.7910   -0.4054 H       1  LIG1        0.0826
      9 N           1.3820    2.1308   -0.4098 N.pl3   1  LIG1       -0.3554
     10 H           1.5224    2.6241    0.4667 H       1  LIG1        0.1424
     11 H           2.2894    1.9688   -0.8290 H       1  LIG1        0.1424
     12 N          -1.5083    2.0755    0.1300 N.pl3   1  LIG1       -0.3554
     13 H          -1.0889    2.8189   -0.4190 H       1  LIG1        0.1424
     14 H          -2.4728    1.9494   -0.1483 H       1  LIG1        0.1424
@<TRIPOS>BOND
     1    11     9    1
     2    13    12    1
     3     9     2    1
     4     9    10    1
     5     8     1    1
     6     1     2   ar
     7     1     5   ar
     8     2     3   ar
     9    14    12    1
    10     5     6    1
    11     5     4   ar
    12     3     4   ar
    13     3    12    1
    14     4     7    1
