@<TRIPOS>MOLECULE
mol_data/opt/cam/geoms/mol2/13hh13hh13hh13hh-.out
 50 53 0 0 0
SMALL
GASTEIGER

@<TRIPOS>ATOM
      1 C           0.8891    0.1693    1.3649 C.ar    1  LIG1        0.0249
      2 C           0.7484    1.1426    0.4053 C.ar    1  LIG1        0.0637
      3 C          -0.5065    0.9309   -0.2317 C.ar    1  LIG1        0.0726
      4 C          -1.1097   -0.1568    0.3606 C.ar    1  LIG1        0.0875
      5 N          -0.2211   -0.6351    1.3102 N.ar    1  LIG1       -0.3564
      6 H          -0.4832   -1.2882    2.0293 H       1  LIG1        0.1655
      7 H           1.6957   -0.0265    2.0552 H       1  LIG1        0.0826
      8 N           1.6411    2.1729   -0.0051 N.pl3   1  LIG1       -0.3554
      9 H           1.5415    3.0053    0.5675 H       1  LIG1        0.1424
     10 H           2.6080    1.8753    0.0495 H       1  LIG1        0.1424
     11 N          -1.0206    1.7216   -1.2837 N.pl3   1  LIG1       -0.3549
     12 H          -0.2871    2.3517   -1.5976 H       1  LIG1        0.1424
     13 H          -1.3087    1.1428   -2.0671 H       1  LIG1        0.1424
     14 C          -2.4035   -0.7522    0.1146 C.ar    1  LIG1        0.0880
     15 C          -3.6135   -0.1570   -0.1862 C.ar    1  LIG1        0.0733
     16 C          -4.5906   -1.1896   -0.2711 C.ar    1  LIG1        0.0733
     17 C          -3.9650   -2.4000   -0.0161 C.ar    1  LIG1        0.0880
     18 N          -2.6419   -2.1183    0.2081 N.ar    1  LIG1       -0.3488
     19 H          -1.9432   -2.8071    0.4280 H       1  LIG1        0.1661
     20 N          -3.8881    1.2112   -0.3061 N.pl3   1  LIG1       -0.3548
     21 H          -3.0555    1.7578   -0.5207 H       1  LIG1        0.1424
     22 H          -4.5999    1.3889   -1.0048 H       1  LIG1        0.1424
     23 N          -5.9791   -1.0080   -0.5451 N.pl3   1  LIG1       -0.3548
     24 H          -6.3152   -0.1545   -0.1088 H       1  LIG1        0.1424
     25 H          -6.1734   -0.9473   -1.5409 H       1  LIG1        0.1424
     26 C          -4.4593   -3.7584    0.0103 C.ar    1  LIG1        0.0880
     27 C          -5.7039   -4.2742    0.3437 C.ar    1  LIG1        0.0733
     28 C          -5.6026   -5.6921    0.2796 C.ar    1  LIG1        0.0733
     29 C          -4.3057   -6.0050   -0.0850 C.ar    1  LIG1        0.0880
     30 N          -3.6223   -4.8386   -0.2351 N.ar    1  LIG1       -0.3488
     31 H          -2.6792   -4.8376   -0.6029 H       1  LIG1        0.1661
     32 N          -6.8309   -3.5657    0.7615 N.pl3   1  LIG1       -0.3548
     33 H          -6.8298   -2.6140    0.3904 H       1  LIG1        0.1424
     34 H          -7.6896   -4.0482    0.5282 H       1  LIG1        0.1424
     35 N          -6.6124   -6.6639    0.5656 N.pl3   1  LIG1       -0.3548
     36 H          -7.0211   -6.4998    1.4817 H       1  LIG1        0.1424
     37 H          -7.3708   -6.6272   -0.1108 H       1  LIG1        0.1424
     38 C          -3.6761   -7.2828   -0.3043 C.ar    1  LIG1        0.0875
     39 C          -2.4012   -7.5889   -0.7430 C.ar    1  LIG1        0.0726
     40 C          -2.2846   -9.0080   -0.7502 C.ar    1  LIG1        0.0637
     41 C          -3.4901   -9.5163   -0.3224 C.ar    1  LIG1        0.0249
     42 N          -4.3218   -8.4563   -0.0519 N.ar    1  LIG1       -0.3564
     43 H          -5.2774   -8.4632    0.2818 H       1  LIG1        0.1655
     44 H          -3.8095  -10.5377   -0.1822 H       1  LIG1        0.0826
     45 N          -1.4093   -6.6178   -1.0896 N.pl3   1  LIG1       -0.3549
     46 H          -0.5221   -6.8682   -0.6601 H       1  LIG1        0.1424
     47 H          -1.2473   -6.6012   -2.0937 H       1  LIG1        0.1424
     48 N          -1.0926   -9.6966   -1.0721 N.pl3   1  LIG1       -0.3554
     49 H          -1.1920  -10.6968   -0.9500 H       1  LIG1        0.1424
     50 H          -0.8028   -9.5233   -2.0288 H       1  LIG1        0.1424
@<TRIPOS>BOND
     1    47    45    1
     2    13    11    1
     3    50    48    1
     4    12    11    1
     5    25    23    1
     6    11     3    1
     7    45    39    1
     8    45    46    1
     9    48    49    1
    10    48    40    1
    11    22    20    1
    12    40    39   ar
    13    40    41   ar
    14    39    38   ar
    15    31    30    1
    16    23    16    1
    17    23    24    1
    18    21    20    1
    19    41    44    1
    20    41    42   ar
    21    20    15    1
    22    38    29    1
    23    38    42   ar
    24    16    15   ar
    25    16    17   ar
    26    30    29   ar
    27    30    26   ar
    28     3     4   ar
    29     3     2   ar
    30    15    14   ar
    31    37    35    1
    32    29    28   ar
    33    42    43    1
    34    17    26    1
    35    17    18   ar
    36     8    10    1
    37     8     2    1
    38     8     9    1
    39    26    27   ar
    40    14    18   ar
    41    14     4    1
    42    18    19    1
    43    28    27   ar
    44    28    35    1
    45    27    32    1
    46     4     5   ar
    47    33    32    1
    48     2     1   ar
    49    34    32    1
    50    35    36    1
    51     5     1   ar
    52     5     6    1
    53     1     7    1
