@<TRIPOS>MOLECULE
mol_data/opt/cam/geoms/mol2/13hh12al-13ea12le.out
 48 51 0 0 0
SMALL
GASTEIGER

@<TRIPOS>ATOM
      1 C           1.1094   -0.0226    0.9526 C.ar    1  LIG1        0.0249
      2 C           0.8324    1.2055    0.3914 C.ar    1  LIG1        0.0638
      3 C          -0.5136    1.1709   -0.0622 C.ar    1  LIG1        0.0742
      4 C          -1.0205   -0.0795    0.2421 C.ar    1  LIG1        0.1050
      5 N          -0.0045   -0.8002    0.8413 N.ar    1  LIG1       -0.3551
      6 H          -0.1153   -1.7370    1.1889 H       1  LIG1        0.1655
      7 H           2.0181   -0.3965    1.3999 H       1  LIG1        0.0826
      8 N           1.6639    2.3398    0.1962 N.pl3   1  LIG1       -0.3554
      9 H           1.6106    2.9894    0.9744 H       1  LIG1        0.1424
     10 H           2.6348    2.0827    0.0668 H       1  LIG1        0.1424
     11 N          -1.1637    2.2376   -0.6863 N.pl3   1  LIG1       -0.3548
     12 H          -0.4763    2.9057   -1.0203 H       1  LIG1        0.1424
     13 H          -1.7639    1.9402   -1.4469 H       1  LIG1        0.1424
     14 C          -2.3260   -0.6267    0.0181 C.ar    1  LIG1        0.1573
     15 C          -3.5291   -0.0572   -0.2920 C.ar    1  LIG1        0.0282
     16 C          -4.4619   -1.1344   -0.3841 C.ar    1  LIG1        0.1678
     17 C          -3.7861   -2.2918   -0.1033 C.ar    1  LIG1        0.1944
     18 O          -2.4604   -1.9733    0.1299 O.2     1  LIG1       -0.4480
     19 H          -3.7182    0.9999   -0.3890 H       1  LIG1        0.0693
     20 O          -5.7661   -1.0910   -0.7147 O.3     1  LIG1       -0.4912
     21 C          -6.3257    0.1922   -0.8991 C.3     1  LIG1        0.0790
     22 H          -7.3765    0.0347   -1.1399 H       1  LIG1        0.0660
     23 H          -6.2501    0.7974    0.0116 H       1  LIG1        0.0660
     24 H          -5.8423    0.7260   -1.7260 H       1  LIG1        0.0660
     25 C          -4.1113   -3.6912   -0.0673 C.ar    1  LIG1        0.1019
     26 C          -5.2947   -4.3925    0.1658 C.ar    1  LIG1        0.0537
     27 C          -4.9872   -5.7790    0.0652 C.ar    1  LIG1       -0.0171
     28 C          -3.6445   -5.8906   -0.2063 C.ar    1  LIG1        0.0875
     29 N          -3.1292   -4.6196   -0.2832 N.ar    1  LIG1       -0.3482
     30 H          -2.1711   -4.3947   -0.4963 H       1  LIG1        0.1661
     31 C          -6.5657   -3.8595    0.5091 C.1     1  LIG1       -0.0674
     32 C          -7.6555   -3.4537    0.8232 C.1     1  LIG1       -0.1138
     33 H          -8.6153   -3.0828    1.0970 H       1  LIG1        0.1232
     34 H          -5.6770   -6.5993    0.1840 H       1  LIG1        0.0652
     35 C          -2.8067   -7.0465   -0.3855 C.ar    1  LIG1        0.1935
     36 C          -3.0345   -8.3880   -0.3153 C.ar    1  LIG1        0.1825
     37 C          -1.7833   -9.0424   -0.6166 C.ar    1  LIG1        0.1047
     38 C          -0.8973   -8.0347   -0.8472 C.ar    1  LIG1        0.1117
     39 O          -1.4968   -6.8298   -0.7182 O.2     1  LIG1       -0.4564
     40 H           0.1486   -8.0311   -1.1074 H       1  LIG1        0.1043
     41 O          -4.2374   -8.9594   -0.0636 O.3     1  LIG1       -0.4901
     42 C          -4.2846   -9.7634    1.1120 C.3     1  LIG1        0.0790
     43 H          -5.3032  -10.1452    1.1814 H       1  LIG1        0.0660
     44 H          -3.5855  -10.6018    1.0470 H       1  LIG1        0.0660
     45 H          -4.0568   -9.1656    2.0011 H       1  LIG1        0.0660
     46 C          -1.5249  -10.4375   -0.6907 C.1     1  LIG1       -0.0628
     47 C          -1.3087  -11.6202   -0.7501 C.1     1  LIG1       -0.1137
     48 H          -1.1181  -12.6666   -0.8150 H       1  LIG1        0.1232
@<TRIPOS>BOND
     1    24    21    1
     2    13    11    1
     3    22    21    1
     4    40    38    1
     5    12    11    1
     6    21    20    1
     7    21    23    1
     8    38    39   ar
     9    38    37   ar
    10    48    47    1
    11    47    46    3
    12    39    35   ar
    13    20    16    1
    14    46    37    1
    15    11     3    1
    16    37    36   ar
    17    30    29    1
    18    19    15    1
    19    35    36   ar
    20    35    28    1
    21    16    15   ar
    22    16    17   ar
    23    36    41    1
    24    15    14   ar
    25    29    28   ar
    26    29    25   ar
    27    28    27   ar
    28    17    25    1
    29    17    18   ar
    30    25    26   ar
    31    41    42    1
    32     3     4   ar
    33     3     2   ar
    34    14    18   ar
    35    14     4    1
    36    27    26   ar
    37    27    34    1
    38    10     8    1
    39    26    31    1
    40     8     2    1
    41     8     9    1
    42     4     5   ar
    43     2     1   ar
    44    31    32    3
    45    32    33    1
    46     5     1   ar
    47     5     6    1
    48     1     7    1
    49    44    42    1
    50    42    43    1
    51    42    45    1
