@<TRIPOS>MOLECULE
mol_data/opt/cam/geoms/mol2/13hh13hh13hh.out
 38 40 0 0 0
SMALL
GASTEIGER

@<TRIPOS>ATOM
      1 C           1.1416   -0.1802   -1.0865 C.ar    1  LIG1        0.0249
      2 C           0.9114    0.9925   -0.4220 C.ar    1  LIG1        0.0637
      3 C          -0.4554    0.9941    0.0018 C.ar    1  LIG1        0.0726
      4 C          -1.0168   -0.1913   -0.4176 C.ar    1  LIG1        0.0875
      5 N          -0.0168   -0.9354   -1.0497 N.ar    1  LIG1       -0.3564
      6 H          -0.2532   -1.5632   -1.8032 H       1  LIG1        0.1655
      7 H           2.0360   -0.5473   -1.5671 H       1  LIG1        0.0826
      8 N           1.7734    2.0754   -0.1532 N.pl3   1  LIG1       -0.3554
      9 H           1.8357    2.2553    0.8442 H       1  LIG1        0.1424
     10 H           2.7068    1.9239   -0.5142 H       1  LIG1        0.1424
     11 N          -1.0145    2.0042    0.7835 N.pl3   1  LIG1       -0.3549
     12 H          -0.6221    2.9052    0.5334 H       1  LIG1        0.1424
     13 H          -2.0320    2.0113    0.7000 H       1  LIG1        0.1424
     14 C          -2.3378   -0.7475   -0.2249 C.ar    1  LIG1        0.0880
     15 C          -3.5801   -0.1577   -0.0608 C.ar    1  LIG1        0.0733
     16 C          -4.5489   -1.1942    0.0665 C.ar    1  LIG1        0.0733
     17 C          -3.8827   -2.4018   -0.0247 C.ar    1  LIG1        0.0880
     18 N          -2.5387   -2.1036   -0.2163 N.ar    1  LIG1       -0.3488
     19 H          -1.7962   -2.7801   -0.2589 H       1  LIG1        0.1661
     20 N          -3.8355    1.2437    0.0019 N.pl3   1  LIG1       -0.3548
     21 H          -4.1139    1.6311   -0.8953 H       1  LIG1        0.1424
     22 H          -4.5736    1.4391    0.6714 H       1  LIG1        0.1424
     23 N          -5.9096   -0.9855    0.3222 N.pl3   1  LIG1       -0.3548
     24 H          -6.2581   -0.1641   -0.1574 H       1  LIG1        0.1424
     25 H          -6.4809   -1.7926    0.0775 H       1  LIG1        0.1424
     26 C          -4.3865   -3.7516    0.0926 C.ar    1  LIG1        0.0875
     27 C          -5.5752   -4.2948   -0.3420 C.ar    1  LIG1        0.0726
     28 C          -5.6170   -5.6564    0.0704 C.ar    1  LIG1        0.0637
     29 C          -4.4445   -5.9176    0.7369 C.ar    1  LIG1        0.0249
     30 N          -3.6873   -4.7731    0.7162 N.ar    1  LIG1       -0.3564
     31 H          -2.8934   -4.6109    1.3127 H       1  LIG1        0.1655
     32 H          -4.0832   -6.8263    1.1944 H       1  LIG1        0.0826
     33 N          -6.5974   -3.6406   -1.0647 N.pl3   1  LIG1       -0.3549
     34 H          -6.2233   -3.1713   -1.8840 H       1  LIG1        0.1424
     35 H          -7.2717   -4.3381   -1.3687 H       1  LIG1        0.1424
     36 N          -6.7031   -6.5142   -0.2616 N.pl3   1  LIG1       -0.3554
     37 H          -6.3909   -7.4592   -0.4512 H       1  LIG1        0.1424
     38 H          -7.3878   -6.5591    0.4868 H       1  LIG1        0.1424
@<TRIPOS>BOND
     1    34    33    1
     2     6     5    1
     3     7     1    1
     4    35    33    1
     5     1     5   ar
     6     1     2   ar
     7    33    27    1
     8     5     4   ar
     9    21    20    1
    10    10     8    1
    11    37    36    1
    12     2     8    1
    13     2     3   ar
    14     4    14    1
    15     4     3   ar
    16    27    28   ar
    17    27    26   ar
    18    36    28    1
    19    36    38    1
    20    19    18    1
    21    14    18   ar
    22    14    15   ar
    23    18    17   ar
    24    24    23    1
    25     8     9    1
    26    15    20    1
    27    15    16   ar
    28    17    16   ar
    29    17    26    1
    30     3    11    1
    31    20    22    1
    32    16    23    1
    33    28    29   ar
    34    25    23    1
    35    26    30   ar
    36    12    11    1
    37    13    11    1
    38    30    29   ar
    39    30    31    1
    40    29    32    1
