@<TRIPOS>MOLECULE
mol_data/opt/cam/geoms/mol2/13hh13hh.out
 26 27 0 0 0
SMALL
GASTEIGER

@<TRIPOS>ATOM
      1 C           1.1958   -0.2686   -0.6537 C.ar    1  LIG1        0.0249
      2 C           0.8315    0.9732   -0.2059 C.ar    1  LIG1        0.0637
      3 C          -0.5717    0.9440    0.0643 C.ar    1  LIG1        0.0726
      4 C          -1.0210   -0.3247   -0.2318 C.ar    1  LIG1        0.0875
      5 N           0.0776   -1.0788   -0.6343 N.ar    1  LIG1       -0.3564
      6 H          -0.0291   -1.8711   -1.2475 H       1  LIG1        0.1655
      7 H           2.1592   -0.6451   -0.9626 H       1  LIG1        0.0826
      8 N           1.6046    2.1382   -0.0153 N.pl3   1  LIG1       -0.3554
      9 H           1.5653    2.4499    0.9504 H       1  LIG1        0.1424
     10 H           2.5746    2.0010   -0.2704 H       1  LIG1        0.1424
     11 N          -1.2693    2.0142    0.6337 N.pl3   1  LIG1       -0.3549
     12 H          -0.9004    2.8974    0.2989 H       1  LIG1        0.1424
     13 H          -2.2725    1.9612    0.4658 H       1  LIG1        0.1424
     14 C          -2.3473   -0.8891   -0.1210 C.ar    1  LIG1        0.0875
     15 C          -3.5822   -0.3100   -0.3156 C.ar    1  LIG1        0.0726
     16 C          -4.5763   -1.2889   -0.0350 C.ar    1  LIG1        0.0637
     17 C          -3.9234   -2.4482    0.3110 C.ar    1  LIG1        0.0249
     18 N          -2.5759   -2.2098    0.2233 N.ar    1  LIG1       -0.3564
     19 H          -1.8588   -2.8107    0.5930 H       1  LIG1        0.1655
     20 H          -4.3103   -3.4184    0.5841 H       1  LIG1        0.0826
     21 N          -3.8479    1.0179   -0.7159 N.pl3   1  LIG1       -0.3549
     22 H          -3.3321    1.2582   -1.5571 H       1  LIG1        0.1424
     23 H          -4.8424    1.1019   -0.9091 H       1  LIG1        0.1424
     24 N          -5.9665   -1.0183   -0.1781 N.pl3   1  LIG1       -0.3554
     25 H          -6.4707   -1.8206   -0.5365 H       1  LIG1        0.1424
     26 H          -6.3910   -0.7561    0.7061 H       1  LIG1        0.1424
@<TRIPOS>BOND
     1    22    21    1
     2     6     5    1
     3     7     1    1
     4    23    21    1
     5    21    15    1
     6     1     5   ar
     7     1     2   ar
     8     5     4   ar
     9    25    24    1
    10    15    14   ar
    11    15    16   ar
    12    10     8    1
    13     4    14    1
    14     4     3   ar
    15     2     8    1
    16     2     3   ar
    17    24    16    1
    18    24    26    1
    19    14    18   ar
    20    16    17   ar
    21     8     9    1
    22     3    11    1
    23    18    17   ar
    24    18    19    1
    25    12    11    1
    26    17    20    1
    27    13    11    1
