@<TRIPOS>MOLECULE
mol_data/opt/cam/geoms/mol2/13hh12el4de4hh-.out
 54 57 0 0 0
SMALL
GASTEIGER

@<TRIPOS>ATOM
      1 C           0.6844    0.0180   -1.8960 C.ar    1  LIG1        0.0249
      2 C           0.7074    1.1454   -1.1062 C.ar    1  LIG1        0.0638
      3 C          -0.4568    1.1228   -0.2870 C.ar    1  LIG1        0.0742
      4 C          -1.1680   -0.0272   -0.6179 C.ar    1  LIG1        0.1062
      5 N          -0.4389   -0.6841   -1.6036 N.ar    1  LIG1       -0.3551
      6 H          -0.7468   -1.5336   -2.0441 H       1  LIG1        0.1655
      7 H           1.3810   -0.3170   -2.6503 H       1  LIG1        0.0826
      8 N           1.6431    2.2104   -1.0418 N.pl3   1  LIG1       -0.3554
      9 H           2.3723    2.0374   -0.3570 H       1  LIG1        0.1424
     10 H           2.0830    2.3887   -1.9362 H       1  LIG1        0.1424
     11 N          -0.6813    2.0678    0.6931 N.pl3   1  LIG1       -0.3548
     12 H          -0.1746    2.9228    0.4986 H       1  LIG1        0.1424
     13 H          -1.6458    2.2167    0.9549 H       1  LIG1        0.1424
     14 C          -2.3769   -0.6249   -0.1367 C.ar    1  LIG1        0.1726
     15 C          -3.5037   -0.1822    0.5290 C.ar    1  LIG1        0.1141
     16 C          -4.3497   -1.3440    0.6763 C.ar    1  LIG1        0.1817
     17 C          -3.7168   -2.3888    0.0695 C.ar    1  LIG1        0.1797
     18 O          -2.4999   -1.9477   -0.4046 O.2     1  LIG1       -0.4482
     19 C          -3.7860    1.1419    0.9488 C.1     1  LIG1       -0.0621
     20 C          -4.0394    2.2683    1.2998 C.1     1  LIG1       -0.1137
     21 H          -4.2836    3.2601    1.6039 H       1  LIG1        0.1232
     22 O          -5.4958   -1.4666    1.3707 O.3     1  LIG1       -0.4901
     23 C          -6.5305   -0.5165    1.1073 C.3     1  LIG1        0.0790
     24 H          -7.3894   -0.8479    1.6889 H       1  LIG1        0.0660
     25 H          -6.2315    0.4848    1.4201 H       1  LIG1        0.0660
     26 H          -6.7978   -0.5232    0.0483 H       1  LIG1        0.0660
     27 C          -5.2490   -4.3752   -0.2090 C.ar    1  LIG1        0.0632
     28 C          -5.4158   -5.7603   -0.2547 C.ar    1  LIG1       -0.0347
     29 C          -3.9674   -3.8170   -0.0323 C.ar    1  LIG1        0.0395
     30 C          -4.3417   -6.6407   -0.1626 C.ar    1  LIG1        0.0006
     31 H          -6.4133   -6.1625   -0.3877 H       1  LIG1        0.0637
     32 C          -2.8883   -4.6989    0.0294 C.ar    1  LIG1       -0.0337
     33 C          -3.0506   -6.0830   -0.0424 C.ar    1  LIG1        0.0332
     34 H          -1.8899   -4.2953    0.1431 H       1  LIG1        0.0637
     35 N          -7.3755   -2.9729   -0.6732 N.1     1  LIG1       -0.1908
     36 C          -6.4119   -3.5665   -0.4325 C.1     1  LIG1        0.0999
     37 C          -1.8718   -6.8978   -0.0030 C.1     1  LIG1       -0.0690
     38 C          -0.8508   -7.5348    0.0198 C.1     1  LIG1       -0.1139
     39 H           0.0451   -8.1115    0.0378 H       1  LIG1        0.1232
     40 C          -5.2956   -8.7168   -1.2234 C.ar    1  LIG1        0.0325
     41 C          -5.5205  -10.0925   -1.1535 C.ar    1  LIG1       -0.0387
     42 C          -4.5848   -8.1079   -0.1748 C.ar    1  LIG1        0.0057
     43 C          -5.0658  -10.8504   -0.0874 C.ar    1  LIG1       -0.0393
     44 H          -6.0671  -10.5782   -1.9572 H       1  LIG1        0.0637
     45 C          -4.1257   -8.8853    0.8888 C.ar    1  LIG1       -0.0315
     46 C          -4.3537  -10.2569    0.9559 C.ar    1  LIG1        0.0252
     47 H          -3.5835   -8.3977    1.6930 H       1  LIG1        0.0643
     48 H          -5.2668  -11.9178   -0.0638 H       1  LIG1        0.0636
     49 N          -5.8114   -7.9719   -2.2951 N.pl3   1  LIG1       -0.3575
     50 H          -5.2628   -7.1600   -2.5424 H       1  LIG1        0.1423
     51 H          -6.0163   -8.5312   -3.1111 H       1  LIG1        0.1423
     52 N          -3.9365  -11.0044    2.0662 N.pl3   1  LIG1       -0.3579
     53 H          -3.7874  -11.9841    1.8704 H       1  LIG1        0.1423
     54 H          -3.1434  -10.6104    2.5524 H       1  LIG1        0.1423
@<TRIPOS>BOND
     1    51    49    1
     2     7     1    1
     3    50    49    1
     4    49    40    1
     5     6     5    1
     6    44    41    1
     7    10     8    1
     8     1     5   ar
     9     1     2   ar
    10     5     4   ar
    11    40    41   ar
    12    40    42   ar
    13    41    43   ar
    14     2     8    1
    15     2     3   ar
    16     8     9    1
    17    35    36    3
    18     4     3   ar
    19     4    14    1
    20    36    27    1
    21    18    14   ar
    22    18    17   ar
    23    31    28    1
    24     3    11    1
    25    28    27   ar
    26    28    30   ar
    27    27    29   ar
    28    42    30    1
    29    42    45   ar
    30    30    33   ar
    31    14    15   ar
    32    43    48    1
    33    43    46   ar
    34    33    37    1
    35    33    32   ar
    36    29    32   ar
    37    29    17    1
    38    37    38    3
    39    38    39    1
    40    32    34    1
    41    26    23    1
    42    17    16   ar
    43    12    11    1
    44    15    16   ar
    45    15    19    1
    46    16    22    1
    47    11    13    1
    48    45    46   ar
    49    45    47    1
    50    19    20    3
    51    46    52    1
    52    23    22    1
    53    23    25    1
    54    23    24    1
    55    20    21    1
    56    53    52    1
    57    52    54    1
