@<TRIPOS>MOLECULE
mol_data/opt/cam/geoms/mol2/13hh13hh13hh13hh.out
 50 53 0 0 0
SMALL
GASTEIGER

@<TRIPOS>ATOM
      1 C           0.9519   -0.0734   -1.6762 C.ar    1  LIG1        0.0249
      2 C           0.8898    0.9964   -0.8273 C.ar    1  LIG1        0.0637
      3 C          -0.3887    0.9708   -0.1842 C.ar    1  LIG1        0.0726
      4 C          -1.0673   -0.1276   -0.6624 C.ar    1  LIG1        0.0875
      5 N          -0.2202   -0.7987   -1.5498 N.ar    1  LIG1       -0.3564
      6 H          -0.6080   -1.2934   -2.3393 H       1  LIG1        0.1655
      7 H           1.7375   -0.3890   -2.3463 H       1  LIG1        0.0826
      8 N           1.8348    2.0075   -0.5597 N.pl3   1  LIG1       -0.3554
      9 H           2.0607    2.0454    0.4295 H       1  LIG1        0.1424
     10 H           2.6918    1.8833   -1.0839 H       1  LIG1        0.1424
     11 N          -0.7634    1.8716    0.8116 N.pl3   1  LIG1       -0.3549
     12 H          -0.3752    2.7896    0.6250 H       1  LIG1        0.1424
     13 H          -1.7796    1.9151    0.9023 H       1  LIG1        0.1424
     14 C          -2.3645   -0.6716   -0.3270 C.ar    1  LIG1        0.0880
     15 C          -3.5353   -0.0780    0.1150 C.ar    1  LIG1        0.0733
     16 C          -4.5273   -1.0912    0.2437 C.ar    1  LIG1        0.0733
     17 C          -3.9460   -2.2928   -0.1189 C.ar    1  LIG1        0.0880
     18 N          -2.6284   -2.0086   -0.4651 N.ar    1  LIG1       -0.3488
     19 H          -1.9547   -2.6804   -0.7896 H       1  LIG1        0.1661
     20 N          -3.7061    1.3056    0.4154 N.pl3   1  LIG1       -0.3548
     21 H          -4.1086    1.8258   -0.3592 H       1  LIG1        0.1424
     22 H          -4.3146    1.4204    1.2203 H       1  LIG1        0.1424
     23 N          -5.8208   -0.8812    0.7262 N.pl3   1  LIG1       -0.3548
     24 H          -6.1797    0.0232    0.4445 H       1  LIG1        0.1424
     25 H          -6.4509   -1.6241    0.4187 H       1  LIG1        0.1424
     26 C          -4.4513   -3.6471   -0.0976 C.ar    1  LIG1        0.0880
     27 C          -5.7231   -4.1599   -0.2914 C.ar    1  LIG1        0.0733
     28 C          -5.6553   -5.5776   -0.1705 C.ar    1  LIG1        0.0733
     29 C          -4.3411   -5.9113    0.0938 C.ar    1  LIG1        0.0880
     30 N          -3.6217   -4.7205    0.1140 N.ar    1  LIG1       -0.3488
     31 H          -2.6585   -4.6454    0.3921 H       1  LIG1        0.1661
     32 N          -6.9007   -3.3946   -0.5383 N.pl3   1  LIG1       -0.3548
     33 H          -7.1078   -3.3040   -1.5291 H       1  LIG1        0.1424
     34 H          -7.7019   -3.8262   -0.0879 H       1  LIG1        0.1424
     35 N          -6.7599   -6.4355   -0.2362 N.pl3   1  LIG1       -0.3548
     36 H          -7.4341   -6.1251   -0.9258 H       1  LIG1        0.1424
     37 H          -6.4935   -7.3993   -0.4308 H       1  LIG1        0.1424
     38 C          -3.7449   -7.2029    0.3513 C.ar    1  LIG1        0.0875
     39 C          -4.0181   -8.4316   -0.2079 C.ar    1  LIG1        0.0726
     40 C          -3.1930   -9.4014    0.4281 C.ar    1  LIG1        0.0637
     41 C          -2.4239   -8.7393    1.3539 C.ar    1  LIG1        0.0249
     42 N          -2.7344   -7.4045    1.2790 N.ar    1  LIG1       -0.3564
     43 H          -2.4961   -6.7313    1.9880 H       1  LIG1        0.1655
     44 H          -1.6688   -9.1065    2.0325 H       1  LIG1        0.0826
     45 N          -4.9526   -8.7146   -1.2282 N.pl3   1  LIG1       -0.3549
     46 H          -4.8210   -8.0997   -2.0258 H       1  LIG1        0.1424
     47 H          -4.8159   -9.6754   -1.5310 H       1  LIG1        0.1424
     48 N          -3.2041  -10.7721    0.0448 N.pl3   1  LIG1       -0.3554
     49 H          -2.2792  -11.1829    0.0918 H       1  LIG1        0.1424
     50 H          -3.8174  -11.3225    0.6379 H       1  LIG1        0.1424
@<TRIPOS>BOND
     1     7     1    1
     2     6     5    1
     3    46    45    1
     4     1     5   ar
     5     1     2   ar
     6     5     4   ar
     7    47    45    1
     8    33    32    1
     9    45    39    1
    10    10     8    1
    11    36    35    1
    12     2     8    1
    13     2     3   ar
    14    19    18    1
    15     4    14    1
    16     4     3   ar
    17     8     9    1
    18    32    27    1
    19    32    34    1
    20    18    14   ar
    21    18    17   ar
    22    37    35    1
    23    21    20    1
    24    14    15   ar
    25    27    28   ar
    26    27    26   ar
    27    35    28    1
    28    39    38   ar
    29    39    40   ar
    30     3    11    1
    31    28    29   ar
    32    17    26    1
    33    17    16   ar
    34    26    30   ar
    35    48    49    1
    36    48    40    1
    37    48    50    1
    38    29    30   ar
    39    29    38    1
    40    30    31    1
    41    15    16   ar
    42    15    20    1
    43    16    23    1
    44    38    42   ar
    45    20    22    1
    46    25    23    1
    47    40    41   ar
    48    24    23    1
    49    12    11    1
    50    11    13    1
    51    42    41   ar
    52    42    43    1
    53    41    44    1
