@<TRIPOS>MOLECULE
mol_data/opt/cam/geoms/mol2/13hh13hh-.out
 26 27 0 0 0
SMALL
GASTEIGER

@<TRIPOS>ATOM
      1 C           1.1777   -0.2549   -0.0359 C.ar    1  LIG1        0.0249
      2 C           0.7576    1.0551   -0.0772 C.ar    1  LIG1        0.0637
      3 C          -0.6649    1.0380   -0.1449 C.ar    1  LIG1        0.0726
      4 C          -1.0606   -0.2854   -0.1389 C.ar    1  LIG1        0.0875
      5 N           0.0622   -1.0562   -0.0750 N.ar    1  LIG1       -0.3564
      6 H          -0.0014   -2.0651   -0.0166 H       1  LIG1        0.1655
      7 H           2.1723   -0.6701    0.0221 H       1  LIG1        0.0826
      8 N           1.5243    2.2406    0.0077 N.pl3   1  LIG1       -0.3554
      9 H           2.5066    2.0422    0.1526 H       1  LIG1        0.1424
     10 H           1.4381    2.8070   -0.8298 H       1  LIG1        0.1424
     11 N          -1.5624    2.1507   -0.1696 N.pl3   1  LIG1       -0.3549
     12 H          -1.2532    2.8505    0.5003 H       1  LIG1        0.1424
     13 H          -1.5642    2.6037   -1.0802 H       1  LIG1        0.1424
     14 C          -2.3814   -0.8668   -0.1386 C.ar    1  LIG1        0.0875
     15 C          -2.7770   -2.1903   -0.1446 C.ar    1  LIG1        0.0726
     16 C          -4.1995   -2.2074   -0.0761 C.ar    1  LIG1        0.0637
     17 C          -4.6196   -0.8974   -0.0344 C.ar    1  LIG1        0.0249
     18 N          -3.5041   -0.0960   -0.0740 N.ar    1  LIG1       -0.3564
     19 H          -3.4405    0.9128   -0.0155 H       1  LIG1        0.1655
     20 H          -5.6141   -0.4822    0.0243 H       1  LIG1        0.0826
     21 N          -1.8796   -3.3029   -0.1700 N.pl3   1  LIG1       -0.3549
     22 H          -2.1884   -4.0029    0.4999 H       1  LIG1        0.1424
     23 H          -1.8783   -3.7558   -1.0807 H       1  LIG1        0.1424
     24 N          -4.9662   -3.3929    0.0091 N.pl3   1  LIG1       -0.3554
     25 H          -5.9484   -3.1946    0.1545 H       1  LIG1        0.1424
     26 H          -4.8804   -3.9592   -0.8286 H       1  LIG1        0.1424
@<TRIPOS>BOND
     1    23    21    1
     2    13    11    1
     3    10     8    1
     4    26    24    1
     5    21    15    1
     6    21    22    1
     7    11     3    1
     8    11    12    1
     9     3     4   ar
    10     3     2   ar
    11    15    14   ar
    12    15    16   ar
    13     4    14    1
    14     4     5   ar
    15    14    18   ar
    16     2     1   ar
    17     2     8    1
    18    16    17   ar
    19    16    24    1
    20     5     1   ar
    21     5     6    1
    22    18    17   ar
    23    18    19    1
    24     1     7    1
    25    17    20    1
    26     8     9    1
    27    24    25    1
