@<TRIPOS>MOLECULE
mol_data/opt/cam/geoms/mol2/13hh13hh13hh-13hh.out
 50 53 0 0 0
SMALL
GASTEIGER

@<TRIPOS>ATOM
      1 C           1.2077   -0.0733   -0.9786 C.ar    1  LIG1        0.0249
      2 C           0.9302    1.0351   -0.2218 C.ar    1  LIG1        0.0637
      3 C          -0.4455    0.9723    0.1540 C.ar    1  LIG1        0.0726
      4 C          -0.9707   -0.1806   -0.3930 C.ar    1  LIG1        0.0875
      5 N           0.0613   -0.8343   -1.0562 N.ar    1  LIG1       -0.3564
      6 H          -0.1149   -1.4994   -1.7911 H       1  LIG1        0.1655
      7 H           2.1274   -0.3872   -1.4489 H       1  LIG1        0.0826
      8 N           1.7641    2.1061    0.1690 N.pl3   1  LIG1       -0.3554
      9 H           1.8174    2.1748    1.1809 H       1  LIG1        0.1424
     10 H           2.7038    2.0104   -0.1954 H       1  LIG1        0.1424
     11 N          -1.0494    1.8933    1.0176 N.pl3   1  LIG1       -0.3549
     12 H          -0.6749    2.8227    0.8602 H       1  LIG1        0.1424
     13 H          -2.0639    1.8967    0.9244 H       1  LIG1        0.1424
     14 C          -2.3018   -0.7405   -0.3151 C.ar    1  LIG1        0.0880
     15 C          -3.5363   -0.1202   -0.2508 C.ar    1  LIG1        0.0733
     16 C          -4.5313   -1.1352   -0.1876 C.ar    1  LIG1        0.0733
     17 C          -3.8769   -2.3537   -0.2266 C.ar    1  LIG1        0.0880
     18 N          -2.5377   -2.0985   -0.3162 N.ar    1  LIG1       -0.3488
     19 H          -1.8567   -2.8468   -0.2745 H       1  LIG1        0.1661
     20 N          -3.7564    1.2809   -0.2420 N.pl3   1  LIG1       -0.3548
     21 H          -3.4126    1.7200   -1.0908 H       1  LIG1        0.1424
     22 H          -4.7456    1.4854   -0.1545 H       1  LIG1        0.1424
     23 N          -5.9471   -0.9877   -0.1108 N.pl3   1  LIG1       -0.3548
     24 H          -6.2524   -0.6130    0.7818 H       1  LIG1        0.1424
     25 H          -6.3155   -0.3944   -0.8473 H       1  LIG1        0.1424
     26 C          -4.3825   -3.7037   -0.1827 C.ar    1  LIG1        0.0880
     27 C          -3.6971   -4.9065   -0.1553 C.ar    1  LIG1        0.0733
     28 C          -4.6694   -5.9458   -0.1196 C.ar    1  LIG1        0.0733
     29 C          -5.9148   -5.3426   -0.1230 C.ar    1  LIG1        0.0880
     30 N          -5.7197   -3.9902   -0.1639 N.ar    1  LIG1       -0.3488
     31 H          -6.4627   -3.2977   -0.1447 H       1  LIG1        0.1661
     32 N          -2.2695   -5.0134   -0.1481 N.pl3   1  LIG1       -0.3548
     33 H          -1.9289   -5.3518    0.7480 H       1  LIG1        0.1424
     34 H          -1.9459   -5.6685   -0.8537 H       1  LIG1        0.1424
     35 N          -4.4678   -7.3629   -0.0842 N.pl3   1  LIG1       -0.3548
     36 H          -4.0728   -7.7031   -0.9569 H       1  LIG1        0.1424
     37 H          -3.8201   -7.6221    0.6542 H       1  LIG1        0.1424
     38 C          -7.2313   -5.9323   -0.0724 C.ar    1  LIG1        0.0875
     39 C          -8.4847   -5.3492   -0.0951 C.ar    1  LIG1        0.0726
     40 C          -9.4416   -6.3973    0.0226 C.ar    1  LIG1        0.0637
     41 C          -8.7430   -7.5796    0.1089 C.ar    1  LIG1        0.0249
     42 N          -7.4035   -7.2808    0.0509 N.ar    1  LIG1       -0.3564
     43 H          -6.6085   -7.9049    0.1003 H       1  LIG1        0.1655
     44 H          -9.0932   -8.5953    0.2131 H       1  LIG1        0.0826
     45 N          -8.7284   -3.9470   -0.1831 N.pl3   1  LIG1       -0.3549
     46 H          -9.0279   -3.6762   -1.1161 H       1  LIG1        0.1424
     47 H          -9.4762   -3.6877    0.4543 H       1  LIG1        0.1424
     48 N         -10.8355   -6.1774    0.1085 N.pl3   1  LIG1       -0.3554
     49 H         -11.1986   -5.7338   -0.7286 H       1  LIG1        0.1424
     50 H         -11.3446   -7.0404    0.2545 H       1  LIG1        0.1424
@<TRIPOS>BOND
     1     6     5    1
     2     7     1    1
     3    46    45    1
     4    21    20    1
     5     5     1   ar
     6     5     4   ar
     7     1     2   ar
     8    36    35    1
     9    34    32    1
    10    25    23    1
    11    49    48    1
    12     4    14    1
    13     4     3   ar
    14    18    14   ar
    15    18    19    1
    16    18    17   ar
    17    14    15   ar
    18    15    20    1
    19    15    16   ar
    20    20    22    1
    21    17    16   ar
    22    17    26    1
    23     2     3   ar
    24     2     8    1
    25    10     8    1
    26    16    23    1
    27    45    39    1
    28    45    47    1
    29    26    30   ar
    30    26    27   ar
    31    30    31    1
    32    30    29   ar
    33    27    32    1
    34    27    28   ar
    35    32    33    1
    36    29    28   ar
    37    29    38    1
    38    28    35    1
    39    23    24    1
    40    39    38   ar
    41    39    40   ar
    42    35    37    1
    43    38    42   ar
    44    40    48    1
    45    40    41   ar
    46    42    43    1
    47    42    41   ar
    48    48    50    1
    49    41    44    1
    50     3    11    1
    51     8     9    1
    52    12    11    1
    53    13    11    1
