@<TRIPOS>MOLECULE
mol_data/opt/cam/geoms/mol2/13hh13hh-4hh13hh.out
 52 55 0 0 0
SMALL
GASTEIGER

@<TRIPOS>ATOM
      1 C           1.3730   -0.4824    0.2872 C.ar    1  LIG1        0.0249
      2 C           0.9947    0.8045    0.5953 C.ar    1  LIG1        0.0637
      3 C          -0.4175    0.8790    0.4276 C.ar    1  LIG1        0.0726
      4 C          -0.8499   -0.3712    0.0250 C.ar    1  LIG1        0.0875
      5 N           0.2413   -1.1838   -0.0559 N.ar    1  LIG1       -0.3564
      6 H           0.1490   -2.1593   -0.3081 H       1  LIG1        0.1655
      7 H           2.3472   -0.9469    0.2938 H       1  LIG1        0.0826
      8 N           1.7875    1.8696    1.0732 N.pl3   1  LIG1       -0.3554
      9 H           2.7711    1.6320    1.0953 H       1  LIG1        0.1424
     10 H           1.6723    2.7077    0.5142 H       1  LIG1        0.1424
     11 N          -1.2819    1.9909    0.6593 N.pl3   1  LIG1       -0.3549
     12 H          -1.0687    2.4246    1.5531 H       1  LIG1        0.1424
     13 H          -1.1784    2.7094   -0.0522 H       1  LIG1        0.1424
     14 C          -2.1814   -0.8562   -0.2443 C.ar    1  LIG1        0.0880
     15 C          -2.6123   -2.1156   -0.6259 C.ar    1  LIG1        0.0733
     16 C          -4.0286   -2.0695   -0.7136 C.ar    1  LIG1        0.0719
     17 C          -4.4311   -0.7837   -0.3857 C.ar    1  LIG1        0.0716
     18 N          -3.2774   -0.0615   -0.1206 N.ar    1  LIG1       -0.3500
     19 H          -3.2161    0.8869    0.2341 H       1  LIG1        0.1661
     20 N          -1.7439   -3.2255   -0.8690 N.pl3   1  LIG1       -0.3549
     21 H          -2.0278   -4.0371   -0.3276 H       1  LIG1        0.1424
     22 H          -1.7385   -3.4994   -1.8480 H       1  LIG1        0.1424
     23 N          -4.8433   -3.1688   -1.0438 N.pl3   1  LIG1       -0.3549
     24 H          -5.7375   -2.8772   -1.4205 H       1  LIG1        0.1424
     25 H          -4.3860   -3.7824   -1.7082 H       1  LIG1        0.1424
     26 C          -6.0817    1.0987   -0.6546 C.ar    1  LIG1        0.0346
     27 C          -7.3847    1.5641   -0.5125 C.ar    1  LIG1       -0.0295
     28 C          -5.7778   -0.2236   -0.2753 C.ar    1  LIG1        0.0226
     29 C          -8.4249    0.7713   -0.0160 C.ar    1  LIG1        0.0225
     30 H          -7.6027    2.5973   -0.7671 H       1  LIG1        0.0643
     31 C          -6.8238   -1.0201    0.2043 C.ar    1  LIG1       -0.0295
     32 C          -8.1272   -0.5602    0.3319 C.ar    1  LIG1        0.0346
     33 H          -6.5946   -2.0371    0.5121 H       1  LIG1        0.0643
     34 N          -5.0738    1.9621   -1.1168 N.pl3   1  LIG1       -0.3574
     35 H          -4.3661    1.4957   -1.6698 H       1  LIG1        0.1423
     36 H          -5.4379    2.7728   -1.5980 H       1  LIG1        0.1423
     37 N          -9.1417   -1.4091    0.8610 N.pl3   1  LIG1       -0.3574
     38 H          -9.9368   -1.4755    0.2323 H       1  LIG1        0.1423
     39 H          -8.7849   -2.3415    1.0331 H       1  LIG1        0.1423
     40 C          -9.7586    1.3495    0.1398 C.ar    1  LIG1        0.0711
     41 C         -10.3629    2.4161   -0.5063 C.ar    1  LIG1        0.0712
     42 C         -11.6353    2.6212    0.0894 C.ar    1  LIG1        0.0637
     43 C         -11.7802    1.6783    1.0838 C.ar    1  LIG1        0.0249
     44 N         -10.6600    0.9060    1.0936 N.ar    1  LIG1       -0.3575
     45 H         -10.4506    0.1309    1.7052 H       1  LIG1        0.1654
     46 H         -12.6048    1.4909    1.7555 H       1  LIG1        0.0826
     47 N          -9.8691    3.2150   -1.5513 N.pl3   1  LIG1       -0.3549
     48 H          -9.3611    2.6746   -2.2418 H       1  LIG1        0.1424
     49 H         -10.6492    3.6929   -1.9930 H       1  LIG1        0.1424
     50 N         -12.5365    3.6182   -0.3759 N.pl3   1  LIG1       -0.3554
     51 H         -13.5024    3.3472   -0.2363 H       1  LIG1        0.1424
     52 H         -12.3916    4.5061    0.0952 H       1  LIG1        0.1424
@<TRIPOS>BOND
     1    48    47    1
     2    49    47    1
     3    22    20    1
     4    25    23    1
     5    35    34    1
     6    36    34    1
     7    47    41    1
     8    24    23    1
     9    34    26    1
    10    23    16    1
    11    20    15    1
    12    20    21    1
    13    30    27    1
    14    16    15   ar
    15    16    17   ar
    16    26    27   ar
    17    26    28   ar
    18    15    14   ar
    19    27    29   ar
    20    41    42   ar
    21    41    40   ar
    22    17    28    1
    23    17    18   ar
    24    50    51    1
    25    50    42    1
    26    50    52    1
    27     6     5    1
    28    28    31   ar
    29    14    18   ar
    30    14     4    1
    31    18    19    1
    32     5     4   ar
    33     5     1   ar
    34    13    11    1
    35    29    40    1
    36    29    32   ar
    37     4     3   ar
    38    42    43   ar
    39    40    44   ar
    40    31    32   ar
    41    31    33    1
    42    38    37    1
    43     1     7    1
    44     1     2   ar
    45    32    37    1
    46     3     2   ar
    47     3    11    1
    48    10     8    1
    49     2     8    1
    50    11    12    1
    51    37    39    1
    52     8     9    1
    53    43    44   ar
    54    43    46    1
    55    44    45    1
