@<TRIPOS>MOLECULE
mol_data/opt/cam/geoms/mol2/13hh13hh13hh-13hh-.out
 50 53 0 0 0
SMALL
GASTEIGER

@<TRIPOS>ATOM
      1 C           1.1387    0.1183    0.7429 C.ar    1  LIG1        0.0249
      2 C           0.8303    1.1896   -0.0623 C.ar    1  LIG1        0.0637
      3 C          -0.5160    1.0233   -0.4906 C.ar    1  LIG1        0.0726
      4 C          -1.0049   -0.1361    0.0732 C.ar    1  LIG1        0.0875
      5 N           0.0349   -0.6922    0.7959 N.ar    1  LIG1       -0.3564
      6 H          -0.0839   -1.4640    1.4300 H       1  LIG1        0.1655
      7 H           2.0529   -0.1359    1.2576 H       1  LIG1        0.0826
      8 N           1.6317    2.2866   -0.4927 N.pl3   1  LIG1       -0.3554
      9 H           1.7159    2.9960    0.2283 H       1  LIG1        0.1424
     10 H           2.5681    1.9918   -0.7446 H       1  LIG1        0.1424
     11 N          -1.2080    1.9118   -1.3472 N.pl3   1  LIG1       -0.3549
     12 H          -0.5540    2.6301   -1.6480 H       1  LIG1        0.1424
     13 H          -1.5508    1.4275   -2.1720 H       1  LIG1        0.1424
     14 C          -2.3176   -0.7354   -0.0054 C.ar    1  LIG1        0.0880
     15 C          -3.5645   -0.1308   -0.0601 C.ar    1  LIG1        0.0733
     16 C          -4.5354   -1.1713   -0.0700 C.ar    1  LIG1        0.0733
     17 C          -3.8589   -2.3775   -0.0088 C.ar    1  LIG1        0.0880
     18 N          -2.5254   -2.1052    0.0383 N.ar    1  LIG1       -0.3488
     19 H          -1.8410   -2.8481   -0.0305 H       1  LIG1        0.1661
     20 N          -3.8454    1.2378   -0.0039 N.pl3   1  LIG1       -0.3548
     21 H          -3.0813    1.8124   -0.3591 H       1  LIG1        0.1424
     22 H          -4.7116    1.4678   -0.4740 H       1  LIG1        0.1424
     23 N          -5.9607   -1.0492   -0.1040 N.pl3   1  LIG1       -0.3548
     24 H          -6.2893   -0.4481    0.6472 H       1  LIG1        0.1424
     25 H          -6.2791   -0.6357   -0.9767 H       1  LIG1        0.1424
     26 C          -4.3574   -3.7285   -0.0071 C.ar    1  LIG1        0.0880
     27 C          -3.6809   -4.9348   -0.0664 C.ar    1  LIG1        0.0733
     28 C          -4.6519   -5.9753   -0.0533 C.ar    1  LIG1        0.0733
     29 C          -5.8986   -5.3706    0.0017 C.ar    1  LIG1        0.0880
     30 N          -5.6908   -4.0007    0.0425 N.ar    1  LIG1       -0.3488
     31 H          -6.3754   -3.2579   -0.0268 H       1  LIG1        0.1661
     32 N          -2.2557   -5.0570   -0.1018 N.pl3   1  LIG1       -0.3548
     33 H          -1.9262   -5.6565    0.6503 H       1  LIG1        0.1424
     34 H          -1.9382   -5.4722   -0.9740 H       1  LIG1        0.1424
     35 N          -4.3709   -7.3437    0.0053 N.pl3   1  LIG1       -0.3548
     36 H          -5.1354   -7.9191   -0.3479 H       1  LIG1        0.1424
     37 H          -3.5052   -7.5747   -0.4654 H       1  LIG1        0.1424
     38 C          -7.2113   -5.9697    0.0831 C.ar    1  LIG1        0.0875
     39 C          -7.7009   -7.1302   -0.4776 C.ar    1  LIG1        0.0726
     40 C          -9.0467   -7.2956   -0.0473 C.ar    1  LIG1        0.0637
     41 C          -9.3540   -6.2226    0.7560 C.ar    1  LIG1        0.0249
     42 N          -8.2502   -5.4121    0.8060 N.ar    1  LIG1       -0.3564
     43 H          -8.1306   -4.6390    1.4384 H       1  LIG1        0.1655
     44 H         -10.2676   -5.9674    1.2714 H       1  LIG1        0.0826
     45 N          -7.0100   -8.0205   -1.3333 N.pl3   1  LIG1       -0.3549
     46 H          -7.6643   -8.7394   -1.6318 H       1  LIG1        0.1424
     47 H          -6.6681   -7.5379   -2.1596 H       1  LIG1        0.1424
     48 N          -9.8486   -8.3935   -0.4746 N.pl3   1  LIG1       -0.3554
     49 H          -9.9318   -9.1015    0.2480 H       1  LIG1        0.1424
     50 H         -10.7853   -8.0993   -0.7258 H       1  LIG1        0.1424
@<TRIPOS>BOND
     1    13    11    1
     2    47    45    1
     3    12    11    1
     4    46    45    1
     5    11     3    1
     6    45    39    1
     7    25    23    1
     8    34    32    1
     9    10     8    1
    10    50    48    1
    11     8     2    1
    12     8     9    1
    13     3     2   ar
    14     3     4   ar
    15    39    40   ar
    16    39    38   ar
    17    48    40    1
    18    48    49    1
    19    22    20    1
    20    37    35    1
    21    21    20    1
    22    36    35    1
    23    23    16    1
    24    23    24    1
    25    32    27    1
    26    32    33    1
    27    16    15   ar
    28    16    17   ar
    29    27    28   ar
    30    27    26   ar
    31     2     1   ar
    32    15    14   ar
    33    15    20    1
    34    28    29   ar
    35    28    35    1
    36    40    41   ar
    37    19    18    1
    38    31    30    1
    39    17    26    1
    40    17    18   ar
    41    26    30   ar
    42    14    18   ar
    43    14     4    1
    44    29    30   ar
    45    29    38    1
    46     4     5   ar
    47    38    42   ar
    48     1     5   ar
    49     1     7    1
    50    41    42   ar
    51    41    44    1
    52     5     6    1
    53    42    43    1
