@<TRIPOS>MOLECULE
mol_data/opt/cam/geoms/mol2/13hh13hh-13hh-13hh.out
 50 53 0 0 0
SMALL
GASTEIGER

@<TRIPOS>ATOM
      1 C           1.3326   -0.3422   -0.0753 C.ar    1  LIG1        0.0249
      2 C           0.9508    0.8590   -0.6280 C.ar    1  LIG1        0.0637
      3 C          -0.4711    0.8525   -0.7065 C.ar    1  LIG1        0.0726
      4 C          -0.9062   -0.3548   -0.1922 C.ar    1  LIG1        0.0875
      5 N           0.1937   -1.0654    0.1869 N.ar    1  LIG1       -0.3564
      6 H           0.1017   -1.9861    0.5975 H       1  LIG1        0.1655
      7 H           2.3142   -0.7261    0.1573 H       1  LIG1        0.0826
      8 N           1.7531    1.9637   -0.9951 N.pl3   1  LIG1       -0.3554
      9 H           2.7341    1.7924   -0.8124 H       1  LIG1        0.1424
     10 H           1.6510    2.1935   -1.9780 H       1  LIG1        0.1424
     11 N          -1.3348    1.8847   -1.1894 N.pl3   1  LIG1       -0.3549
     12 H          -1.0434    2.7813   -0.8085 H       1  LIG1        0.1424
     13 H          -1.2795    1.9686   -2.2015 H       1  LIG1        0.1424
     14 C          -2.2413   -0.8675   -0.0102 C.ar    1  LIG1        0.0880
     15 C          -2.6735   -2.0998    0.4476 C.ar    1  LIG1        0.0733
     16 C          -4.0960   -2.0879    0.4403 C.ar    1  LIG1        0.0733
     17 C          -4.4934   -0.8459   -0.0346 C.ar    1  LIG1        0.0880
     18 N          -3.3417   -0.1207   -0.2956 N.ar    1  LIG1       -0.3488
     19 H          -3.2599    0.8070   -0.6922 H       1  LIG1        0.1661
     20 N          -1.8006   -3.1465    0.8827 N.pl3   1  LIG1       -0.3548
     21 H          -2.0431   -3.4502    1.8220 H       1  LIG1        0.1424
     22 H          -1.8606   -3.9627    0.2793 H       1  LIG1        0.1424
     23 N          -4.9127   -3.1133    0.9296 N.pl3   1  LIG1       -0.3548
     24 H          -5.8487   -3.0885    0.5269 H       1  LIG1        0.1424
     25 H          -4.4931   -4.0253    0.7993 H       1  LIG1        0.1424
     26 C          -5.8159   -0.2863   -0.2018 C.ar    1  LIG1        0.0880
     27 C          -7.0059   -0.8879   -0.5706 C.ar    1  LIG1        0.0733
     28 C          -8.0171    0.1132   -0.5746 C.ar    1  LIG1        0.0733
     29 C          -7.4132    1.3055   -0.2218 C.ar    1  LIG1        0.0880
     30 N          -6.0870    1.0529   -0.0176 N.ar    1  LIG1       -0.3488
     31 H          -5.4753    1.7643    0.3666 H       1  LIG1        0.1661
     32 N          -7.1689   -2.2616   -0.8928 N.pl3   1  LIG1       -0.3548
     33 H          -8.1417   -2.4680   -1.0905 H       1  LIG1        0.1424
     34 H          -6.6195   -2.5182   -1.7081 H       1  LIG1        0.1424
     35 N          -9.4081   -0.0213   -0.8780 N.pl3   1  LIG1       -0.3548
     36 H          -9.5616   -0.4040   -1.8064 H       1  LIG1        0.1424
     37 H          -9.8855   -0.6219   -0.2121 H       1  LIG1        0.1424
     38 C          -7.9664    2.6252   -0.0457 C.ar    1  LIG1        0.0875
     39 C          -7.3555    3.8033    0.3428 C.ar    1  LIG1        0.0726
     40 C          -8.3634    4.8090    0.3880 C.ar    1  LIG1        0.0637
     41 C          -9.5485    4.2131    0.0230 C.ar    1  LIG1        0.0249
     42 N          -9.2911    2.8857   -0.2316 N.ar    1  LIG1       -0.3564
     43 H          -9.9320    2.1598   -0.5227 H       1  LIG1        0.1655
     44 H         -10.5431    4.6235   -0.0607 H       1  LIG1        0.0826
     45 N          -5.9684    3.9229    0.6656 N.pl3   1  LIG1       -0.3549
     46 H          -5.4660    4.4645   -0.0330 H       1  LIG1        0.1424
     47 H          -5.8556    4.4089    1.5513 H       1  LIG1        0.1424
     48 N          -8.1342    6.1333    0.8200 N.pl3   1  LIG1       -0.3554
     49 H          -7.4104    6.5888    0.2750 H       1  LIG1        0.1424
     50 H          -8.9727    6.6984    0.7718 H       1  LIG1        0.1424
@<TRIPOS>BOND
     1    13    11    1
     2    10     8    1
     3    36    35    1
     4    34    32    1
     5    11    12    1
     6    11     3    1
     7    33    32    1
     8     8     9    1
     9     8     2    1
    10    32    27    1
    11    35    28    1
    12    35    37    1
    13     3     2   ar
    14     3     4   ar
    15    19    18    1
    16     2     1   ar
    17    28    27   ar
    18    28    29   ar
    19    27    26   ar
    20    43    42    1
    21    18    17   ar
    22    18    14   ar
    23    42    38   ar
    24    42    41   ar
    25    29    38    1
    26    29    30   ar
    27    26    17    1
    28    26    30   ar
    29     4    14    1
    30     4     5   ar
    31     1     7    1
    32     1     5   ar
    33    44    41    1
    34    38    39   ar
    35    17    16   ar
    36    46    45    1
    37    30    31    1
    38    14    15   ar
    39    41    40   ar
    40     5     6    1
    41    49    48    1
    42    22    20    1
    43    39    40   ar
    44    39    45    1
    45    40    48    1
    46    16    15   ar
    47    16    23    1
    48    15    20    1
    49    24    23    1
    50    45    47    1
    51    50    48    1
    52    25    23    1
    53    20    21    1
