@<TRIPOS>MOLECULE
mol_data/opt/cam/geoms/mol2/13hh13hh-13hh.out
 38 40 0 0 0
SMALL
GASTEIGER

@<TRIPOS>ATOM
      1 C           1.2554   -0.3494   -0.0618 C.ar    1  LIG1        0.0249
      2 C           0.8695    0.9708   -0.0840 C.ar    1  LIG1        0.0637
      3 C          -0.5542    0.9938   -0.1270 C.ar    1  LIG1        0.0726
      4 C          -0.9866   -0.3199   -0.1254 C.ar    1  LIG1        0.0875
      5 N           0.1167   -1.1200   -0.0830 N.ar    1  LIG1       -0.3564
      6 H           0.0294   -2.1281   -0.0791 H       1  LIG1        0.1655
      7 H           2.2388   -0.7924   -0.0214 H       1  LIG1        0.0826
      8 N           1.6718    2.1289    0.0021 N.pl3   1  LIG1       -0.3554
      9 H           2.6593    1.9115   -0.0445 H       1  LIG1        0.1424
     10 H           1.4545    2.7914   -0.7342 H       1  LIG1        0.1424
     11 N          -1.4169    2.1295   -0.1418 N.pl3   1  LIG1       -0.3549
     12 H          -1.1377    2.7969    0.5714 H       1  LIG1        0.1424
     13 H          -1.3886    2.6149   -1.0342 H       1  LIG1        0.1424
     14 C          -2.3199   -0.8749   -0.1399 C.ar    1  LIG1        0.0880
     15 C          -2.7317   -2.1959   -0.1474 C.ar    1  LIG1        0.0733
     16 C          -4.1557   -2.1937   -0.1465 C.ar    1  LIG1        0.0733
     17 C          -4.5633   -0.8714   -0.1382 C.ar    1  LIG1        0.0880
     18 N          -3.4404   -0.0919   -0.1390 N.ar    1  LIG1       -0.3488
     19 H          -3.4387    0.9234   -0.0882 H       1  LIG1        0.1661
     20 N          -1.8348   -3.3128   -0.1504 N.pl3   1  LIG1       -0.3548
     21 H          -1.9943   -3.9134    0.6537 H       1  LIG1        0.1424
     22 H          -1.9646   -3.8881   -0.9781 H       1  LIG1        0.1424
     23 N          -5.0560   -3.3078   -0.1477 N.pl3   1  LIG1       -0.3548
     24 H          -4.9230   -3.8886   -0.9709 H       1  LIG1        0.1424
     25 H          -4.9033   -3.9037    0.6611 H       1  LIG1        0.1424
     26 C          -5.8948   -0.3122   -0.1225 C.ar    1  LIG1        0.0875
     27 C          -6.3231    1.0029   -0.1230 C.ar    1  LIG1        0.0726
     28 C          -7.7468    0.9843   -0.0802 C.ar    1  LIG1        0.0637
     29 C          -8.1369   -0.3346   -0.0591 C.ar    1  LIG1        0.0249
     30 N          -7.0006   -1.1088   -0.0805 N.ar    1  LIG1       -0.3564
     31 H          -6.9165   -2.1172   -0.0786 H       1  LIG1        0.1655
     32 H          -9.1217   -0.7745   -0.0191 H       1  LIG1        0.0826
     33 N          -5.4567    2.1358   -0.1370 N.pl3   1  LIG1       -0.3549
     34 H          -5.4849    2.6231   -1.0284 H       1  LIG1        0.1424
     35 H          -5.7321    2.8027    0.5781 H       1  LIG1        0.1424
     36 N          -8.5456    2.1448    0.0069 N.pl3   1  LIG1       -0.3554
     37 H          -8.3239    2.8087   -0.7268 H       1  LIG1        0.1424
     38 H          -9.5337    1.9308   -0.0432 H       1  LIG1        0.1424
@<TRIPOS>BOND
     1    13    11    1
     2    34    33    1
     3    22    20    1
     4    24    23    1
     5    10     8    1
     6    37    36    1
     7    20    15    1
     8    20    21    1
     9    23    16    1
    10    23    25    1
    11    15    16   ar
    12    15    14   ar
    13    16    17   ar
    14    11     3    1
    15    11    12    1
    16    14    18   ar
    17    14     4    1
    18    18    17   ar
    19    18    19    1
    20    17    26    1
    21    33    27    1
    22    33    35    1
    23     3     4   ar
    24     3     2   ar
    25     4     5   ar
    26    27    26   ar
    27    27    28   ar
    28    26    30   ar
    29     2     1   ar
    30     2     8    1
    31     5     6    1
    32     5     1   ar
    33    30    31    1
    34    30    29   ar
    35    28    29   ar
    36    28    36    1
    37     1     7    1
    38    29    32    1
    39     9     8    1
    40    38    36    1
