@<TRIPOS>MOLECULE
mol_data/opt/cam/geoms/mol2/13hi13hi13hi-13hi.out
 54 57 0 0 0
SMALL
GASTEIGER

@<TRIPOS>ATOM
      1 C           1.0817    0.0015   -1.2501 C.ar    1  LIG1        0.0233
      2 C           0.8993    1.0218   -0.3513 C.ar    1  LIG1        0.0457
      3 C          -0.4294    0.9237    0.1631 C.ar    1  LIG1       -0.0031
      4 C          -1.0211   -0.1634   -0.4550 C.ar    1  LIG1        0.0695
      5 N          -0.0866   -0.7311   -1.2868 N.ar    1  LIG1       -0.3576
      6 H          -0.3060   -1.4396   -1.9659 H       1  LIG1        0.1654
      7 H           1.9458   -0.2792   -1.8326 H       1  LIG1        0.0826
      8 N           1.8503    1.9546    0.1043 N.pl3   1  LIG1       -0.3566
      9 H           2.6700    1.9943   -0.4876 H       1  LIG1        0.1424
     10 H           1.4607    2.8853    0.1915 H       1  LIG1        0.1424
     11 C          -0.9992    1.7789    1.2507 C.3     1  LIG1       -0.0359
     12 H          -1.9377    1.3637    1.6229 H       1  LIG1        0.0279
     13 H          -1.2088    2.8050    0.9209 H       1  LIG1        0.0279
     14 H          -0.2983    1.8528    2.0890 H       1  LIG1        0.0279
     15 C          -2.3563   -0.7203   -0.3343 C.ar    1  LIG1        0.0849
     16 C          -3.5940   -0.1016   -0.3557 C.ar    1  LIG1        0.0552
     17 C          -4.5957   -1.1018   -0.2336 C.ar    1  LIG1       -0.0024
     18 C          -3.9306   -2.3189   -0.1625 C.ar    1  LIG1        0.0699
     19 N          -2.5877   -2.0748   -0.2287 N.ar    1  LIG1       -0.3501
     20 H          -1.9162   -2.8146   -0.0534 H       1  LIG1        0.1661
     21 N          -3.8435    1.2822   -0.4538 N.pl3   1  LIG1       -0.3561
     22 H          -2.9938    1.7873   -0.6771 H       1  LIG1        0.1424
     23 H          -4.5399    1.4900   -1.1603 H       1  LIG1        0.1424
     24 C          -6.0686   -0.8385   -0.1783 C.3     1  LIG1       -0.0359
     25 H          -6.5650   -1.4495    0.5820 H       1  LIG1        0.0279
     26 H          -6.5785   -1.0279   -1.1316 H       1  LIG1        0.0279
     27 H          -6.2489    0.2069    0.0869 H       1  LIG1        0.0279
     28 C          -4.4007   -3.6795   -0.0145 C.ar    1  LIG1        0.0849
     29 C          -3.6782   -4.8425    0.2146 C.ar    1  LIG1        0.0552
     30 C          -4.5915   -5.9309    0.2874 C.ar    1  LIG1       -0.0024
     31 C          -5.8541   -5.3943    0.0934 C.ar    1  LIG1        0.0699
     32 N          -5.7153   -4.0409   -0.0825 N.ar    1  LIG1       -0.3501
     33 H          -6.5272   -3.4608   -0.2674 H       1  LIG1        0.1661
     34 N          -2.2535   -4.8745    0.3529 N.pl3   1  LIG1       -0.3561
     35 H          -1.9745   -5.1395    1.2934 H       1  LIG1        0.1424
     36 H          -1.8335   -5.5435   -0.2851 H       1  LIG1        0.1424
     37 C          -4.2242   -7.3617    0.5311 C.3     1  LIG1       -0.0359
     38 H          -3.1437   -7.4583    0.6664 H       1  LIG1        0.0279
     39 H          -4.4966   -8.0159   -0.3062 H       1  LIG1        0.0279
     40 H          -4.6903   -7.7651    1.4383 H       1  LIG1        0.0279
     41 C          -7.1752   -5.9822    0.0448 C.ar    1  LIG1        0.0844
     42 C          -8.4037   -5.3786   -0.1598 C.ar    1  LIG1        0.0546
     43 C          -9.4109   -6.3884   -0.1230 C.ar    1  LIG1       -0.0118
     44 C          -8.7629   -7.5751    0.1029 C.ar    1  LIG1        0.0069
     45 N          -7.4172   -7.3229    0.2033 N.ar    1  LIG1       -0.3578
     46 H          -6.7075   -8.0149    0.3680 H       1  LIG1        0.1654
     47 H          -9.1530   -8.5769    0.2002 H       1  LIG1        0.0810
     48 N          -8.5706   -3.9712   -0.3685 N.pl3   1  LIG1       -0.3561
     49 H          -9.0309   -3.7858   -1.2553 H       1  LIG1        0.1424
     50 H          -9.1533   -3.5607    0.3559 H       1  LIG1        0.1424
     51 C         -10.8808   -6.1762   -0.2991 C.3     1  LIG1       -0.0365
     52 H         -11.4268   -7.1193   -0.2243 H       1  LIG1        0.0279
     53 H         -11.1153   -5.7383   -1.2757 H       1  LIG1        0.0279
     54 H         -11.2888   -5.4999    0.4603 H       1  LIG1        0.0279
@<TRIPOS>BOND
     1     6     5    1
     2     7     1    1
     3     5     1   ar
     4     5     4   ar
     5    53    51    1
     6    49    48    1
     7     1     2   ar
     8    23    21    1
     9    26    24    1
    10    22    21    1
    11     9     8    1
    12     4    15    1
    13     4     3   ar
    14    21    16    1
    15    48    42    1
    16    48    50    1
    17    16    15   ar
    18    16    17   ar
    19     2     8    1
    20     2     3   ar
    21    15    19   ar
    22    39    37    1
    23    51    52    1
    24    51    43    1
    25    51    54    1
    26    36    34    1
    27    33    32    1
    28    17    24    1
    29    17    18   ar
    30    19    18   ar
    31    19    20    1
    32    24    27    1
    33    24    25    1
    34    18    28    1
    35    42    43   ar
    36    42    41   ar
    37    43    44   ar
    38    32    28   ar
    39    32    31   ar
    40    28    29   ar
    41    41    31    1
    42    41    45   ar
    43    31    30   ar
    44    44    47    1
    45    44    45   ar
    46     8    10    1
    47     3    11    1
    48    45    46    1
    49    29    30   ar
    50    29    34    1
    51    30    37    1
    52    34    35    1
    53    37    38    1
    54    37    40    1
    55    13    11    1
    56    11    12    1
    57    11    14    1
