@<TRIPOS>MOLECULE
mol_data/opt/cam/geoms/mol2/13hi13hi-.out
 28 29 0 0 0
SMALL
GASTEIGER

@<TRIPOS>ATOM
      1 C           1.1642   -0.2980   -0.1974 C.ar    1  LIG1        0.0233
      2 C           0.8040    1.0250   -0.0743 C.ar    1  LIG1        0.0457
      3 C          -0.6164    1.0850    0.0056 C.ar    1  LIG1       -0.0031
      4 C          -1.0705   -0.2226   -0.0827 C.ar    1  LIG1        0.0694
      5 N           0.0172   -1.0433   -0.1917 N.ar    1  LIG1       -0.3576
      6 H          -0.0975   -2.0500   -0.2358 H       1  LIG1        0.1654
      7 H           2.1390   -0.7548   -0.2778 H       1  LIG1        0.0826
      8 N           1.6498    2.1562    0.0258 N.pl3   1  LIG1       -0.3566
      9 H           2.6233    1.8872    0.0975 H       1  LIG1        0.1424
     10 H           1.5528    2.7728   -0.7738 H       1  LIG1        0.1424
     11 C          -1.4077    2.3420    0.1921 C.3     1  LIG1       -0.0359
     12 H          -2.1564    2.2434    0.9868 H       1  LIG1        0.0279
     13 H          -1.9265    2.6672   -0.7194 H       1  LIG1        0.0279
     14 H          -0.7376    3.1522    0.4899 H       1  LIG1        0.0279
     15 C          -2.3987   -0.8009   -0.0723 C.ar    1  LIG1        0.0844
     16 C          -2.7869   -2.1286   -0.0911 C.ar    1  LIG1        0.0546
     17 C          -4.2130   -2.1786   -0.0784 C.ar    1  LIG1       -0.0118
     18 C          -4.6467   -0.8783   -0.0555 C.ar    1  LIG1        0.0069
     19 N          -3.5485   -0.0550   -0.0490 N.ar    1  LIG1       -0.3578
     20 H          -3.5731    0.9497   -0.0583 H       1  LIG1        0.1654
     21 H          -5.6483   -0.4757   -0.0420 H       1  LIG1        0.0810
     22 N          -1.8653   -3.2255   -0.1202 N.pl3   1  LIG1       -0.3561
     23 H          -1.9479   -3.7927    0.7195 H       1  LIG1        0.1424
     24 H          -2.0590   -3.8389   -0.9068 H       1  LIG1        0.1424
     25 C          -5.0535   -3.4157   -0.0883 C.3     1  LIG1       -0.0365
     26 H          -4.8478   -4.0552    0.7775 H       1  LIG1        0.0279
     27 H          -4.8759   -4.0232   -0.9830 H       1  LIG1        0.0279
     28 H          -6.1175   -3.1694   -0.0675 H       1  LIG1        0.0279
@<TRIPOS>BOND
     1    27    25    1
     2    24    22    1
     3    10     8    1
     4    13    11    1
     5     7     1    1
     6     6     5    1
     7     1     5   ar
     8     1     2   ar
     9     5     4   ar
    10    22    16    1
    11    22    23    1
    12    16    17   ar
    13    16    15   ar
    14    25    17    1
    15    25    28    1
    16    25    26    1
    17     4    15    1
    18     4     3   ar
    19    17    18   ar
    20     2     3   ar
    21     2     8    1
    22    15    19   ar
    23    20    19    1
    24    18    19   ar
    25    18    21    1
    26     3    11    1
    27     8     9    1
    28    11    14    1
    29    11    12    1
