@<TRIPOS>MOLECULE
mol_data/opt/cam/geoms/mol2/13hi13hi13hi-13hi-.out
 54 57 0 0 0
SMALL
GASTEIGER

@<TRIPOS>ATOM
      1 C           1.0900   -0.0792   -1.2736 C.ar    1  LIG1        0.0233
      2 C           0.8954    0.9988   -0.4477 C.ar    1  LIG1        0.0457
      3 C          -0.4444    0.9413    0.0432 C.ar    1  LIG1       -0.0031
      4 C          -1.0296   -0.1812   -0.5150 C.ar    1  LIG1        0.0695
      5 N          -0.0816   -0.8066   -1.2880 N.ar    1  LIG1       -0.3576
      6 H          -0.2887   -1.5600   -1.9209 H       1  LIG1        0.1654
      7 H           1.9641   -0.4013   -1.8185 H       1  LIG1        0.0826
      8 N           1.8421    1.9545   -0.0334 N.pl3   1  LIG1       -0.3566
      9 H           2.6792    1.9447   -0.6015 H       1  LIG1        0.1424
     10 H           1.4602    2.8924   -0.0233 H       1  LIG1        0.1424
     11 C          -1.0309    1.8690    1.0603 C.3     1  LIG1       -0.0359
     12 H          -1.9744    1.4793    1.4475 H       1  LIG1        0.0279
     13 H          -1.2360    2.8694    0.6572 H       1  LIG1        0.0279
     14 H          -0.3419    2.0017    1.9010 H       1  LIG1        0.0279
     15 C          -2.3704   -0.7224   -0.3843 C.ar    1  LIG1        0.0849
     16 C          -3.6033   -0.1001   -0.4749 C.ar    1  LIG1        0.0552
     17 C          -4.6133   -1.0835   -0.2971 C.ar    1  LIG1       -0.0024
     18 C          -3.9573   -2.2952   -0.1229 C.ar    1  LIG1        0.0699
     19 N          -2.6124   -2.0636   -0.1807 N.ar    1  LIG1       -0.3501
     20 H          -1.9487   -2.7938    0.0559 H       1  LIG1        0.1661
     21 N          -3.8432    1.2736   -0.6779 N.pl3   1  LIG1       -0.3561
     22 H          -2.9838    1.7609   -0.9038 H       1  LIG1        0.1424
     23 H          -4.5120    1.4344   -1.4223 H       1  LIG1        0.1424
     24 C          -6.0853   -0.8089   -0.2842 C.3     1  LIG1       -0.0359
     25 H          -6.5948   -1.3563    0.5158 H       1  LIG1        0.0279
     26 H          -6.5836   -1.0599   -1.2303 H       1  LIG1        0.0279
     27 H          -6.2635    0.2538   -0.0993 H       1  LIG1        0.0279
     28 C          -4.4371   -3.6394    0.1121 C.ar    1  LIG1        0.0849
     29 C          -3.7325   -4.7855    0.4322 C.ar    1  LIG1        0.0552
     30 C          -4.6558   -5.8644    0.5563 C.ar    1  LIG1       -0.0024
     31 C          -5.9097   -5.3493    0.2922 C.ar    1  LIG1        0.0699
     32 N          -5.7602   -3.9978    0.0437 N.ar    1  LIG1       -0.3501
     33 H          -6.4908   -3.4135   -0.3265 H       1  LIG1        0.1661
     34 N          -2.3143   -4.8147    0.6296 N.pl3   1  LIG1       -0.3561
     35 H          -2.0853   -4.9749    1.6075 H       1  LIG1        0.1424
     36 H          -1.8940   -5.5760    0.1047 H       1  LIG1        0.1424
     37 C          -4.3204   -7.2629    0.9694 C.3     1  LIG1       -0.0359
     38 H          -3.7483   -7.2735    1.9037 H       1  LIG1        0.0279
     39 H          -3.7119   -7.7831    0.2200 H       1  LIG1        0.0279
     40 H          -5.2247   -7.8547    1.1192 H       1  LIG1        0.0279
     41 C          -7.2192   -5.9749    0.2664 C.ar    1  LIG1        0.0844
     42 C          -7.6551   -7.1310   -0.3478 C.ar    1  LIG1        0.0546
     43 C          -9.0486   -7.2794   -0.0798 C.ar    1  LIG1       -0.0118
     44 C          -9.4176   -6.2008    0.6855 C.ar    1  LIG1        0.0069
     45 N          -8.3256   -5.4038    0.8794 N.ar    1  LIG1       -0.3578
     46 H          -8.2658   -4.6573    1.5513 H       1  LIG1        0.1654
     47 H         -10.3816   -5.9465    1.1007 H       1  LIG1        0.0810
     48 N          -6.8761   -8.0345   -1.0900 N.pl3   1  LIG1       -0.3561
     49 H          -7.3752   -8.4045   -1.8900 H       1  LIG1        0.1424
     50 H          -6.0079   -7.6133   -1.3990 H       1  LIG1        0.1424
     51 C          -9.9180   -8.3943   -0.5667 C.3     1  LIG1       -0.0365
     52 H          -9.5213   -9.3695   -0.2658 H       1  LIG1        0.0279
     53 H         -10.0038   -8.4054   -1.6604 H       1  LIG1        0.0279
     54 H         -10.9306   -8.3077   -0.1657 H       1  LIG1        0.0279
@<TRIPOS>BOND
     1     6     5    1
     2    49    48    1
     3     7     1    1
     4    53    51    1
     5    23    21    1
     6    50    48    1
     7     5     1   ar
     8     5     4   ar
     9     1     2   ar
    10    26    24    1
    11    48    42    1
    12    22    21    1
    13    21    16    1
    14     9     8    1
    15    51    52    1
    16    51    54    1
    17    51    43    1
    18     4    15    1
    19     4     3   ar
    20    16    15   ar
    21    16    17   ar
    22     2     8    1
    23     2     3   ar
    24    15    19   ar
    25    42    43   ar
    26    42    41   ar
    27    33    32    1
    28    17    24    1
    29    17    18   ar
    30    24    27    1
    31    24    25    1
    32    19    18   ar
    33    19    20    1
    34    18    28    1
    35    43    44   ar
    36     8    10    1
    37     3    11    1
    38    32    28   ar
    39    32    31   ar
    40    36    34    1
    41    28    29   ar
    42    39    37    1
    43    41    31    1
    44    41    45   ar
    45    31    30   ar
    46    29    30   ar
    47    29    34    1
    48    30    37    1
    49    34    35    1
    50    13    11    1
    51    44    45   ar
    52    44    47    1
    53    45    46    1
    54    37    40    1
    55    37    38    1
    56    11    12    1
    57    11    14    1
