@<TRIPOS>MOLECULE
mol_data/opt/cam/geoms/mol2/13hi13hi13hi13hi-.out
 54 57 0 0 0
SMALL
GASTEIGER

@<TRIPOS>ATOM
      1 C           0.4006    0.5191   -2.3187 C.ar    1  LIG1        0.0233
      2 C           0.6419    1.1798   -1.1414 C.ar    1  LIG1        0.0457
      3 C          -0.3965    0.8356   -0.2223 C.ar    1  LIG1       -0.0031
      4 C          -1.2490   -0.0290   -0.8828 C.ar    1  LIG1        0.0695
      5 N          -0.7384   -0.2411   -2.1429 N.ar    1  LIG1       -0.3576
      6 H          -1.2655   -0.6623   -2.8890 H       1  LIG1        0.1654
      7 H           0.9584    0.4983   -3.2423 H       1  LIG1        0.0826
      8 N           1.7546    1.9723   -0.8061 N.pl3   1  LIG1       -0.3566
      9 H           2.2759    2.2780   -1.6176 H       1  LIG1        0.1424
     10 H           1.4967    2.7800   -0.2527 H       1  LIG1        0.1424
     11 C          -0.4590    1.2617    1.2104 C.3     1  LIG1       -0.0359
     12 H          -1.2585    0.7399    1.7392 H       1  LIG1        0.0279
     13 H          -0.6481    2.3372    1.3212 H       1  LIG1        0.0279
     14 H           0.4878    1.0519    1.7195 H       1  LIG1        0.0279
     15 C          -2.4712   -0.6808   -0.4469 C.ar    1  LIG1        0.0849
     16 C          -3.5913   -0.1736    0.1804 C.ar    1  LIG1        0.0552
     17 C          -4.5245   -1.2340    0.3601 C.ar    1  LIG1       -0.0024
     18 C          -3.9520   -2.3725   -0.1841 C.ar    1  LIG1        0.0699
     19 N          -2.7155   -2.0261   -0.6673 N.ar    1  LIG1       -0.3501
     20 H          -2.0593   -2.6693   -1.0772 H       1  LIG1        0.1661
     21 N          -3.7777    1.1440    0.6317 N.pl3   1  LIG1       -0.3561
     22 H          -3.1182    1.7831    0.2038 H       1  LIG1        0.1424
     23 H          -4.7221    1.4740    0.4747 H       1  LIG1        0.1424
     24 C          -5.8309   -1.1238    1.0815 C.3     1  LIG1       -0.0359
     25 H          -6.2530   -2.1106    1.2807 H       1  LIG1        0.0279
     26 H          -6.5836   -0.5579    0.5169 H       1  LIG1        0.0279
     27 H          -5.6991   -0.6076    2.0382 H       1  LIG1        0.0279
     28 C          -4.4421   -3.7361   -0.2745 C.ar    1  LIG1        0.0849
     29 C          -5.6636   -4.2274   -0.7007 C.ar    1  LIG1        0.0552
     30 C          -5.6248   -5.6460   -0.6256 C.ar    1  LIG1       -0.0024
     31 C          -4.3565   -5.9816   -0.1715 C.ar    1  LIG1        0.0699
     32 N          -3.6565   -4.8270    0.0312 N.ar    1  LIG1       -0.3501
     33 H          -2.7554   -4.8452    0.4986 H       1  LIG1        0.1661
     34 N          -6.7794   -3.4739   -1.1168 N.pl3   1  LIG1       -0.3561
     35 H          -6.5392   -2.4943   -1.2142 H       1  LIG1        0.1424
     36 H          -7.1516   -3.8057   -1.9993 H       1  LIG1        0.1424
     37 C          -6.7676   -6.5545   -0.9596 C.3     1  LIG1       -0.0359
     38 H          -6.8924   -7.3456   -0.2120 H       1  LIG1        0.0279
     39 H          -6.6698   -7.0342   -1.9427 H       1  LIG1        0.0279
     40 H          -7.7025   -5.9881   -0.9696 H       1  LIG1        0.0279
     41 C          -3.7260   -7.2522    0.1199 C.ar    1  LIG1        0.0844
     42 C          -2.5096   -7.5150    0.7251 C.ar    1  LIG1        0.0546
     43 C          -2.3324   -8.9295    0.7788 C.ar    1  LIG1       -0.0118
     44 C          -3.4462   -9.4822    0.2007 C.ar    1  LIG1        0.0069
     45 N          -4.2829   -8.4668   -0.1887 N.ar    1  LIG1       -0.3578
     46 H          -5.1551   -8.5851   -0.6736 H       1  LIG1        0.1654
     47 H          -3.7085  -10.5169    0.0387 H       1  LIG1        0.0810
     48 N          -1.6246   -6.4945    1.2016 N.pl3   1  LIG1       -0.3561
     49 H          -1.5479   -6.5196    2.2150 H       1  LIG1        0.1424
     50 H          -0.6868   -6.6270    0.8339 H       1  LIG1        0.1424
     51 C          -1.1572   -9.6512    1.3574 C.3     1  LIG1       -0.0365
     52 H          -1.0169   -9.4157    2.4181 H       1  LIG1        0.0279
     53 H          -0.2242   -9.3887    0.8459 H       1  LIG1        0.0279
     54 H          -1.2803  -10.7335    1.2757 H       1  LIG1        0.0279
@<TRIPOS>BOND
     1     7     1    1
     2     6     5    1
     3     1     5   ar
     4     1     2   ar
     5     5     4   ar
     6    36    34    1
     7    39    37    1
     8     9     8    1
     9    35    34    1
    10     2     8    1
    11     2     3   ar
    12    34    29    1
    13    20    19    1
    14    40    37    1
    15    37    30    1
    16    37    38    1
    17     4    15    1
    18     4     3   ar
    19     8    10    1
    20    29    30   ar
    21    29    28   ar
    22    46    45    1
    23    19    15   ar
    24    19    18   ar
    25    30    31   ar
    26    15    16   ar
    27    28    18    1
    28    28    32   ar
    29     3    11    1
    30    45    41   ar
    31    45    44   ar
    32    18    17   ar
    33    31    32   ar
    34    31    41    1
    35    32    33    1
    36    47    44    1
    37    41    42   ar
    38    16    17   ar
    39    16    21    1
    40    44    43   ar
    41    22    21    1
    42    17    24    1
    43    23    21    1
    44    26    24    1
    45    42    43   ar
    46    42    48    1
    47    43    51    1
    48    50    48    1
    49    53    51    1
    50    24    25    1
    51    24    27    1
    52    48    49    1
    53    11    13    1
    54    11    14    1
    55    11    12    1
    56    54    51    1
    57    51    52    1
