@<TRIPOS>MOLECULE
mol_data/opt/cam/geoms/mol2/13hi6aa-6ff-4al-.out
 49 52 0 0 0
SMALL
GASTEIGER

@<TRIPOS>ATOM
      1 C           1.2789   -0.0577   -0.8501 C.ar    1  LIG1        0.0233
      2 C           0.9993    1.0473   -0.0838 C.ar    1  LIG1        0.0456
      3 C          -0.3813    0.9982    0.2672 C.ar    1  LIG1       -0.0045
      4 C          -0.9007   -0.1502   -0.3054 C.ar    1  LIG1        0.0527
      5 N           0.1254   -0.7971   -0.9509 N.ar    1  LIG1       -0.3588
      6 H          -0.0012   -1.5737   -1.5776 H       1  LIG1        0.1654
      7 H           2.1990   -0.3799   -1.3131 H       1  LIG1        0.0826
      8 N           1.8933    2.0267    0.3847 N.pl3   1  LIG1       -0.3566
      9 H           2.8210    1.9271   -0.0062 H       1  LIG1        0.1424
     10 H           1.5617    2.9686    0.2158 H       1  LIG1        0.1424
     11 C          -1.0558    1.9797    1.1729 C.3     1  LIG1       -0.0360
     12 H          -1.9118    1.5355    1.6863 H       1  LIG1        0.0279
     13 H          -1.4179    2.8683    0.6410 H       1  LIG1        0.0279
     14 H          -0.3510    2.3251    1.9351 H       1  LIG1        0.0279
     15 C          -2.4480   -2.1001   -0.2488 C.ar    1  LIG1        0.0374
     16 C          -2.2431   -0.7206   -0.2640 C.ar    1  LIG1        0.0167
     17 C          -3.4005    0.0689   -0.2518 C.ar    1  LIG1       -0.0491
     18 C          -4.6475   -0.5206   -0.2186 C.ar    1  LIG1       -0.0349
     19 C          -4.7599   -1.9181   -0.2104 C.ar    1  LIG1        0.0762
     20 N          -3.6472   -2.6719   -0.2332 N.ar    1  LIG1       -0.2542
     21 H          -3.3147    1.1488   -0.2924 H       1  LIG1        0.0625
     22 H          -1.5998   -2.7799   -0.2315 H       1  LIG1        0.0836
     23 H          -5.5306    0.1045   -0.2254 H       1  LIG1        0.0639
     24 C          -6.1506   -4.0414   -0.2869 C.ar    1  LIG1        0.2225
     25 C          -6.0557   -2.6252   -0.1849 C.ar    1  LIG1        0.0652
     26 C          -7.2587   -1.9385   -0.0459 C.ar    1  LIG1       -0.0038
     27 C          -8.4710   -2.6054   -0.0531 C.ar    1  LIG1        0.1436
     28 C          -8.4601   -3.9968   -0.2202 C.ar    1  LIG1        0.1162
     29 N          -7.3135   -4.6719   -0.3059 N.ar    1  LIG1       -0.2088
     30 H          -7.2884   -0.8644    0.0915 H       1  LIG1        0.0663
     31 O          -5.0759   -4.8253   -0.3733 O.3     1  LIG1       -0.4919
     32 H          -4.2820   -4.2329   -0.3210 H       1  LIG1        0.2937
     33 O          -9.6019   -1.8584    0.1202 O.3     1  LIG1       -0.5046
     34 H         -10.3394   -2.4499    0.3207 H       1  LIG1        0.2922
     35 C         -10.8732   -4.3384   -0.8918 C.ar    1  LIG1       -0.0522
     36 C         -12.0127   -5.1289   -0.9009 C.ar    1  LIG1       -0.0577
     37 C          -9.7103   -4.8011   -0.2558 C.ar    1  LIG1        0.0075
     38 C         -12.0282   -6.3761   -0.2858 C.ar    1  LIG1       -0.0199
     39 H         -12.9068   -4.7763   -1.4050 H       1  LIG1        0.0619
     40 C          -9.7163   -6.0560    0.3416 C.ar    1  LIG1       -0.0107
     41 C         -10.8674   -6.8413    0.3329 C.ar    1  LIG1        0.1207
     42 H          -8.8161   -6.4370    0.8076 H       1  LIG1        0.0661
     43 H         -12.9314   -6.9722   -0.3031 H       1  LIG1        0.0654
     44 H         -10.8691   -3.3932   -1.4238 H       1  LIG1        0.0624
     45 O         -10.7622   -8.0437    0.9554 O.3     1  LIG1       -0.4951
     46 C         -11.8888   -8.8923    0.9650 C.3     1  LIG1        0.0788
     47 H         -11.5867   -9.7920    1.5006 H       1  LIG1        0.0660
     48 H         -12.7377   -8.4332    1.4856 H       1  LIG1        0.0660
     49 H         -12.1982   -9.1661   -0.0505 H       1  LIG1        0.0660
@<TRIPOS>BOND
     1     6     5    1
     2    44    35    1
     3    39    36    1
     4     7     1    1
     5     5     1   ar
     6     5     4   ar
     7    36    35   ar
     8    36    38   ar
     9    35    37   ar
    10     1     2   ar
    11    31    32    1
    12    31    24    1
    13    29    24   ar
    14    29    28   ar
    15     4    16    1
    16     4     3   ar
    17    43    38    1
    18    21    17    1
    19    24    25   ar
    20    38    41   ar
    21    16    17   ar
    22    16    15   ar
    23    37    28    1
    24    37    40   ar
    25    17    18   ar
    26    15    20   ar
    27    15    22    1
    28    20    19   ar
    29    23    18    1
    30    28    27   ar
    31    18    19   ar
    32    19    25    1
    33    25    26   ar
    34     2     3   ar
    35     2     8    1
    36    27    26   ar
    37    27    33    1
    38    49    46    1
    39    26    30    1
    40     9     8    1
    41    33    34    1
    42    10     8    1
    43     3    11    1
    44    41    40   ar
    45    41    45    1
    46    40    42    1
    47    13    11    1
    48    45    46    1
    49    46    48    1
    50    46    47    1
    51    11    12    1
    52    11    14    1
