@<TRIPOS>MOLECULE
mol_data/opt/cam/geoms/mol2/13hi13hi-13hi13hi-.out
 54 57 0 0 0
SMALL
GASTEIGER

@<TRIPOS>ATOM
      1 C           1.3128   -0.3314   -0.1598 C.ar    1  LIG1        0.0233
      2 C           0.9520    0.9933   -0.0603 C.ar    1  LIG1        0.0457
      3 C          -0.4688    1.0569    0.0020 C.ar    1  LIG1       -0.0031
      4 C          -0.9243   -0.2518   -0.0723 C.ar    1  LIG1        0.0695
      5 N           0.1642   -1.0754   -0.1567 N.ar    1  LIG1       -0.3576
      6 H           0.0484   -2.0819   -0.1873 H       1  LIG1        0.1654
      7 H           2.2881   -0.7902   -0.2220 H       1  LIG1        0.0826
      8 N           1.8006    2.1232    0.0335 N.pl3   1  LIG1       -0.3566
      9 H           2.7758    1.8525    0.0681 H       1  LIG1        0.1424
     10 H           1.6777    2.7523   -0.7526 H       1  LIG1        0.1424
     11 C          -1.2631    2.3164    0.1556 C.3     1  LIG1       -0.0359
     12 H          -2.0370    2.2234    0.9247 H       1  LIG1        0.0279
     13 H          -1.7615    2.6281   -0.7710 H       1  LIG1        0.0279
     14 H          -0.6007    3.1299    0.4627 H       1  LIG1        0.0279
     15 C          -2.2537   -0.8254   -0.0678 C.ar    1  LIG1        0.0849
     16 C          -2.6420   -2.1579   -0.0727 C.ar    1  LIG1        0.0552
     17 C          -4.0636   -2.2123   -0.0690 C.ar    1  LIG1       -0.0024
     18 C          -4.5035   -0.8983   -0.0656 C.ar    1  LIG1        0.0699
     19 N          -3.3986   -0.0834   -0.0633 N.ar    1  LIG1       -0.3501
     20 H          -3.5022    0.9253   -0.0791 H       1  LIG1        0.1661
     21 N          -1.7165   -3.2519   -0.0817 N.pl3   1  LIG1       -0.3561
     22 H          -1.7984   -3.8136    0.7612 H       1  LIG1        0.1424
     23 H          -1.8859   -3.8704   -0.8694 H       1  LIG1        0.1424
     24 C          -4.8909   -3.4599   -0.0687 C.3     1  LIG1       -0.0359
     25 H          -4.2457   -4.3428   -0.0606 H       1  LIG1        0.0279
     26 H          -5.5323   -3.5389   -0.9539 H       1  LIG1        0.0279
     27 H          -5.5413   -3.5306    0.8104 H       1  LIG1        0.0279
     28 C          -5.8234   -0.3084   -0.0664 C.ar    1  LIG1        0.0849
     29 C          -6.1925    1.0299   -0.0632 C.ar    1  LIG1        0.0552
     30 C          -7.6135    1.1031   -0.0666 C.ar    1  LIG1       -0.0024
     31 C          -8.0717   -0.2041   -0.0721 C.ar    1  LIG1        0.0699
     32 N          -6.9792   -1.0348   -0.0714 N.ar    1  LIG1       -0.3501
     33 H          -7.1007   -2.0421   -0.0748 H       1  LIG1        0.1661
     34 N          -5.2518    2.1090   -0.0578 N.pl3   1  LIG1       -0.3561
     35 H          -5.3683    2.7116   -0.8670 H       1  LIG1        0.1424
     36 H          -5.3525    2.6904    0.7688 H       1  LIG1        0.1424
     37 C          -8.4204    2.3642   -0.0643 C.3     1  LIG1       -0.0359
     38 H          -9.0651    2.4488    0.8191 H       1  LIG1        0.0279
     39 H          -9.0548    2.4594   -0.9540 H       1  LIG1        0.0279
     40 H          -7.7611    3.2361   -0.0550 H       1  LIG1        0.0279
     41 C          -9.3985   -0.7809   -0.0777 C.ar    1  LIG1        0.0844
     42 C          -9.7845   -2.1100   -0.0813 C.ar    1  LIG1        0.0546
     43 C         -11.2103   -2.1627   -0.0864 C.ar    1  LIG1       -0.0118
     44 C         -11.6468   -0.8632   -0.0859 C.ar    1  LIG1        0.0069
     45 N         -10.5505   -0.0369   -0.0805 N.ar    1  LIG1       -0.3578
     46 H         -10.5804    0.9674   -0.0793 H       1  LIG1        0.1654
     47 H         -12.6493   -0.4628   -0.0888 H       1  LIG1        0.0810
     48 N          -8.8606   -3.2053   -0.0797 N.pl3   1  LIG1       -0.3561
     49 H          -8.9978   -3.7961    0.7358 H       1  LIG1        0.1424
     50 H          -8.9958   -3.7966   -0.8951 H       1  LIG1        0.1424
     51 C         -12.0485   -3.4012   -0.0913 C.3     1  LIG1       -0.0365
     52 H         -11.8578   -4.0261    0.7884 H       1  LIG1        0.0279
     53 H         -11.8532   -4.0225   -0.9725 H       1  LIG1        0.0279
     54 H         -13.1130   -3.1565   -0.0936 H       1  LIG1        0.0279
@<TRIPOS>BOND
     1    53    51    1
     2    39    37    1
     3    26    24    1
     4    50    48    1
     5    23    21    1
     6    35    34    1
     7    13    11    1
     8    10     8    1
     9     7     1    1
    10     6     5    1
    11     1     5   ar
    12     1     2   ar
    13     5     4   ar
    14    54    51    1
    15    51    43    1
    16    51    52    1
    17    47    44    1
    18    43    44   ar
    19    43    42   ar
    20    44    45   ar
    21    21    16    1
    22    21    22    1
    23    42    48    1
    24    42    41   ar
    25    45    46    1
    26    45    41   ar
    27    48    49    1
    28    20    19    1
    29    41    31    1
    30    33    32    1
    31    16    17   ar
    32    16    15   ar
    33     4    15    1
    34     4     3   ar
    35    31    32   ar
    36    31    30   ar
    37    32    28   ar
    38    17    24    1
    39    17    18   ar
    40    24    25    1
    41    24    27    1
    42    15    19   ar
    43    30    37    1
    44    30    29   ar
    45    28    18    1
    46    28    29   ar
    47    18    19   ar
    48    37    40    1
    49    37    38    1
    50    29    34    1
    51     2     3   ar
    52     2     8    1
    53    34    36    1
    54     3    11    1
    55     8     9    1
    56    11    14    1
    57    11    12    1
