@<TRIPOS>MOLECULE
mol_data/opt/cam/geoms/mol2/13hi13hi13hi.out
 41 43 0 0 0
SMALL
GASTEIGER

@<TRIPOS>ATOM
      1 C           0.9882   -0.1015   -1.3495 C.ar    1  LIG1        0.0233
      2 C           0.8550    0.9554   -0.4858 C.ar    1  LIG1        0.0457
      3 C          -0.4501    0.8900    0.0922 C.ar    1  LIG1       -0.0031
      4 C          -1.0767   -0.2153   -0.4517 C.ar    1  LIG1        0.0695
      5 N          -0.1835   -0.8301   -1.2995 N.ar    1  LIG1       -0.3576
      6 H          -0.4520   -1.5250   -1.9754 H       1  LIG1        0.1654
      7 H           1.8227   -0.4125   -1.9591 H       1  LIG1        0.0826
      8 N           1.8317    1.8951   -0.1112 N.pl3   1  LIG1       -0.3566
      9 H           2.6140    1.9242   -0.7519 H       1  LIG1        0.1424
     10 H           1.4490    2.8269   -0.0095 H       1  LIG1        0.1424
     11 C          -0.9682    1.7995    1.1610 C.3     1  LIG1       -0.0359
     12 H          -1.9223    1.4415    1.5516 H       1  LIG1        0.0279
     13 H          -1.1326    2.8224    0.7988 H       1  LIG1        0.0279
     14 H          -0.2567    1.8668    1.9909 H       1  LIG1        0.0279
     15 C          -2.4088   -0.7542   -0.2421 C.ar    1  LIG1        0.0849
     16 C          -3.6447   -0.1393   -0.2616 C.ar    1  LIG1        0.0552
     17 C          -4.6421   -1.1279   -0.0262 C.ar    1  LIG1       -0.0024
     18 C          -3.9850   -2.3386    0.1173 C.ar    1  LIG1        0.0699
     19 N          -2.6393   -2.1003   -0.0114 N.ar    1  LIG1       -0.3501
     20 H          -1.9215   -2.8019    0.0567 H       1  LIG1        0.1661
     21 N          -3.8960    1.2333   -0.4201 N.pl3   1  LIG1       -0.3561
     22 H          -3.1006    1.7171   -0.8195 H       1  LIG1        0.1424
     23 H          -4.7211    1.4118   -0.9793 H       1  LIG1        0.1424
     24 C          -6.1094   -0.8675    0.1063 C.3     1  LIG1       -0.0359
     25 H          -6.6353   -1.7590    0.4525 H       1  LIG1        0.0279
     26 H          -6.5722   -0.5695   -0.8434 H       1  LIG1        0.0279
     27 H          -6.2964   -0.0574    0.8190 H       1  LIG1        0.0279
     28 C          -4.4962   -3.6730    0.3771 C.ar    1  LIG1        0.0844
     29 C          -5.5023   -4.3878   -0.2387 C.ar    1  LIG1        0.0546
     30 C          -5.5783   -5.6722    0.3787 C.ar    1  LIG1       -0.0118
     31 C          -4.6090   -5.6978    1.3504 C.ar    1  LIG1        0.0069
     32 N          -3.9410   -4.5059    1.3389 N.ar    1  LIG1       -0.3578
     33 H          -3.3339   -4.1789    2.0718 H       1  LIG1        0.1654
     34 H          -4.3493   -6.4821    2.0459 H       1  LIG1        0.0810
     35 N          -6.3382   -3.9431   -1.2762 N.pl3   1  LIG1       -0.3561
     36 H          -5.9642   -3.1186   -1.7309 H       1  LIG1        0.1424
     37 H          -6.5119   -4.6629   -1.9673 H       1  LIG1        0.1424
     38 C          -6.5289   -6.7647    0.0067 C.3     1  LIG1       -0.0365
     39 H          -6.4298   -7.6194    0.6801 H       1  LIG1        0.0279
     40 H          -6.3573   -7.1345   -1.0119 H       1  LIG1        0.0279
     41 H          -7.5674   -6.4207    0.0522 H       1  LIG1        0.0279
@<TRIPOS>BOND
     1     6     5    1
     2    37    35    1
     3     7     1    1
     4    36    35    1
     5     1     5   ar
     6     1     2   ar
     7     5     4   ar
     8    35    29    1
     9    40    38    1
    10    23    21    1
    11    26    24    1
    12    22    21    1
    13     9     8    1
    14     2     8    1
    15     2     3   ar
    16     4    15    1
    17     4     3   ar
    18    21    16    1
    19    16    15   ar
    20    16    17   ar
    21    15    19   ar
    22    29    28   ar
    23    29    30   ar
    24     8    10    1
    25    17    24    1
    26    17    18   ar
    27    19    20    1
    28    19    18   ar
    29    38    41    1
    30    38    30    1
    31    38    39    1
    32     3    11    1
    33    24    25    1
    34    24    27    1
    35    18    28    1
    36    28    32   ar
    37    30    31   ar
    38    13    11    1
    39    11    12    1
    40    11    14    1
    41    32    31   ar
    42    32    33    1
    43    31    34    1
