@<TRIPOS>MOLECULE
mol_data/opt/cam/geoms/mol2/13hi13hi-13hi.out
 41 43 0 0 0
SMALL
GASTEIGER

@<TRIPOS>ATOM
      1 C           1.2419   -0.3163   -0.1608 C.ar    1  LIG1        0.0233
      2 C           0.8602    1.0045   -0.0917 C.ar    1  LIG1        0.0457
      3 C          -0.5614    1.0470   -0.0298 C.ar    1  LIG1       -0.0031
      4 C          -0.9959   -0.2702   -0.0735 C.ar    1  LIG1        0.0695
      5 N           0.1056   -1.0783   -0.1395 N.ar    1  LIG1       -0.3576
      6 H           0.0072   -2.0869   -0.1461 H       1  LIG1        0.1654
      7 H           2.2243   -0.7609   -0.2128 H       1  LIG1        0.0826
      8 N           1.6904    2.1494   -0.0249 N.pl3   1  LIG1       -0.3566
      9 H           2.6700    1.8962    0.0148 H       1  LIG1        0.1424
     10 H           1.5559    2.7595   -0.8240 H       1  LIG1        0.1424
     11 C          -1.3745    2.2975    0.0951 C.3     1  LIG1       -0.0359
     12 H          -2.1500    2.2098    0.8630 H       1  LIG1        0.0279
     13 H          -1.8733    2.5834   -0.8396 H       1  LIG1        0.0279
     14 H          -0.7247    3.1263    0.3879 H       1  LIG1        0.0279
     15 C          -2.3163   -0.8643   -0.0553 C.ar    1  LIG1        0.0849
     16 C          -2.6838   -2.2022   -0.0274 C.ar    1  LIG1        0.0552
     17 C          -4.1050   -2.2771   -0.0229 C.ar    1  LIG1       -0.0024
     18 C          -4.5643   -0.9706   -0.0521 C.ar    1  LIG1        0.0699
     19 N          -3.4723   -0.1398   -0.0697 N.ar    1  LIG1       -0.3501
     20 H          -3.5919    0.8671   -0.1092 H       1  LIG1        0.1661
     21 N          -1.7429   -3.2821   -0.0088 N.pl3   1  LIG1       -0.3561
     22 H          -1.8117   -3.8217    0.8494 H       1  LIG1        0.1424
     23 H          -1.9004   -3.9235   -0.7803 H       1  LIG1        0.1424
     24 C          -4.9114   -3.5382    0.0083 C.3     1  LIG1       -0.0359
     25 H          -4.2523   -4.4097    0.0443 H       1  LIG1        0.0279
     26 H          -5.5418   -3.6577   -0.8815 H       1  LIG1        0.0279
     27 H          -5.5603   -3.5996    0.8904 H       1  LIG1        0.0279
     28 C          -5.8919   -0.3955   -0.0675 C.ar    1  LIG1        0.0844
     29 C          -6.2788    0.9331   -0.0933 C.ar    1  LIG1        0.0546
     30 C          -7.7047    0.9845   -0.1003 C.ar    1  LIG1       -0.0118
     31 C          -8.1404   -0.3150   -0.0789 C.ar    1  LIG1        0.0069
     32 N          -7.0435   -1.1404   -0.0586 N.ar    1  LIG1       -0.3578
     33 H          -7.0726   -2.1446   -0.0419 H       1  LIG1        0.1654
     34 H          -9.1426   -0.7163   -0.0761 H       1  LIG1        0.0810
     35 N          -5.3552    2.0277   -0.1095 N.pl3   1  LIG1       -0.3561
     36 H          -5.4982    2.6143   -0.9267 H       1  LIG1        0.1424
     37 H          -5.4785    2.6231    0.7047 H       1  LIG1        0.1424
     38 C          -8.5431    2.2228   -0.1260 C.3     1  LIG1       -0.0365
     39 H          -9.6076    1.9782   -0.1234 H       1  LIG1        0.0279
     40 H          -8.3480    2.8287   -1.0179 H       1  LIG1        0.0279
     41 H          -8.3511    2.8625    0.7426 H       1  LIG1        0.0279
@<TRIPOS>BOND
     1    40    38    1
     2    36    35    1
     3    26    24    1
     4    13    11    1
     5    10     8    1
     6    23    21    1
     7     7     1    1
     8     1     5   ar
     9     1     2   ar
    10     6     5    1
    11     5     4   ar
    12    38    39    1
    13    38    30    1
    14    38    41    1
    15    35    29    1
    16    35    37    1
    17    20    19    1
    18    30    29   ar
    19    30    31   ar
    20    29    28   ar
    21     2     3   ar
    22     2     8    1
    23    31    34    1
    24    31    32   ar
    25     4    15    1
    26     4     3   ar
    27    19    15   ar
    28    19    18   ar
    29    28    32   ar
    30    28    18    1
    31    32    33    1
    32    15    16   ar
    33    18    17   ar
    34     3    11    1
    35    16    17   ar
    36    16    21    1
    37     8     9    1
    38    17    24    1
    39    21    22    1
    40    24    25    1
    41    24    27    1
    42    11    14    1
    43    11    12    1
