@<TRIPOS>MOLECULE
mol_data/opt/cam/geoms/mol2/13hi13hi-13hi-13hi.out
 54 57 0 0 0
SMALL
GASTEIGER

@<TRIPOS>ATOM
      1 C           1.3260   -0.4985   -0.4231 C.ar    1  LIG1        0.0233
      2 C           0.9851    0.7450   -0.9055 C.ar    1  LIG1        0.0457
      3 C          -0.4314    0.8682   -0.8338 C.ar    1  LIG1       -0.0031
      4 C          -0.9038   -0.3267   -0.3105 C.ar    1  LIG1        0.0695
      5 N           0.1706   -1.1335   -0.0574 N.ar    1  LIG1       -0.3576
      6 H           0.0427   -2.0470    0.3638 H       1  LIG1        0.1654
      7 H           2.2927   -0.9645   -0.3062 H       1  LIG1        0.0826
      8 N           1.8476    1.7788   -1.3438 N.pl3   1  LIG1       -0.3566
      9 H           2.8202    1.5387   -1.1964 H       1  LIG1        0.1424
     10 H           1.7209    1.9843   -2.3290 H       1  LIG1        0.1424
     11 C          -1.2030    2.0912   -1.2210 C.3     1  LIG1       -0.0359
     12 H          -1.9516    2.3601   -0.4675 H       1  LIG1        0.0279
     13 H          -1.7206    1.9909   -2.1845 H       1  LIG1        0.0279
     14 H          -0.5199    2.9399   -1.3083 H       1  LIG1        0.0279
     15 C          -2.2377   -0.8050   -0.0152 C.ar    1  LIG1        0.0849
     16 C          -2.6433   -1.9853    0.5798 C.ar    1  LIG1        0.0552
     17 C          -4.0677   -1.9948    0.6409 C.ar    1  LIG1       -0.0024
     18 C          -4.4997   -0.8165    0.0626 C.ar    1  LIG1        0.0699
     19 N          -3.3778   -0.1048   -0.3144 N.ar    1  LIG1       -0.3501
     20 H          -3.4065    0.7362   -0.8657 H       1  LIG1        0.1661
     21 N          -1.7356   -2.9834    1.0628 N.pl3   1  LIG1       -0.3561
     22 H          -1.7849   -3.0591    2.0758 H       1  LIG1        0.1424
     23 H          -1.9773   -3.8978    0.6918 H       1  LIG1        0.1424
     24 C          -4.9090   -3.0498    1.2883 C.3     1  LIG1       -0.0359
     25 H          -4.5682   -3.2565    2.3090 H       1  LIG1        0.0279
     26 H          -4.8759   -4.0029    0.7465 H       1  LIG1        0.0279
     27 H          -5.9545   -2.7411    1.3398 H       1  LIG1        0.0279
     28 C          -5.8309   -0.2814   -0.1554 C.ar    1  LIG1        0.0849
     29 C          -6.9631   -0.8716   -0.6893 C.ar    1  LIG1        0.0552
     30 C          -8.0045    0.0949   -0.7060 C.ar    1  LIG1       -0.0024
     31 C          -7.4613    1.2678   -0.1986 C.ar    1  LIG1        0.0699
     32 N          -6.1570    1.0284    0.1251 N.ar    1  LIG1       -0.3501
     33 H          -5.6128    1.7214    0.6293 H       1  LIG1        0.1661
     34 N          -7.0930   -2.2070   -1.1218 N.pl3   1  LIG1       -0.3561
     35 H          -7.5321   -2.2656   -2.0335 H       1  LIG1        0.1424
     36 H          -6.1871   -2.6589   -1.1717 H       1  LIG1        0.1424
     37 C          -9.4055   -0.1584   -1.1713 C.3     1  LIG1       -0.0359
     38 H          -9.5949   -1.2340   -1.2192 H       1  LIG1        0.0279
     39 H          -9.6137    0.2510   -2.1688 H       1  LIG1        0.0279
     40 H         -10.1472    0.2543   -0.4783 H       1  LIG1        0.0279
     41 C          -8.0200    2.5823    0.0392 C.ar    1  LIG1        0.0844
     42 C          -7.4618    3.6754    0.6785 C.ar    1  LIG1        0.0546
     43 C          -8.4085    4.7422    0.6506 C.ar    1  LIG1       -0.0118
     44 C          -9.5121    4.2644   -0.0084 C.ar    1  LIG1        0.0069
     45 N          -9.2727    2.9623   -0.3693 N.ar    1  LIG1       -0.3578
     46 H          -9.8991    2.3805   -0.8975 H       1  LIG1        0.1654
     47 H         -10.4474    4.7482   -0.2462 H       1  LIG1        0.0810
     48 N          -6.1500    3.6734    1.2538 N.pl3   1  LIG1       -0.3561
     49 H          -5.5966    4.4470    0.8967 H       1  LIG1        0.1424
     50 H          -6.1926    3.7856    2.2633 H       1  LIG1        0.1424
     51 C          -8.2184    6.1069    1.2320 C.3     1  LIG1       -0.0365
     52 H          -9.1023    6.7291    1.0744 H       1  LIG1        0.0279
     53 H          -7.3668    6.6279    0.7801 H       1  LIG1        0.0279
     54 H          -8.0325    6.0676    2.3110 H       1  LIG1        0.0279
@<TRIPOS>BOND
     1    10     8    1
     2    13    11    1
     3    39    37    1
     4    35    34    1
     5     8     9    1
     6     8     2    1
     7    14    11    1
     8    11     3    1
     9    11    12    1
    10    38    37    1
    11    36    34    1
    12    37    30    1
    13    37    40    1
    14    34    29    1
    15     2     3   ar
    16     2     1   ar
    17    46    45    1
    18    20    19    1
    19     3     4   ar
    20    30    29   ar
    21    30    31   ar
    22    29    28   ar
    23     1     7    1
    24     1     5   ar
    25    45    44   ar
    26    45    41   ar
    27    19    15   ar
    28    19    18   ar
    29     4     5   ar
    30     4    15    1
    31    47    44    1
    32    31    41    1
    33    31    32   ar
    34    28    18    1
    35    28    32   ar
    36     5     6    1
    37    15    16   ar
    38    44    43   ar
    39    41    42   ar
    40    18    17   ar
    41    32    33    1
    42    16    17   ar
    43    16    21    1
    44    17    24    1
    45    43    42   ar
    46    43    51    1
    47    42    48    1
    48    23    21    1
    49    26    24    1
    50    53    51    1
    51    49    48    1
    52    21    22    1
    53    52    51    1
    54    51    54    1
    55    48    50    1
    56    24    27    1
    57    24    25    1
