@<TRIPOS>MOLECULE
mol_data/opt/cam/geoms/mol2/13hi13hi13hi13hi.out
 54 57 0 0 0
SMALL
GASTEIGER

@<TRIPOS>ATOM
      1 C           0.5337    0.3229   -2.2345 C.ar    1  LIG1        0.0233
      2 C           0.7304    1.0606   -1.0954 C.ar    1  LIG1        0.0457
      3 C          -0.3600    0.8008   -0.2091 C.ar    1  LIG1       -0.0031
      4 C          -1.1967   -0.0926   -0.8506 C.ar    1  LIG1        0.0695
      5 N          -0.6281   -0.4036   -2.0650 N.ar    1  LIG1       -0.3576
      6 H          -1.1289   -0.8588   -2.8093 H       1  LIG1        0.1654
      7 H           1.1364    0.2269   -3.1247 H       1  LIG1        0.0826
      8 N           1.8415    1.8539   -0.7592 N.pl3   1  LIG1       -0.3566
      9 H           2.4109    2.0917   -1.5609 H       1  LIG1        0.1424
     10 H           1.5753    2.7025   -0.2754 H       1  LIG1        0.1424
     11 C          -0.4856    1.3287    1.1849 C.3     1  LIG1       -0.0359
     12 H          -1.3178    0.8556    1.7089 H       1  LIG1        0.0279
     13 H          -0.6640    2.4113    1.2095 H       1  LIG1        0.0279
     14 H           0.4322    1.1447    1.7535 H       1  LIG1        0.0279
     15 C          -2.4525   -0.6891   -0.4306 C.ar    1  LIG1        0.0849
     16 C          -3.5928   -0.1145    0.0938 C.ar    1  LIG1        0.0552
     17 C          -4.5542   -1.1419    0.3114 C.ar    1  LIG1       -0.0024
     18 C          -3.9774   -2.3308   -0.1039 C.ar    1  LIG1        0.0699
     19 N          -2.7083   -2.0456   -0.5448 N.ar    1  LIG1       -0.3501
     20 H          -2.0581   -2.7205   -0.9104 H       1  LIG1        0.1661
     21 N          -3.7734    1.2379    0.4262 N.pl3   1  LIG1       -0.3561
     22 H          -3.0895    1.8313   -0.0283 H       1  LIG1        0.1424
     23 H          -4.7073    1.5661    0.2133 H       1  LIG1        0.1424
     24 C          -5.8988   -0.9540    0.9396 C.3     1  LIG1       -0.0359
     25 H          -6.3774   -1.9151    1.1348 H       1  LIG1        0.0279
     26 H          -6.5828   -0.3770    0.3041 H       1  LIG1        0.0279
     27 H          -5.8120   -0.4118    1.8872 H       1  LIG1        0.0279
     28 C          -4.4949   -3.6879   -0.1032 C.ar    1  LIG1        0.0849
     29 C          -5.6842   -4.1994   -0.5825 C.ar    1  LIG1        0.0552
     30 C          -5.6925   -5.6053   -0.3576 C.ar    1  LIG1       -0.0024
     31 C          -4.4881   -5.9248    0.2468 C.ar    1  LIG1        0.0699
     32 N          -3.7749   -4.7615    0.3963 N.ar    1  LIG1       -0.3501
     33 H          -2.8687   -4.6966    0.8284 H       1  LIG1        0.1661
     34 N          -6.7468   -3.4706   -1.1406 N.pl3   1  LIG1       -0.3561
     35 H          -6.4560   -2.5466   -1.4367 H       1  LIG1        0.1424
     36 H          -7.1845   -3.9565   -1.9136 H       1  LIG1        0.1424
     37 C          -6.8316   -6.5265   -0.6607 C.3     1  LIG1       -0.0359
     38 H          -6.6614   -7.5144   -0.2290 H       1  LIG1        0.0279
     39 H          -6.9849   -6.6684   -1.7383 H       1  LIG1        0.0279
     40 H          -7.7684   -6.1294   -0.2559 H       1  LIG1        0.0279
     41 C          -3.9634   -7.1991    0.7050 C.ar    1  LIG1        0.0844
     42 C          -3.8723   -8.4180    0.0657 C.ar    1  LIG1        0.0546
     43 C          -3.2375   -9.3393    0.9518 C.ar    1  LIG1       -0.0118
     44 C          -2.9584   -8.6462    2.1033 C.ar    1  LIG1        0.0069
     45 N          -3.3732   -7.3532    1.9520 N.ar    1  LIG1       -0.3578
     46 H          -3.4827   -6.6927    2.7032 H       1  LIG1        0.1654
     47 H          -2.4925   -8.9847    3.0169 H       1  LIG1        0.0810
     48 N          -4.3379   -8.7315   -1.2217 N.pl3   1  LIG1       -0.3561
     49 H          -4.5216   -7.8979   -1.7672 H       1  LIG1        0.1424
     50 H          -3.6997   -9.3344   -1.7268 H       1  LIG1        0.1424
     51 C          -2.9333  -10.7718    0.6504 C.3     1  LIG1       -0.0365
     52 H          -2.5099  -11.2764    1.5221 H       1  LIG1        0.0279
     53 H          -2.2099  -10.8785   -0.1675 H       1  LIG1        0.0279
     54 H          -3.8359  -11.3159    0.3536 H       1  LIG1        0.0279
@<TRIPOS>BOND
     1     7     1    1
     2     6     5    1
     3     1     5   ar
     4     1     2   ar
     5     5     4   ar
     6    36    34    1
     7    49    48    1
     8    39    37    1
     9    50    48    1
    10     9     8    1
    11    35    34    1
    12    48    42    1
    13    34    29    1
    14     2     8    1
    15     2     3   ar
    16    20    19    1
    17     4    15    1
    18     4     3   ar
    19     8    10    1
    20    37    30    1
    21    37    40    1
    22    37    38    1
    23    29    30   ar
    24    29    28   ar
    25    19    15   ar
    26    19    18   ar
    27    15    16   ar
    28    30    31   ar
    29     3    11    1
    30    53    51    1
    31    18    28    1
    32    18    17   ar
    33    28    32   ar
    34    22    21    1
    35    42    41   ar
    36    42    43   ar
    37    16    17   ar
    38    16    21    1
    39    23    21    1
    40    31    32   ar
    41    31    41    1
    42    26    24    1
    43    17    24    1
    44    54    51    1
    45    32    33    1
    46    51    43    1
    47    51    52    1
    48    41    45   ar
    49    24    25    1
    50    24    27    1
    51    43    44   ar
    52    11    13    1
    53    11    12    1
    54    11    14    1
    55    45    44   ar
    56    45    46    1
    57    44    47    1
