@<TRIPOS>MOLECULE
mol_data/opt/cam/geoms/mol2/13hi13hi.out
 28 29 0 0 0
SMALL
GASTEIGER

@<TRIPOS>ATOM
      1 C           1.1366   -0.3124   -0.6693 C.ar    1  LIG1        0.0233
      2 C           0.8278    0.9507   -0.2328 C.ar    1  LIG1        0.0457
      3 C          -0.5515    0.9630    0.1397 C.ar    1  LIG1       -0.0031
      4 C          -1.0423   -0.3080   -0.0931 C.ar    1  LIG1        0.0694
      5 N          -0.0029   -1.0827   -0.5525 N.ar    1  LIG1       -0.3576
      6 H          -0.1318   -1.9855   -0.9767 H       1  LIG1        0.1654
      7 H           2.0701   -0.7306   -1.0135 H       1  LIG1        0.0826
      8 N           1.6975    2.0415   -0.0537 N.pl3   1  LIG1       -0.3566
      9 H           2.5772    1.9245   -0.5394 H       1  LIG1        0.1424
     10 H           1.2761    2.9182   -0.3345 H       1  LIG1        0.1424
     11 C          -1.2690    2.1190    0.7618 C.3     1  LIG1       -0.0359
     12 H          -2.2465    1.8148    1.1402 H       1  LIG1        0.0279
     13 H          -1.4398    2.9405    0.0542 H       1  LIG1        0.0279
     14 H          -0.6884    2.5312    1.5938 H       1  LIG1        0.0279
     15 C          -2.3724   -0.8626    0.0860 C.ar    1  LIG1        0.0844
     16 C          -3.6074   -0.3866   -0.3028 C.ar    1  LIG1        0.0546
     17 C          -4.5952   -1.3378    0.0919 C.ar    1  LIG1       -0.0118
     18 C          -3.9250   -2.3674    0.7052 C.ar    1  LIG1        0.0069
     19 N          -2.5864   -2.0950    0.6859 N.ar    1  LIG1       -0.3578
     20 H          -1.8892   -2.5746    1.2299 H       1  LIG1        0.1654
     21 H          -4.3094   -3.2729    1.1509 H       1  LIG1        0.0810
     22 N          -3.8754    0.8306   -0.9513 N.pl3   1  LIG1       -0.3561
     23 H          -3.0369    1.2302   -1.3559 H       1  LIG1        0.1424
     24 H          -4.5855    0.7368   -1.6676 H       1  LIG1        0.1424
     25 C          -6.0667   -1.2173   -0.1442 C.3     1  LIG1       -0.0365
     26 H          -6.6096   -2.0425    0.3229 H       1  LIG1        0.0279
     27 H          -6.3176   -1.2291   -1.2121 H       1  LIG1        0.0279
     28 H          -6.4597   -0.2818    0.2672 H       1  LIG1        0.0279
@<TRIPOS>BOND
     1    24    22    1
     2    23    22    1
     3    27    25    1
     4     7     1    1
     5     6     5    1
     6    22    16    1
     7     1     5   ar
     8     1     2   ar
     9     5     4   ar
    10     9     8    1
    11    10     8    1
    12    16    15   ar
    13    16    17   ar
    14     2     8    1
    15     2     3   ar
    16    25    17    1
    17    25    28    1
    18    25    26    1
    19     4    15    1
    20     4     3   ar
    21    13    11    1
    22    15    19   ar
    23    17    18   ar
    24     3    11    1
    25    19    18   ar
    26    19    20    1
    27    18    21    1
    28    11    12    1
    29    11    14    1
