@<TRIPOS>MOLECULE
mol_data/opt/cam/geoms/mol2/13hi13hi-4hi13hi.out
 56 59 0 0 0
SMALL
GASTEIGER

@<TRIPOS>ATOM
      1 C           1.3834   -0.4122    0.0441 C.ar    1  LIG1        0.0233
      2 C           1.0338    0.8313    0.5213 C.ar    1  LIG1        0.0457
      3 C          -0.3875    0.9112    0.5324 C.ar    1  LIG1       -0.0031
      4 C          -0.8522   -0.3021    0.0455 C.ar    1  LIG1        0.0694
      5 N           0.2289   -1.0922   -0.2310 N.ar    1  LIG1       -0.3576
      6 H           0.1040   -2.0371   -0.5765 H       1  LIG1        0.1654
      7 H           2.3554   -0.8570   -0.1072 H       1  LIG1        0.0826
      8 N           1.8890    1.8573    0.9900 N.pl3   1  LIG1       -0.3566
      9 H           2.8554    1.5559    1.0109 H       1  LIG1        0.1424
     10 H           1.8316    2.6901    0.4139 H       1  LIG1        0.1424
     11 C          -1.1789    2.0819    1.0276 C.3     1  LIG1       -0.0359
     12 H          -1.6994    2.6248    0.2281 H       1  LIG1        0.0279
     13 H          -0.5125    2.7905    1.5249 H       1  LIG1        0.0279
     14 H          -1.9312    1.7854    1.7675 H       1  LIG1        0.0279
     15 C          -2.1868   -0.8098   -0.1896 C.ar    1  LIG1        0.0848
     16 C          -2.5970   -2.0533   -0.6402 C.ar    1  LIG1        0.0552
     17 C          -4.0180   -2.0549   -0.7248 C.ar    1  LIG1       -0.0038
     18 C          -4.4457   -0.8022   -0.3203 C.ar    1  LIG1        0.0535
     19 N          -3.3192   -0.0666   -0.0084 N.ar    1  LIG1       -0.3513
     20 H          -3.3508    0.8870    0.3161 H       1  LIG1        0.1660
     21 N          -1.6915   -3.1119   -0.9754 N.pl3   1  LIG1       -0.3561
     22 H          -1.8626   -3.9336   -0.4026 H       1  LIG1        0.1424
     23 H          -1.8096   -3.3996   -1.9430 H       1  LIG1        0.1424
     24 C          -4.8508   -3.2018   -1.2048 C.3     1  LIG1       -0.0359
     25 H          -5.0521   -3.9341   -0.4134 H       1  LIG1        0.0279
     26 H          -4.3432   -3.7410   -2.0113 H       1  LIG1        0.0279
     27 H          -5.8159   -2.8630   -1.5872 H       1  LIG1        0.0279
     28 C          -6.0811    1.1014   -0.4900 C.ar    1  LIG1        0.0344
     29 C          -7.3693    1.5853   -0.2898 C.ar    1  LIG1       -0.0310
     30 C          -5.7917   -0.2388   -0.1654 C.ar    1  LIG1        0.0195
     31 C          -8.4075    0.7869    0.2044 C.ar    1  LIG1        0.0048
     32 H          -7.5778    2.6282   -0.5121 H       1  LIG1        0.0643
     33 C          -6.8360   -1.0237    0.3278 C.ar    1  LIG1       -0.0473
     34 C          -8.1344   -0.5602    0.5114 C.ar    1  LIG1       -0.0406
     35 H          -6.6141   -2.0523    0.5935 H       1  LIG1        0.0627
     36 N          -5.0711    1.9620   -0.9547 N.pl3   1  LIG1       -0.3574
     37 H          -4.4283    1.5179   -1.5990 H       1  LIG1        0.1423
     38 H          -5.4339    2.8219   -1.3439 H       1  LIG1        0.1423
     39 C          -9.1900   -1.5134    1.0144 C.3     1  LIG1       -0.0391
     40 H          -8.8882   -2.5471    0.8312 H       1  LIG1        0.0278
     41 H         -10.1508   -1.3463    0.5223 H       1  LIG1        0.0278
     42 H          -9.3578   -1.4254    2.0952 H       1  LIG1        0.0278
     43 C          -9.7324    1.3978    0.3464 C.ar    1  LIG1        0.0680
     44 C         -10.3824    2.3031   -0.4747 C.ar    1  LIG1        0.0531
     45 C         -11.6335    2.6324    0.1215 C.ar    1  LIG1       -0.0119
     46 C         -11.7058    1.9215    1.2949 C.ar    1  LIG1        0.0069
     47 N         -10.5764    1.1703    1.4213 N.ar    1  LIG1       -0.3589
     48 H         -10.3206    0.6421    2.2367 H       1  LIG1        0.1654
     49 H         -12.4854    1.8972    2.0418 H       1  LIG1        0.0810
     50 N          -9.9087    2.8492   -1.6814 N.pl3   1  LIG1       -0.3561
     51 H          -9.2171    2.2557   -2.1234 H       1  LIG1        0.1424
     52 H         -10.6610    3.0309   -2.3348 H       1  LIG1        0.1424
     53 C         -12.6534    3.5687   -0.4432 C.3     1  LIG1       -0.0365
     54 H         -13.5056    3.6750    0.2322 H       1  LIG1        0.0279
     55 H         -13.0474    3.2198   -1.4060 H       1  LIG1        0.0279
     56 H         -12.2347    4.5670   -0.6098 H       1  LIG1        0.0279
@<TRIPOS>BOND
     1    52    50    1
     2    51    50    1
     3    26    24    1
     4    23    21    1
     5    50    44    1
     6    37    36    1
     7    27    24    1
     8    55    53    1
     9    38    36    1
    10    24    17    1
    11    24    25    1
    12    21    16    1
    13    21    22    1
    14    36    28    1
    15    17    16   ar
    16    17    18   ar
    17    16    15   ar
    18    56    53    1
    19     6     5    1
    20    32    29    1
    21    28    29   ar
    22    28    30   ar
    23    44    45   ar
    24    44    43   ar
    25    53    45    1
    26    53    54    1
    27    18    30    1
    28    18    19   ar
    29    29    31   ar
    30     5     1   ar
    31     5     4   ar
    32    15    19   ar
    33    15     4    1
    34    30    33   ar
    35     7     1    1
    36    19    20    1
    37     1     2   ar
    38     4     3   ar
    39    45    46   ar
    40    31    43    1
    41    31    34   ar
    42    12    11    1
    43    33    34   ar
    44    33    35    1
    45    43    47   ar
    46    10     8    1
    47    34    39    1
    48     2     3   ar
    49     2     8    1
    50    41    39    1
    51     3    11    1
    52    40    39    1
    53     8     9    1
    54    39    42    1
    55    11    13    1
    56    11    14    1
    57    46    47   ar
    58    46    49    1
    59    47    48    1
