@<TRIPOS>MOLECULE
mol_data/opt/cam/geoms/mol2/13hi6ef-12dh-12fe-.out
 47 50 0 0 0
SMALL
GASTEIGER

@<TRIPOS>ATOM
      1 C           1.1988    0.3402   -0.8646 C.ar    1  LIG1        0.0233
      2 C           0.8372    1.2759    0.0790 C.ar    1  LIG1        0.0456
      3 C          -0.4996    1.0020    0.4704 C.ar    1  LIG1       -0.0045
      4 C          -0.9162   -0.1069   -0.2626 C.ar    1  LIG1        0.0540
      5 N           0.1363   -0.4941   -1.0539 N.ar    1  LIG1       -0.3587
      6 H           0.1318   -1.3172   -1.6336 H       1  LIG1        0.1654
      7 H           2.1266    0.2038   -1.3992 H       1  LIG1        0.0826
      8 N           1.6356    2.2883    0.6470 N.pl3   1  LIG1       -0.3566
      9 H           2.5661    2.3122    0.2503 H       1  LIG1        0.1424
     10 H           1.2185    3.2072    0.5564 H       1  LIG1        0.1424
     11 C          -1.2160    1.7626    1.5419 C.3     1  LIG1       -0.0360
     12 H          -1.8948    1.1250    2.1131 H       1  LIG1        0.0279
     13 H          -1.8057    2.6018    1.1521 H       1  LIG1        0.0279
     14 H          -0.4823    2.1788    2.2378 H       1  LIG1        0.0279
     15 C          -2.3856   -2.1601   -0.6151 C.ar    1  LIG1        0.1233
     16 C          -2.2055   -0.7899   -0.2794 C.ar    1  LIG1        0.0359
     17 C          -3.3619   -0.0860    0.0473 C.ar    1  LIG1       -0.0062
     18 C          -4.6033   -0.7049    0.0561 C.ar    1  LIG1        0.1465
     19 C          -4.6742   -2.0565   -0.3193 C.ar    1  LIG1        0.1499
     20 N          -3.5788   -2.7452   -0.6329 N.ar    1  LIG1       -0.2309
     21 H          -3.3226    0.9662    0.2930 H       1  LIG1        0.0662
     22 C          -1.2913   -3.0290   -0.9618 C.1     1  LIG1       -0.0491
     23 C          -0.3986   -3.7778   -1.2665 C.1     1  LIG1       -0.1124
     24 H           0.3812   -4.4619   -1.5120 H       1  LIG1        0.1232
     25 O          -5.6601    0.0447    0.4296 O.3     1  LIG1       -0.5045
     26 H          -6.4658   -0.4863    0.4672 H       1  LIG1        0.2922
     27 C          -5.9376   -2.7981   -0.3596 C.ar    1  LIG1        0.1767
     28 C          -7.2043   -2.4922   -0.8126 C.ar    1  LIG1        0.1204
     29 C          -8.0266   -3.6520   -0.5884 C.ar    1  LIG1        0.0925
     30 C          -7.1888   -4.5800   -0.0313 C.ar    1  LIG1        0.1961
     31 O          -5.9274   -4.0530    0.1021 O.2     1  LIG1       -0.4467
     32 N          -8.0684   -0.3758   -2.0003 N.1     1  LIG1       -0.1907
     33 C          -7.6488   -1.3146   -1.4669 C.1     1  LIG1        0.1049
     34 N          -9.3782   -3.7379   -0.8355 N.pl3   1  LIG1       -0.3539
     35 H          -9.7289   -3.0610   -1.4981 H       1  LIG1        0.1425
     36 H          -9.7237   -4.6764   -0.9965 H       1  LIG1        0.1425
     37 C          -7.4050   -5.9347    0.3927 C.ar    1  LIG1        0.2139
     38 C          -8.3405   -6.8651    0.0557 C.ar    1  LIG1        0.1815
     39 C          -8.0945   -8.0284    0.8584 C.ar    1  LIG1        0.1045
     40 C          -7.0060   -7.7153    1.6180 C.ar    1  LIG1        0.1118
     41 O          -6.5884   -6.4655    1.3571 O.2     1  LIG1       -0.4547
     42 H          -6.4454   -8.2725    2.3509 H       1  LIG1        0.1043
     43 O          -9.3148   -6.7193   -0.8788 O.3     1  LIG1       -0.5023
     44 H          -9.8483   -7.5260   -0.8925 H       1  LIG1        0.2923
     45 C          -8.8583   -9.2225    0.7964 C.1     1  LIG1       -0.0628
     46 C          -9.5543  -10.1997    0.6884 C.1     1  LIG1       -0.1137
     47 H         -10.1515  -11.0795    0.6124 H       1  LIG1        0.1232
@<TRIPOS>BOND
     1    32    33    3
     2     6     5    1
     3    24    23    1
     4    35    34    1
     5    33    28    1
     6     7     1    1
     7    23    22    3
     8     5     1   ar
     9     5     4   ar
    10    36    34    1
    11    22    15    1
    12    44    43    1
    13    43    38    1
    14     1     2   ar
    15    34    29    1
    16    28    29   ar
    17    28    27   ar
    18    20    15   ar
    19    20    19   ar
    20    15    16   ar
    21    29    30   ar
    22    27    19    1
    23    27    31   ar
    24    19    18   ar
    25    16     4    1
    26    16    17   ar
    27     4     3   ar
    28    30    31   ar
    29    30    37    1
    30    17    18   ar
    31    17    21    1
    32    38    37   ar
    33    38    39   ar
    34    18    25    1
    35     2     3   ar
    36     2     8    1
    37     9     8    1
    38    37    41   ar
    39    25    26    1
    40     3    11    1
    41    10     8    1
    42    47    46    1
    43    46    45    3
    44    45    39    1
    45    39    40   ar
    46    13    11    1
    47    41    40   ar
    48    11    12    1
    49    11    14    1
    50    40    42    1
