@<TRIPOS>MOLECULE
mol_data/opt/cam/geoms/mol2/13hi13hi-13hi-13hi-.out
 54 57 0 0 0
SMALL
GASTEIGER

@<TRIPOS>ATOM
      1 C           1.2940   -0.3729   -0.5589 C.ar    1  LIG1        0.0233
      2 C           0.9088    0.9075   -0.8875 C.ar    1  LIG1        0.0457
      3 C          -0.5046    0.9897   -0.7391 C.ar    1  LIG1       -0.0031
      4 C          -0.9303   -0.2652   -0.3279 C.ar    1  LIG1        0.0695
      5 N           0.1691   -1.0699   -0.2129 N.ar    1  LIG1       -0.3576
      6 H           0.0783   -2.0253    0.1145 H       1  LIG1        0.1654
      7 H           2.2734   -0.8264   -0.5367 H       1  LIG1        0.0826
      8 N           1.7305    2.0022   -1.2476 N.pl3   1  LIG1       -0.3566
      9 H           2.7135    1.7727   -1.1672 H       1  LIG1        0.1424
     10 H           1.5562    2.3108   -2.1980 H       1  LIG1        0.1424
     11 C          -1.3142    2.2299   -0.9561 C.3     1  LIG1       -0.0359
     12 H          -2.0385    2.3936   -0.1506 H       1  LIG1        0.0279
     13 H          -1.8656    2.2281   -1.9061 H       1  LIG1        0.0279
     14 H          -0.6515    3.0988   -0.9700 H       1  LIG1        0.0279
     15 C          -2.2398   -0.8025   -0.0253 C.ar    1  LIG1        0.0849
     16 C          -2.5954   -2.0465    0.4614 C.ar    1  LIG1        0.0552
     17 C          -4.0154   -2.0972    0.5798 C.ar    1  LIG1       -0.0024
     18 C          -4.4967   -0.8779    0.1455 C.ar    1  LIG1        0.0699
     19 N          -3.4054   -0.1008   -0.2000 N.ar    1  LIG1       -0.3501
     20 H          -3.4722    0.7728   -0.6946 H       1  LIG1        0.1661
     21 N          -1.6479   -3.0674    0.7971 N.pl3   1  LIG1       -0.3561
     22 H          -1.6505   -3.2516    1.7972 H       1  LIG1        0.1424
     23 H          -1.8876   -3.9430    0.3406 H       1  LIG1        0.1424
     24 C          -4.8062   -3.2360    1.1426 C.3     1  LIG1       -0.0359
     25 H          -4.4797   -3.4828    2.1592 H       1  LIG1        0.0279
     26 H          -4.6962   -4.1489    0.5455 H       1  LIG1        0.0279
     27 H          -5.8701   -2.9973    1.1779 H       1  LIG1        0.0279
     28 C          -5.8487   -0.3601    0.0383 C.ar    1  LIG1        0.0849
     29 C          -6.9829   -0.9066   -0.5282 C.ar    1  LIG1        0.0552
     30 C          -8.0494    0.0265   -0.3907 C.ar    1  LIG1       -0.0024
     31 C          -7.5310    1.1410    0.2476 C.ar    1  LIG1        0.0699
     32 N          -6.2056    0.8948    0.5059 N.ar    1  LIG1       -0.3501
     33 H          -5.5803    1.5404    0.9578 H       1  LIG1        0.1661
     34 N          -7.1040   -2.1882   -1.0904 N.pl3   1  LIG1       -0.3561
     35 H          -7.7264   -2.1995   -1.8892 H       1  LIG1        0.1424
     36 H          -6.2030   -2.5687   -1.3553 H       1  LIG1        0.1424
     37 C          -9.4677   -0.2080   -0.8051 C.3     1  LIG1       -0.0359
     38 H          -9.8408   -1.1536   -0.3975 H       1  LIG1        0.0279
     39 H          -9.5838   -0.2629   -1.8952 H       1  LIG1        0.0279
     40 H         -10.1162    0.5968   -0.4545 H       1  LIG1        0.0279
     41 C          -8.1600    2.3884    0.6444 C.ar    1  LIG1        0.0844
     42 C          -8.9503    3.2660   -0.0683 C.ar    1  LIG1        0.0546
     43 C          -9.2760    4.3641    0.7830 C.ar    1  LIG1       -0.0118
     44 C          -8.6665    4.1196    1.9884 C.ar    1  LIG1        0.0069
     45 N          -7.9761    2.9436    1.9035 N.ar    1  LIG1       -0.3578
     46 H          -7.6176    2.4284    2.6899 H       1  LIG1        0.1654
     47 H          -8.6759    4.7026    2.8974 H       1  LIG1        0.0810
     48 N          -9.3923    3.1165   -1.3930 N.pl3   1  LIG1       -0.3561
     49 H          -9.3791    3.9903   -1.9050 H       1  LIG1        0.1424
     50 H          -8.8506    2.4216   -1.8930 H       1  LIG1        0.1424
     51 C         -10.1075    5.5470    0.4024 C.3     1  LIG1       -0.0365
     52 H         -11.0924    5.2398    0.0357 H       1  LIG1        0.0279
     53 H          -9.6406    6.1432   -0.3913 H       1  LIG1        0.0279
     54 H         -10.2608    6.2116    1.2559 H       1  LIG1        0.0279
@<TRIPOS>BOND
     1    10     8    1
     2    13    11    1
     3    49    48    1
     4    39    37    1
     5    50    48    1
     6    35    34    1
     7    48    42    1
     8    36    34    1
     9     8     9    1
    10     8     2    1
    11    34    29    1
    12    14    11    1
    13    11     3    1
    14    11    12    1
    15     2     3   ar
    16     2     1   ar
    17    37    40    1
    18    37    38    1
    19    37    30    1
    20     3     4   ar
    21    20    19    1
    22     1     7    1
    23     1     5   ar
    24    29    30   ar
    25    29    28   ar
    26    53    51    1
    27    30    31   ar
    28     4     5   ar
    29     4    15    1
    30     5     6    1
    31    19    15   ar
    32    19    18   ar
    33    42    41   ar
    34    42    43   ar
    35    15    16   ar
    36    52    51    1
    37    28    18    1
    38    28    32   ar
    39    18    17   ar
    40    31    32   ar
    41    31    41    1
    42    23    21    1
    43    51    43    1
    44    51    54    1
    45    16    17   ar
    46    16    21    1
    47    32    33    1
    48    26    24    1
    49    17    24    1
    50    41    45   ar
    51    43    44   ar
    52    21    22    1
    53    24    27    1
    54    24    25    1
    55    45    44   ar
    56    45    46    1
    57    44    47    1
