@<TRIPOS>MOLECULE
mol_data/opt/cam/geoms/mol2/13hl13hl-.out
 30 31 0 0 0
SMALL
GASTEIGER

@<TRIPOS>ATOM
      1 C           1.3163   -0.3446   -0.2194 C.ar    1  LIG1        0.0267
      2 C           0.9839    0.9840   -0.3690 C.ar    1  LIG1        0.0851
      3 C          -0.4349    1.0465   -0.3588 C.ar    1  LIG1        0.1673
      4 C          -0.9235   -0.2358   -0.2123 C.ar    1  LIG1        0.1089
      5 N           0.1535   -1.0692   -0.1238 N.ar    1  LIG1       -0.3549
      6 H           0.0295   -2.0667   -0.0034 H       1  LIG1        0.1655
      7 H           2.2845   -0.8181   -0.1676 H       1  LIG1        0.0827
      8 N           1.8281    2.1103   -0.4580 N.pl3   1  LIG1       -0.3540
      9 H           2.7972    1.8497   -0.5906 H       1  LIG1        0.1425
     10 H           1.5471    2.7168   -1.2206 H       1  LIG1        0.1425
     11 O          -1.2145    2.1736   -0.5040 O.3     1  LIG1       -0.4911
     12 C          -1.1169    3.0641    0.6060 C.3     1  LIG1        0.0790
     13 H          -1.7248    3.9382    0.3644 H       1  LIG1        0.0660
     14 H          -1.4989    2.5923    1.5184 H       1  LIG1        0.0660
     15 H          -0.0793    3.3692    0.7699 H       1  LIG1        0.0660
     16 C          -2.2790   -0.7258   -0.1748 C.ar    1  LIG1        0.0912
     17 C          -2.7522   -2.0100    0.0065 C.ar    1  LIG1        0.0940
     18 C          -4.1712   -1.9349   -0.0535 C.ar    1  LIG1        0.1585
     19 C          -4.5255   -0.6235   -0.2700 C.ar    1  LIG1        0.0463
     20 N          -3.3525    0.1000   -0.3344 N.ar    1  LIG1       -0.3549
     21 H          -3.2503    1.0835   -0.5311 H       1  LIG1        0.1655
     22 H          -5.4873   -0.1511   -0.3790 H       1  LIG1        0.0845
     23 N          -1.9277   -3.1593    0.2073 N.pl3   1  LIG1       -0.3535
     24 H          -2.1161   -3.5755    1.1158 H       1  LIG1        0.1425
     25 H          -2.1524   -3.8741   -0.4797 H       1  LIG1        0.1425
     26 O          -4.9521   -3.0391    0.0915 O.3     1  LIG1       -0.4918
     27 C          -6.3376   -2.8033   -0.0061 C.3     1  LIG1        0.0789
     28 H          -6.8357   -3.7644    0.1244 H       1  LIG1        0.0660
     29 H          -6.6781   -2.1091    0.7730 H       1  LIG1        0.0660
     30 H          -6.6015   -2.3874   -0.9870 H       1  LIG1        0.0660
@<TRIPOS>BOND
     1    10     8    1
     2    30    27    1
     3     9     8    1
     4    21    20    1
     5    11     3    1
     6    11    12    1
     7    25    23    1
     8     8     2    1
     9    22    19    1
    10     2     3   ar
    11     2     1   ar
    12     3     4   ar
    13    20    19   ar
    14    20    16   ar
    15    19    18   ar
    16     1     7    1
    17     1     5   ar
    18     4    16    1
    19     4     5   ar
    20    16    17   ar
    21     5     6    1
    22    18    17   ar
    23    18    26    1
    24    27    26    1
    25    27    28    1
    26    27    29    1
    27    17    23    1
    28    23    24    1
    29    13    12    1
    30    12    15    1
    31    12    14    1
