@<TRIPOS>MOLECULE
mol_data/opt/cam/geoms/mol2/13hl6ff-6ld4ie.out
 56 59 0 0 0
SMALL
GASTEIGER

@<TRIPOS>ATOM
      1 C           1.4424   -0.2790    0.1284 C.ar    1  LIG1        0.0267
      2 C           1.0519    1.0391    0.1092 C.ar    1  LIG1        0.0850
      3 C          -0.3748    1.0358    0.0504 C.ar    1  LIG1        0.1659
      4 C          -0.8089   -0.2764    0.0210 C.ar    1  LIG1        0.0958
      5 N           0.3277   -1.0692    0.0606 N.ar    1  LIG1       -0.3559
      6 H           0.3030   -2.0508    0.2888 H       1  LIG1        0.1655
      7 H           2.4325   -0.7052    0.1891 H       1  LIG1        0.0827
      8 N           1.8726    2.1923    0.1971 N.pl3   1  LIG1       -0.3540
      9 H           2.7714    1.9693    0.6078 H       1  LIG1        0.1425
     10 H           2.0415    2.6127   -0.7111 H       1  LIG1        0.1425
     11 O          -1.2300    2.0928    0.0732 O.3     1  LIG1       -0.4911
     12 C          -0.9057    3.2005   -0.7524 C.3     1  LIG1        0.0790
     13 H          -1.7736    3.8607   -0.7361 H       1  LIG1        0.0660
     14 H          -0.0340    3.7362   -0.3698 H       1  LIG1        0.0660
     15 H          -0.7213    2.8800   -1.7851 H       1  LIG1        0.0660
     16 C          -2.4497   -2.1007   -0.5401 C.ar    1  LIG1        0.2225
     17 C          -2.1612   -0.8259    0.0028 C.ar    1  LIG1        0.0667
     18 C          -3.2360   -0.1205    0.5279 C.ar    1  LIG1       -0.0037
     19 C          -4.5062   -0.6873    0.5295 C.ar    1  LIG1        0.1438
     20 C          -4.6676   -1.9688    0.0041 C.ar    1  LIG1        0.1212
     21 N          -3.6398   -2.6455   -0.5232 N.ar    1  LIG1       -0.2086
     22 H          -3.0912    0.8639    0.9542 H       1  LIG1        0.0663
     23 O          -1.4672   -2.8639   -1.1099 O.3     1  LIG1       -0.4919
     24 H          -0.8018   -2.2718   -1.4860 H       1  LIG1        0.2937
     25 O          -5.5231    0.0442    1.0645 O.3     1  LIG1       -0.5046
     26 H          -6.3026   -0.5180    1.1583 H       1  LIG1        0.2922
     27 C          -6.2335   -3.8963    0.5516 C.ar    1  LIG1        0.2246
     28 C          -6.0009   -2.6240   -0.0295 C.ar    1  LIG1        0.0668
     29 C          -7.0796   -2.0494   -0.6681 C.ar    1  LIG1       -0.0278
     30 C          -8.3207   -2.7071   -0.7229 C.ar    1  LIG1        0.0785
     31 C          -8.4411   -3.9583   -0.1100 C.ar    1  LIG1        0.0924
     32 N          -7.3942   -4.5257    0.5019 N.ar    1  LIG1       -0.2110
     33 H          -6.9649   -1.0899   -1.1623 H       1  LIG1        0.0639
     34 O          -5.2183   -4.4638    1.1976 O.3     1  LIG1       -0.4792
     35 C          -5.4309   -5.7564    1.7605 C.3     1  LIG1        0.0804
     36 H          -4.4829   -6.0260    2.2232 H       1  LIG1        0.0660
     37 H          -6.2297   -5.7325    2.5044 H       1  LIG1        0.0660
     38 H          -5.6961   -6.4784    0.9859 H       1  LIG1        0.0660
     39 N         -10.2479   -1.5911   -2.0401 N.1     1  LIG1       -0.1908
     40 C          -9.3961   -2.1066   -1.4500 C.1     1  LIG1        0.1013
     41 C         -10.9081   -4.3201    0.4031 C.ar    1  LIG1       -0.0412
     42 C         -12.0110   -5.1736    0.3208 C.ar    1  LIG1       -0.0571
     43 C          -9.6929   -4.7659   -0.1402 C.ar    1  LIG1        0.0058
     44 C         -11.9317   -6.4209   -0.2711 C.ar    1  LIG1       -0.0460
     45 H         -12.9555   -4.8459    0.7442 H       1  LIG1        0.0621
     46 C          -9.6030   -6.0359   -0.7083 C.ar    1  LIG1       -0.0369
     47 C         -10.7144   -6.8727   -0.7915 C.ar    1  LIG1        0.0253
     48 H          -8.6491   -6.3761   -1.0941 H       1  LIG1        0.0636
     49 H         -12.8054   -7.0607   -0.3241 H       1  LIG1        0.0630
     50 C         -11.0664   -2.9903    1.0930 C.3     1  LIG1       -0.0391
     51 H         -11.8357   -3.0547    1.8656 H       1  LIG1        0.0278
     52 H         -11.3693   -2.2122    0.3867 H       1  LIG1        0.0278
     53 H         -10.1403   -2.6615    1.5688 H       1  LIG1        0.0278
     54 C         -10.6081   -8.1687   -1.3914 C.1     1  LIG1       -0.0696
     55 C         -10.5214   -9.2587   -1.8948 C.1     1  LIG1       -0.1139
     56 H         -10.4440  -10.2222   -2.3431 H       1  LIG1        0.1232
@<TRIPOS>BOND
     1    56    55    1
     2    39    40    3
     3    55    54    3
     4    15    12    1
     5    24    23    1
     6    40    30    1
     7    54    47    1
     8    33    29    1
     9    23    16    1
    10    48    46    1
    11    47    46   ar
    12    47    44   ar
    13    12    13    1
    14    12    14    1
    15    12    11    1
    16    30    29   ar
    17    30    31   ar
    18    10     8    1
    19    46    43   ar
    20    29    28   ar
    21    16    21   ar
    22    16    17   ar
    23    21    20   ar
    24    49    44    1
    25    44    42   ar
    26    43    31    1
    27    43    41   ar
    28    31    32   ar
    29    28    20    1
    30    28    27   ar
    31    17     4    1
    32    17    18   ar
    33    20    19   ar
    34     4     3   ar
    35     4     5   ar
    36     3    11    1
    37     3     2   ar
    38     5     1   ar
    39     5     6    1
    40     2     1   ar
    41     2     8    1
    42     1     7    1
    43     8     9    1
    44    42    41   ar
    45    42    45    1
    46    52    50    1
    47    41    50    1
    48    32    27   ar
    49    18    19   ar
    50    18    22    1
    51    19    25    1
    52    27    34    1
    53    38    35    1
    54    25    26    1
    55    50    53    1
    56    50    51    1
    57    34    35    1
    58    35    36    1
    59    35    37    1
