@<TRIPOS>MOLECULE
mol_data/opt/cam/geoms/mol2/13hl13hl13hl.out
 44 46 0 0 0
SMALL
GASTEIGER

@<TRIPOS>ATOM
      1 C           1.1935   -0.4283    0.8391 C.ar    1  LIG1        0.0267
      2 C           1.1116    0.8080    0.2603 C.ar    1  LIG1        0.0851
      3 C          -0.2248    0.9527   -0.2229 C.ar    1  LIG1        0.1673
      4 C          -0.9229   -0.2040    0.0519 C.ar    1  LIG1        0.1089
      5 N          -0.0330   -1.0569    0.6773 N.ar    1  LIG1       -0.3549
      6 H          -0.3513   -1.7781    1.3044 H       1  LIG1        0.1655
      7 H           2.0189   -0.9251    1.3242 H       1  LIG1        0.0827
      8 N           2.0916    1.8066    0.1368 N.pl3   1  LIG1       -0.3540
      9 H           3.0251    1.4616    0.3185 H       1  LIG1        0.1425
     10 H           2.0648    2.2354   -0.7814 H       1  LIG1        0.1425
     11 O          -0.6827    2.0528   -0.9123 O.3     1  LIG1       -0.4911
     12 C          -0.7783    3.2219   -0.0912 C.3     1  LIG1        0.0790
     13 H          -1.0277    4.0501   -0.7574 H       1  LIG1        0.0660
     14 H          -1.5705    3.0996    0.6546 H       1  LIG1        0.0660
     15 H           0.1722    3.4244    0.4093 H       1  LIG1        0.0660
     16 C          -2.2754   -0.6259   -0.2341 C.ar    1  LIG1        0.0916
     17 C          -3.4318    0.0816   -0.4994 C.ar    1  LIG1        0.0947
     18 C          -4.4851   -0.8636   -0.6072 C.ar    1  LIG1        0.1679
     19 C          -3.9702   -2.1370   -0.4374 C.ar    1  LIG1        0.1094
     20 N          -2.6272   -1.9694   -0.2026 N.ar    1  LIG1       -0.3473
     21 H          -1.9726   -2.7227   -0.0867 H       1  LIG1        0.1662
     22 N          -3.5941    1.4671   -0.6177 N.pl3   1  LIG1       -0.3534
     23 H          -2.7529    1.8937   -0.9919 H       1  LIG1        0.1425
     24 H          -4.3851    1.6791   -1.2148 H       1  LIG1        0.1425
     25 O          -5.7942   -0.5229   -0.8665 O.3     1  LIG1       -0.4911
     26 C          -6.4284    0.1170    0.2455 C.3     1  LIG1        0.0790
     27 H          -7.4037    0.4601   -0.1055 H       1  LIG1        0.0660
     28 H          -6.5633   -0.5929    1.0680 H       1  LIG1        0.0660
     29 H          -5.8408    0.9725    0.5910 H       1  LIG1        0.0660
     30 C          -4.5606   -3.4538   -0.5279 C.ar    1  LIG1        0.0912
     31 C          -5.8635   -3.8856   -0.4014 C.ar    1  LIG1        0.0940
     32 C          -5.8428   -5.3074   -0.5230 C.ar    1  LIG1        0.1585
     33 C          -4.5522   -5.7096   -0.7267 C.ar    1  LIG1        0.0463
     34 N          -3.7600   -4.5860   -0.6938 N.ar    1  LIG1       -0.3549
     35 H          -2.8861   -4.5448   -1.1942 H       1  LIG1        0.1655
     36 H          -4.1471   -6.6938   -0.8999 H       1  LIG1        0.0845
     37 N          -7.0161   -3.1395   -0.1442 N.pl3   1  LIG1       -0.3535
     38 H          -6.9714   -2.2314   -0.5936 H       1  LIG1        0.1425
     39 H          -7.8390   -3.6480   -0.4454 H       1  LIG1        0.1425
     40 O          -6.9579   -6.0979   -0.4458 O.3     1  LIG1       -0.4918
     41 C          -7.3738   -6.3554    0.8890 C.3     1  LIG1        0.0789
     42 H          -8.2846   -6.9534    0.8278 H       1  LIG1        0.0660
     43 H          -6.6073   -6.9152    1.4374 H       1  LIG1        0.0660
     44 H          -7.5832   -5.4241    1.4275 H       1  LIG1        0.0660
@<TRIPOS>BOND
     1    24    22    1
     2    35    34    1
     3    23    22    1
     4    11     3    1
     5    11    12    1
     6    36    33    1
     7    25    18    1
     8    25    26    1
     9    10     8    1
    10    13    12    1
    11    33    34   ar
    12    33    32   ar
    13    34    30   ar
    14    22    17    1
    15    18    17   ar
    16    18    19   ar
    17    38    37    1
    18    30    19    1
    19    30    31   ar
    20    32    40    1
    21    32    31   ar
    22    17    16   ar
    23    40    41    1
    24    39    37    1
    25    19    20   ar
    26    31    37    1
    27    16    20   ar
    28    16     4    1
    29     3     4   ar
    30     3     2   ar
    31    20    21    1
    32    27    26    1
    33    12    15    1
    34    12    14    1
    35     4     5   ar
    36     8     2    1
    37     8     9    1
    38    26    29    1
    39    26    28    1
    40     2     1   ar
    41     5     1   ar
    42     5     6    1
    43    42    41    1
    44     1     7    1
    45    41    44    1
    46    41    43    1
