@<TRIPOS>MOLECULE
mol_data/opt/cam/geoms/mol2/13hl13hl13hl-13hl.out
 58 61 0 0 0
SMALL
GASTEIGER

@<TRIPOS>ATOM
      1 C           1.4351   -0.4574    0.5569 C.ar    1  LIG1        0.0267
      2 C           1.3164    0.7428   -0.0912 C.ar    1  LIG1        0.0851
      3 C          -0.0493    0.8714   -0.4781 C.ar    1  LIG1        0.1673
      4 C          -0.7351   -0.2576   -0.0733 C.ar    1  LIG1        0.1089
      5 N           0.1943   -1.0700    0.5378 N.ar    1  LIG1       -0.3549
      6 H          -0.0643   -1.8200    1.1565 H       1  LIG1        0.1655
      7 H           2.2913   -0.9333    1.0085 H       1  LIG1        0.0827
      8 N           2.2894    1.7255   -0.3453 N.pl3   1  LIG1       -0.3540
      9 H           3.2323    1.3739   -0.2409 H       1  LIG1        0.1425
     10 H           2.1785    2.1129   -1.2756 H       1  LIG1        0.1425
     11 O          -0.5456    1.9376   -1.1965 O.3     1  LIG1       -0.4911
     12 C          -0.6130    3.1410   -0.4252 C.3     1  LIG1        0.0790
     13 H          -0.8933    3.9390   -1.1159 H       1  LIG1        0.0660
     14 H          -1.3738    3.0505    0.3566 H       1  LIG1        0.0660
     15 H           0.3575    3.3677    0.0248 H       1  LIG1        0.0660
     16 C          -2.1104   -0.6822   -0.2164 C.ar    1  LIG1        0.0916
     17 C          -3.2697    0.0197   -0.5136 C.ar    1  LIG1        0.0947
     18 C          -4.3395   -0.9052   -0.4347 C.ar    1  LIG1        0.1679
     19 C          -3.8284   -2.1460   -0.1083 C.ar    1  LIG1        0.1094
     20 N          -2.4780   -1.9944    0.0300 N.ar    1  LIG1       -0.3473
     21 H          -1.8817   -2.8034    0.1464 H       1  LIG1        0.1662
     22 N          -3.4197    1.3837   -0.7945 N.pl3   1  LIG1       -0.3534
     23 H          -2.5935    1.7514   -1.2550 H       1  LIG1        0.1425
     24 H          -4.2398    1.5365   -1.3696 H       1  LIG1        0.1425
     25 O          -5.6651   -0.6180   -0.6606 O.3     1  LIG1       -0.4911
     26 C          -6.2739    0.0887    0.4165 C.3     1  LIG1        0.0790
     27 H          -7.3062    0.2851    0.1215 H       1  LIG1        0.0660
     28 H          -6.2646   -0.5122    1.3328 H       1  LIG1        0.0660
     29 H          -5.7576    1.0353    0.6077 H       1  LIG1        0.0660
     30 C          -4.4692   -3.4265    0.0362 C.ar    1  LIG1        0.0917
     31 C          -3.9103   -4.6711    0.2862 C.ar    1  LIG1        0.0947
     32 C          -4.9886   -5.5916    0.3567 C.ar    1  LIG1        0.1679
     33 C          -6.1636   -4.8976    0.1479 C.ar    1  LIG1        0.1094
     34 N          -5.8234   -3.5843   -0.0461 N.ar    1  LIG1       -0.3473
     35 H          -6.5056   -2.8670   -0.2694 H       1  LIG1        0.1662
     36 N          -2.5088   -4.9080    0.4446 N.pl3   1  LIG1       -0.3534
     37 H          -2.3345   -5.4653    1.2759 H       1  LIG1        0.1425
     38 H          -2.1313   -5.4283   -0.3431 H       1  LIG1        0.1425
     39 O          -4.9167   -6.9418    0.6269 O.3     1  LIG1       -0.4911
     40 C          -4.4566   -7.7151   -0.4729 C.3     1  LIG1        0.0790
     41 H          -4.4619   -8.7592   -0.1543 H       1  LIG1        0.0660
     42 H          -5.1104   -7.5921   -1.3435 H       1  LIG1        0.0660
     43 H          -3.4356   -7.4374   -0.7580 H       1  LIG1        0.0660
     44 C          -7.5334   -5.3447    0.1495 C.ar    1  LIG1        0.0912
     45 C          -8.6939   -4.6439   -0.1127 C.ar    1  LIG1        0.0940
     46 C          -9.7699   -5.5601    0.0490 C.ar    1  LIG1        0.1585
     47 C          -9.2483   -6.7820    0.4046 C.ar    1  LIG1        0.0463
     48 N          -7.8771   -6.6325    0.4471 N.ar    1  LIG1       -0.3549
     49 H          -7.2016   -7.3145    0.7533 H       1  LIG1        0.1655
     50 H          -9.7203   -7.7259    0.6197 H       1  LIG1        0.0845
     51 N          -8.7460   -3.2633   -0.4673 N.pl3   1  LIG1       -0.3535
     52 H          -9.0605   -3.1491   -1.4274 H       1  LIG1        0.1425
     53 H          -9.4248   -2.7788    0.1129 H       1  LIG1        0.1425
     54 O         -11.0626   -5.1834   -0.1400 O.3     1  LIG1       -0.4918
     55 C         -12.0158   -6.1962    0.0851 C.3     1  LIG1        0.0789
     56 H         -12.9973   -5.7573   -0.0953 H       1  LIG1        0.0660
     57 H         -11.8653   -7.0419   -0.5984 H       1  LIG1        0.0660
     58 H         -11.9665   -6.5654    1.1175 H       1  LIG1        0.0660
@<TRIPOS>BOND
     1    52    51    1
     2    24    22    1
     3    42    40    1
     4    10     8    1
     5    23    22    1
     6    11     3    1
     7    11    12    1
     8    13    12    1
     9    22    17    1
    10    43    40    1
    11    25    18    1
    12    25    26    1
    13    57    55    1
    14    17    18   ar
    15    17    16   ar
    16     3     2   ar
    17     3     4   ar
    18    40    41    1
    19    40    39    1
    20    51    45    1
    21    51    53    1
    22    18    19   ar
    23    12    15    1
    24    12    14    1
    25     8     9    1
    26     8     2    1
    27    38    36    1
    28    35    34    1
    29    16     4    1
    30    16    20   ar
    31    54    46    1
    32    54    55    1
    33    45    46   ar
    34    45    44   ar
    35    19    20   ar
    36    19    30    1
    37    56    55    1
    38     2     1   ar
    39     4     5   ar
    40    34    30   ar
    41    34    33   ar
    42    20    21    1
    43    30    31   ar
    44    46    47   ar
    45    55    58    1
    46    27    26    1
    47    33    44    1
    48    33    32   ar
    49    44    48   ar
    50    31    32   ar
    51    31    36    1
    52    32    39    1
    53    47    48   ar
    54    47    50    1
    55    26    29    1
    56    26    28    1
    57    36    37    1
    58    48    49    1
    59     5     1   ar
    60     5     6    1
    61     1     7    1
