@<TRIPOS>MOLECULE
mol_data/opt/cam/geoms/mol2/13hl13hl13hl-13hl-.out
 58 61 0 0 0
SMALL
GASTEIGER

@<TRIPOS>ATOM
      1 C           1.2827   -0.1927    0.7446 C.ar    1  LIG1        0.0267
      2 C           1.0548    1.0005    0.1119 C.ar    1  LIG1        0.0851
      3 C          -0.3269    1.0265   -0.2388 C.ar    1  LIG1        0.1673
      4 C          -0.9103   -0.1548    0.1753 C.ar    1  LIG1        0.1089
      5 N           0.0939   -0.8990    0.7537 N.ar    1  LIG1       -0.3549
      6 H          -0.0897   -1.6758    1.3663 H       1  LIG1        0.1655
      7 H           2.1853   -0.6036    1.1691 H       1  LIG1        0.0827
      8 N           1.9452    2.0543   -0.1601 N.pl3   1  LIG1       -0.3540
      9 H           2.9140    1.7744   -0.0769 H       1  LIG1        0.1425
     10 H           1.7859    2.4335   -1.0867 H       1  LIG1        0.1425
     11 O          -0.9236    2.0468   -0.9444 O.3     1  LIG1       -0.4911
     12 C          -1.0488    3.2483   -0.1774 C.3     1  LIG1        0.0790
     13 H          -1.4084    4.0194   -0.8623 H       1  LIG1        0.0660
     14 H          -1.7732    3.1069    0.6307 H       1  LIG1        0.0660
     15 H          -0.0819    3.5479    0.2363 H       1  LIG1        0.0660
     16 C          -2.2512   -0.6806    0.0539 C.ar    1  LIG1        0.0916
     17 C          -3.4711   -0.0470   -0.1341 C.ar    1  LIG1        0.0947
     18 C          -4.4597   -1.0622   -0.1308 C.ar    1  LIG1        0.1679
     19 C          -3.8413   -2.2809    0.0666 C.ar    1  LIG1        0.1094
     20 N          -2.5037   -2.0347    0.1787 N.ar    1  LIG1       -0.3473
     21 H          -1.8403   -2.7994    0.2051 H       1  LIG1        0.1662
     22 N          -3.7056    1.3280   -0.2380 N.pl3   1  LIG1       -0.3534
     23 H          -3.0618    1.7795   -0.8761 H       1  LIG1        0.1425
     24 H          -4.6709    1.5351   -0.4539 H       1  LIG1        0.1425
     25 O          -5.8179   -0.8732   -0.2862 O.3     1  LIG1       -0.4911
     26 C          -6.2112   -0.7838   -1.6514 C.3     1  LIG1        0.0790
     27 H          -7.2862   -0.5936   -1.6628 H       1  LIG1        0.0660
     28 H          -5.6932    0.0361   -2.1611 H       1  LIG1        0.0660
     29 H          -5.9976   -1.7168   -2.1853 H       1  LIG1        0.0660
     30 C          -4.3824   -3.6110    0.1651 C.ar    1  LIG1        0.0917
     31 C          -3.7340   -4.8304    0.2222 C.ar    1  LIG1        0.0947
     32 C          -4.7356   -5.8268    0.3611 C.ar    1  LIG1        0.1679
     33 C          -5.9731   -5.2078    0.3705 C.ar    1  LIG1        0.1094
     34 N          -5.7245   -3.8530    0.2380 N.ar    1  LIG1       -0.3473
     35 H          -6.4171   -3.1193    0.2422 H       1  LIG1        0.1662
     36 N          -2.3149   -4.9963    0.1860 N.pl3   1  LIG1       -0.3534
     37 H          -2.0407   -5.6978    0.8684 H       1  LIG1        0.1425
     38 H          -2.0193   -5.3539   -0.7193 H       1  LIG1        0.1425
     39 O          -4.4682   -7.1524    0.5514 O.3     1  LIG1       -0.4911
     40 C          -4.5846   -7.9599   -0.6138 C.3     1  LIG1        0.0790
     41 H          -4.3241   -8.9766   -0.3142 H       1  LIG1        0.0660
     42 H          -5.6038   -7.9447   -1.0129 H       1  LIG1        0.0660
     43 H          -3.8857   -7.6293   -1.3939 H       1  LIG1        0.0660
     44 C          -7.3197   -5.7407    0.5258 C.ar    1  LIG1        0.0912
     45 C          -8.0960   -6.4884   -0.3326 C.ar    1  LIG1        0.0940
     46 C          -9.3310   -6.7314    0.3247 C.ar    1  LIG1        0.1585
     47 C          -9.2934   -6.1287    1.5592 C.ar    1  LIG1        0.0463
     48 N          -8.0762   -5.5047    1.6620 N.ar    1  LIG1       -0.3549
     49 H          -7.6877   -5.1375    2.5138 H       1  LIG1        0.1655
     50 H         -10.0257   -6.0813    2.3483 H       1  LIG1        0.0845
     51 N          -7.7697   -6.9660   -1.6135 N.pl3   1  LIG1       -0.3535
     52 H          -8.6037   -7.2382   -2.1196 H       1  LIG1        0.1425
     53 H          -7.2410   -6.2910   -2.1523 H       1  LIG1        0.1425
     54 O         -10.3278   -7.4259   -0.2928 O.3     1  LIG1       -0.4918
     55 C         -11.5022   -7.5841    0.4680 C.3     1  LIG1        0.0789
     56 H         -12.2055   -8.1508   -0.1426 H       1  LIG1        0.0660
     57 H         -11.3022   -8.1350    1.3960 H       1  LIG1        0.0660
     58 H         -11.9443   -6.6122    0.7237 H       1  LIG1        0.0660
@<TRIPOS>BOND
     1    29    26    1
     2    28    26    1
     3    53    51    1
     4    52    51    1
     5    27    26    1
     6    26    25    1
     7    51    45    1
     8    43    40    1
     9    10     8    1
    10    42    40    1
    11    11     3    1
    12    11    12    1
    13    23    22    1
    14    13    12    1
    15    38    36    1
    16    40    41    1
    17    40    39    1
    18    24    22    1
    19    45    46   ar
    20    45    44   ar
    21    54    46    1
    22    54    55    1
    23    25    18    1
    24     3     2   ar
    25     3     4   ar
    26    22    17    1
    27    12    15    1
    28    12    14    1
    29     8     9    1
    30     8     2    1
    31    56    55    1
    32    17    18   ar
    33    17    16   ar
    34    18    19   ar
    35    16     4    1
    36    16    20   ar
    37    19    30    1
    38    19    20   ar
    39     2     1   ar
    40    30    31   ar
    41    30    34   ar
    42     4     5   ar
    43    20    21    1
    44    36    31    1
    45    36    37    1
    46    31    32   ar
    47    34    35    1
    48    34    33   ar
    49    46    47   ar
    50    32    33   ar
    51    32    39    1
    52    33    44    1
    53    55    58    1
    54    55    57    1
    55    44    48   ar
    56     1     5   ar
    57     1     7    1
    58     5     6    1
    59    47    48   ar
    60    47    50    1
    61    48    49    1
