@<TRIPOS>MOLECULE
mol_data/opt/cam/geoms/mol2/13hl12ia-13hl-13ae.out
 50 53 0 0 0
SMALL
GASTEIGER

@<TRIPOS>ATOM
      1 C           1.3396   -0.1819    0.6731 C.ar    1  LIG1        0.0268
      2 C           1.0365    1.1189    0.3517 C.ar    1  LIG1        0.0851
      3 C          -0.3707    1.1794    0.1698 C.ar    1  LIG1        0.1688
      4 C          -0.9003   -0.0804    0.3874 C.ar    1  LIG1        0.1264
      5 N           0.1615   -0.8944    0.6861 N.ar    1  LIG1       -0.3537
      6 H           0.0634   -1.8664    0.9195 H       1  LIG1        0.1656
      7 H           2.2868   -0.6535    0.8824 H       1  LIG1        0.0827
      8 N           1.8863    2.2162    0.1463 N.pl3   1  LIG1       -0.3540
      9 H           1.4225    3.0808    0.3989 H       1  LIG1        0.1425
     10 H           2.7618    2.1402    0.6468 H       1  LIG1        0.1425
     11 O          -1.0438    2.3277   -0.1611 O.3     1  LIG1       -0.4910
     12 C          -1.0396    2.5965   -1.5602 C.3     1  LIG1        0.0790
     13 H          -1.5680    3.5408   -1.7020 H       1  LIG1        0.0660
     14 H          -0.0151    2.6882   -1.9360 H       1  LIG1        0.0660
     15 H          -1.5556    1.8030   -2.1113 H       1  LIG1        0.0660
     16 C          -2.2442   -0.6143    0.3454 C.ar    1  LIG1        0.1584
     17 C          -3.5036   -0.1119    0.5032 C.ar    1  LIG1       -0.0025
     18 C          -4.3920   -1.2267    0.3640 C.ar    1  LIG1       -0.0108
     19 C          -3.6263   -2.3304    0.1373 C.ar    1  LIG1        0.1540
     20 O          -2.3089   -1.9747    0.1216 O.2     1  LIG1       -0.4514
     21 C          -3.9156    1.2902    0.8207 C.3     1  LIG1       -0.0360
     22 H          -4.3639    1.3446    1.8182 H       1  LIG1        0.0279
     23 H          -4.6707    1.6418    0.1103 H       1  LIG1        0.0279
     24 H          -3.0691    1.9747    0.7802 H       1  LIG1        0.0279
     25 H          -5.4656   -1.2098    0.4821 H       1  LIG1        0.0659
     26 C          -3.9286   -3.7151   -0.0851 C.ar    1  LIG1        0.1072
     27 C          -5.1394   -4.3335   -0.3292 C.ar    1  LIG1        0.0962
     28 C          -4.8796   -5.7252   -0.4305 C.ar    1  LIG1        0.1679
     29 C          -3.5260   -5.9353   -0.2613 C.ar    1  LIG1        0.1075
     30 N          -2.9515   -4.6975   -0.0870 N.ar    1  LIG1       -0.3462
     31 H          -2.0376   -4.5494    0.3077 H       1  LIG1        0.1662
     32 N          -6.4001   -3.7478   -0.4704 N.pl3   1  LIG1       -0.3534
     33 H          -6.3586   -2.8316   -0.9009 H       1  LIG1        0.1425
     34 H          -7.0160   -4.3502   -1.0045 H       1  LIG1        0.1425
     35 O          -5.8255   -6.6624   -0.7394 O.3     1  LIG1       -0.4911
     36 C          -6.6087   -7.0695    0.3767 C.3     1  LIG1        0.0790
     37 H          -7.3390   -7.7887    0.0029 H       1  LIG1        0.0660
     38 H          -5.9868   -7.5470    1.1421 H       1  LIG1        0.0660
     39 H          -7.1307   -6.2186    0.8288 H       1  LIG1        0.0660
     40 C          -2.7361   -7.1461   -0.3306 C.ar    1  LIG1        0.0678
     41 C          -3.0214   -8.4450    0.0124 C.ar    1  LIG1       -0.0194
     42 C          -1.8665   -9.2335   -0.2739 C.ar    1  LIG1        0.0426
     43 C          -0.9110   -8.3810   -0.7855 C.ar    1  LIG1        0.0177
     44 N          -1.4397   -7.1234   -0.8052 N.ar    1  LIG1       -0.3583
     45 H          -1.0219   -6.3287   -1.2612 H       1  LIG1        0.1654
     46 H           0.0906   -8.5853   -1.1291 H       1  LIG1        0.0819
     47 H          -3.9455   -8.8022    0.4386 H       1  LIG1        0.0651
     48 C          -1.7114  -10.6319   -0.0622 C.1     1  LIG1       -0.0682
     49 C          -1.5875  -11.8159    0.1198 C.1     1  LIG1       -0.1139
     50 H          -1.4777  -12.8633    0.2789 H       1  LIG1        0.1232
@<TRIPOS>BOND
     1    15    12    1
     2    14    12    1
     3    13    12    1
     4    12    11    1
     5    45    44    1
     6    46    43    1
     7    34    32    1
     8    33    32    1
     9    44    43   ar
    10    44    40   ar
    11    43    42   ar
    12    35    28    1
    13    35    36    1
    14    32    27    1
    15    28    27   ar
    16    28    29   ar
    17    40    29    1
    18    40    41   ar
    19    27    26   ar
    20    42    48    1
    21    42    41   ar
    22    29    30   ar
    23    11     3    1
    24    30    26   ar
    25    30    31    1
    26    26    19    1
    27    48    49    3
    28    37    36    1
    29    41    47    1
    30    23    21    1
    31    49    50    1
    32    20    19   ar
    33    20    16   ar
    34    19    18   ar
    35     8     2    1
    36     8     9    1
    37     8    10    1
    38     3     2   ar
    39     3     4   ar
    40    16     4    1
    41    16    17   ar
    42     2     1   ar
    43    18    25    1
    44    18    17   ar
    45    36    39    1
    46    36    38    1
    47     4     5   ar
    48    17    21    1
    49     1     5   ar
    50     1     7    1
    51     5     6    1
    52    24    21    1
    53    21    22    1
