@<TRIPOS>MOLECULE
mol_data/opt/cam/geoms/mol2/13hl13hl.out
 30 31 0 0 0
SMALL
GASTEIGER

@<TRIPOS>ATOM
      1 C           1.2491   -0.4179    0.4835 C.ar    1  LIG1        0.0267
      2 C           1.0885    0.8374   -0.0373 C.ar    1  LIG1        0.0851
      3 C          -0.2903    0.9703   -0.3818 C.ar    1  LIG1        0.1673
      4 C          -0.9367   -0.2102   -0.0814 C.ar    1  LIG1        0.1089
      5 N           0.0240   -1.0620    0.4222 N.ar    1  LIG1       -0.3549
      6 H          -0.2167   -1.8443    1.0084 H       1  LIG1        0.1655
      7 H           2.1269   -0.9143    0.8665 H       1  LIG1        0.0827
      8 N           2.0332    1.8625   -0.2137 N.pl3   1  LIG1       -0.3540
      9 H           2.9863    1.5295   -0.1472 H       1  LIG1        0.1425
     10 H           1.9028    2.3304   -1.1034 H       1  LIG1        0.1425
     11 O          -0.8333    2.0851   -0.9801 O.3     1  LIG1       -0.4911
     12 C          -0.8852    3.2148   -0.1024 C.3     1  LIG1        0.0790
     13 H          -1.2068    4.0647   -0.7077 H       1  LIG1        0.0660
     14 H          -1.6100    3.0404    0.6995 H       1  LIG1        0.0660
     15 H           0.0995    3.4195    0.3263 H       1  LIG1        0.0660
     16 C          -2.3046   -0.6527   -0.2431 C.ar    1  LIG1        0.0912
     17 C          -3.4864    0.0394   -0.4008 C.ar    1  LIG1        0.0940
     18 C          -4.5299   -0.9315   -0.4526 C.ar    1  LIG1        0.1585
     19 C          -3.9745   -2.1767   -0.3355 C.ar    1  LIG1        0.0463
     20 N          -2.6215   -2.0082   -0.1743 N.ar    1  LIG1       -0.3549
     21 H          -1.9519   -2.7216   -0.4138 H       1  LIG1        0.1655
     22 H          -4.4348   -3.1514   -0.3644 H       1  LIG1        0.0845
     23 N          -3.6939    1.4209   -0.4501 N.pl3   1  LIG1       -0.3535
     24 H          -2.9206    1.8885   -0.9110 H       1  LIG1        0.1425
     25 H          -4.5670    1.6289   -0.9202 H       1  LIG1        0.1425
     26 O          -5.8561   -0.6247   -0.6023 O.3     1  LIG1       -0.4918
     27 C          -6.4757   -0.2079    0.6073 C.3     1  LIG1        0.0789
     28 H          -7.5079    0.0495    0.3631 H       1  LIG1        0.0660
     29 H          -6.4682   -1.0142    1.3500 H       1  LIG1        0.0660
     30 H          -5.9712    0.6674    1.0320 H       1  LIG1        0.0660
@<TRIPOS>BOND
     1    10     8    1
     2    11     3    1
     3    11    12    1
     4    25    23    1
     5    24    23    1
     6    13    12    1
     7    26    18    1
     8    26    27    1
     9    18    17   ar
    10    18    19   ar
    11    23    17    1
    12    21    20    1
    13    17    16   ar
    14     3     4   ar
    15     3     2   ar
    16    22    19    1
    17    19    20   ar
    18    16    20   ar
    19    16     4    1
    20     8     9    1
    21     8     2    1
    22    12    15    1
    23    12    14    1
    24     4     5   ar
    25     2     1   ar
    26    28    27    1
    27     5     1   ar
    28     5     6    1
    29     1     7    1
    30    27    30    1
    31    27    29    1
