@<TRIPOS>MOLECULE
mol_data/opt/cam/geoms/mol2/13hl13hl13hl13hl-.out
 58 61 0 0 0
SMALL
GASTEIGER

@<TRIPOS>ATOM
      1 C           1.4071   -0.3301   -0.2630 C.ar    1  LIG1        0.0267
      2 C           1.1412    0.9888   -0.5174 C.ar    1  LIG1        0.0851
      3 C          -0.2779    1.1261   -0.5555 C.ar    1  LIG1        0.1673
      4 C          -0.8482   -0.1127   -0.3396 C.ar    1  LIG1        0.1089
      5 N           0.1965   -0.9984   -0.1891 N.ar    1  LIG1       -0.3549
      6 H           0.0775   -1.8901    0.2622 H       1  LIG1        0.1655
      7 H           2.3454   -0.8508   -0.1529 H       1  LIG1        0.0827
      8 N           2.0293    2.0639   -0.6949 N.pl3   1  LIG1       -0.3540
      9 H           2.9762    1.7588   -0.8791 H       1  LIG1        0.1425
     10 H           1.7213    2.6698   -1.4471 H       1  LIG1        0.1425
     11 O          -0.9340    2.3053   -0.8331 O.3     1  LIG1       -0.4911
     12 C          -0.8203    3.2634    0.2238 C.3     1  LIG1        0.0790
     13 H          -1.2613    4.1909   -0.1470 H       1  LIG1        0.0660
     14 H          -1.3708    2.9231    1.1069 H       1  LIG1        0.0660
     15 H           0.2284    3.4325    0.4834 H       1  LIG1        0.0660
     16 C          -2.2162   -0.5723   -0.3004 C.ar    1  LIG1        0.0916
     17 C          -3.4099    0.0934   -0.1354 C.ar    1  LIG1        0.0947
     18 C          -4.4360   -0.8949   -0.1266 C.ar    1  LIG1        0.1679
     19 C          -3.8706   -2.1392   -0.2887 C.ar    1  LIG1        0.1094
     20 N          -2.5025   -1.9434   -0.3543 N.ar    1  LIG1       -0.3473
     21 H          -1.9407   -2.5563   -0.9275 H       1  LIG1        0.1662
     22 N          -3.6346    1.4530    0.0697 N.pl3   1  LIG1       -0.3534
     23 H          -2.9712    2.0221   -0.4442 H       1  LIG1        0.1425
     24 H          -4.5903    1.6999   -0.1554 H       1  LIG1        0.1425
     25 O          -5.7696   -0.5983    0.0384 O.3     1  LIG1       -0.4911
     26 C          -6.1994   -0.6524    1.3980 C.3     1  LIG1        0.0790
     27 H          -7.2521   -0.3661    1.4082 H       1  LIG1        0.0660
     28 H          -6.0929   -1.6656    1.7978 H       1  LIG1        0.0660
     29 H          -5.6204    0.0446    2.0125 H       1  LIG1        0.0660
     30 C          -4.4425   -3.4595   -0.3900 C.ar    1  LIG1        0.0917
     31 C          -5.7144   -3.8823   -0.7602 C.ar    1  LIG1        0.0947
     32 C          -5.6870   -5.3012   -0.7413 C.ar    1  LIG1        0.1679
     33 C          -4.4206   -5.7117   -0.3786 C.ar    1  LIG1        0.1094
     34 N          -3.6730   -4.5867   -0.1762 N.ar    1  LIG1       -0.3473
     35 H          -2.7523   -4.6469    0.2421 H       1  LIG1        0.1662
     36 N          -6.8434   -3.1108   -1.0717 N.pl3   1  LIG1       -0.3534
     37 H          -6.6662   -2.1145   -0.9985 H       1  LIG1        0.1425
     38 H          -7.2367   -3.3500   -1.9739 H       1  LIG1        0.1425
     39 O          -6.7121   -6.1563   -1.0748 O.3     1  LIG1       -0.4911
     40 C          -7.8289   -6.0659   -0.1910 C.3     1  LIG1        0.0790
     41 H          -8.5964   -6.7344   -0.5850 H       1  LIG1        0.0660
     42 H          -7.5501   -6.3838    0.8202 H       1  LIG1        0.0660
     43 H          -8.2101   -5.0419   -0.1535 H       1  LIG1        0.0660
     44 C          -3.8776   -7.0325   -0.1974 C.ar    1  LIG1        0.0912
     45 C          -2.6365   -7.4241    0.2662 C.ar    1  LIG1        0.0940
     46 C          -2.6243   -8.8456    0.2511 C.ar    1  LIG1        0.1585
     47 C          -3.8420   -9.2828   -0.2173 C.ar    1  LIG1        0.0463
     48 N          -4.5942   -8.1577   -0.4816 N.ar    1  LIG1       -0.3549
     49 H          -5.5260   -8.1191   -0.8648 H       1  LIG1        0.1655
     50 H          -4.2302  -10.2737   -0.3825 H       1  LIG1        0.0845
     51 N          -1.5999   -6.5298    0.6773 N.pl3   1  LIG1       -0.3535
     52 H          -1.3608   -6.6969    1.6516 H       1  LIG1        0.1425
     53 H          -0.7517   -6.7158    0.1483 H       1  LIG1        0.1425
     54 O          -1.5365   -9.5546    0.6551 O.3     1  LIG1       -0.4918
     55 C          -1.6769  -10.9546    0.5762 C.3     1  LIG1        0.0789
     56 H          -0.7406  -11.3900    0.9262 H       1  LIG1        0.0660
     57 H          -2.5007  -11.3070    1.2100 H       1  LIG1        0.0660
     58 H          -1.8643  -11.2771   -0.4560 H       1  LIG1        0.0660
@<TRIPOS>BOND
     1    38    36    1
     2    10     8    1
     3    39    32    1
     4    39    40    1
     5    36    37    1
     6    36    31    1
     7    21    20    1
     8     9     8    1
     9    49    48    1
    10    11     3    1
    11    11    12    1
    12    31    32   ar
    13    31    30   ar
    14    32    33   ar
    15     8     2    1
    16    41    40    1
    17     3     2   ar
    18     3     4   ar
    19     2     1   ar
    20    48    47   ar
    21    48    44   ar
    22    58    55    1
    23    23    22    1
    24    30    19    1
    25    30    34   ar
    26    50    47    1
    27    33    44    1
    28    33    34   ar
    29    20    16   ar
    30    20    19   ar
    31     4    16    1
    32     4     5   ar
    33    16    17   ar
    34    19    18   ar
    35     1     5   ar
    36     1     7    1
    37    47    46   ar
    38    44    45   ar
    39    40    43    1
    40    40    42    1
    41     5     6    1
    42    34    35    1
    43    24    22    1
    44    13    12    1
    45    17    18   ar
    46    17    22    1
    47    18    25    1
    48    25    26    1
    49    53    51    1
    50    12    15    1
    51    12    14    1
    52    46    45   ar
    53    46    54    1
    54    45    51    1
    55    55    54    1
    56    55    56    1
    57    55    57    1
    58    51    52    1
    59    26    27    1
    60    26    28    1
    61    26    29    1
