@<TRIPOS>MOLECULE
mol_data/opt/cam/geoms/mol2/13hl13hl-13hl.out
 44 46 0 0 0
SMALL
GASTEIGER

@<TRIPOS>ATOM
      1 C           1.3673   -0.7361   -0.3156 C.ar    1  LIG1        0.0267
      2 C           1.1427    0.5967   -0.5792 C.ar    1  LIG1        0.0851
      3 C          -0.2616    0.7917   -0.5057 C.ar    1  LIG1        0.1673
      4 C          -0.8535   -0.4199   -0.2077 C.ar    1  LIG1        0.1089
      5 N           0.1512   -1.3390   -0.0976 N.ar    1  LIG1       -0.3549
      6 H          -0.0437   -2.2950    0.1693 H       1  LIG1        0.1655
      7 H           2.2908   -1.2921   -0.2680 H       1  LIG1        0.0827
      8 N           2.0695    1.6287   -0.8256 N.pl3   1  LIG1       -0.3540
      9 H           2.9850    1.2731   -1.0699 H       1  LIG1        0.1425
     10 H           1.7436    2.2364   -1.5688 H       1  LIG1        0.1425
     11 O          -0.9324    1.9721   -0.7258 O.3     1  LIG1       -0.4911
     12 C          -0.7572    2.9186    0.3249 C.3     1  LIG1        0.0790
     13 H          -1.3100    3.8144    0.0365 H       1  LIG1        0.0660
     14 H          -1.1575    2.5317    1.2688 H       1  LIG1        0.0660
     15 H           0.3013    3.1627    0.4596 H       1  LIG1        0.0660
     16 C          -2.2395   -0.7710   -0.0239 C.ar    1  LIG1        0.0916
     17 C          -2.8089   -1.9973    0.2824 C.ar    1  LIG1        0.0947
     18 C          -4.2082   -1.7785    0.3831 C.ar    1  LIG1        0.1679
     19 C          -4.4560   -0.4431    0.1368 C.ar    1  LIG1        0.1094
     20 N          -3.2450    0.1488   -0.1109 N.ar    1  LIG1       -0.3473
     21 H          -3.1482    1.1280   -0.3590 H       1  LIG1        0.1662
     22 N          -2.0675   -3.2039    0.4737 N.pl3   1  LIG1       -0.3534
     23 H          -2.3725   -3.6802    1.3172 H       1  LIG1        0.1425
     24 H          -2.2031   -3.8508   -0.2986 H       1  LIG1        0.1425
     25 O          -5.1761   -2.7047    0.7109 O.3     1  LIG1       -0.4911
     26 C          -5.4746   -3.6078   -0.3444 C.3     1  LIG1        0.0790
     27 H          -6.2584   -4.2756    0.0180 H       1  LIG1        0.0660
     28 H          -5.8277   -3.0737   -1.2337 H       1  LIG1        0.0660
     29 H          -4.5984   -4.2061   -0.6182 H       1  LIG1        0.0660
     30 C          -5.6901    0.3011    0.1471 C.ar    1  LIG1        0.0912
     31 C          -5.9281    1.6289   -0.1480 C.ar    1  LIG1        0.0940
     32 C          -7.3211    1.8465    0.0415 C.ar    1  LIG1        0.1585
     33 C          -7.8931    0.6629    0.4456 C.ar    1  LIG1        0.0463
     34 N          -6.8804   -0.2733    0.4912 N.ar    1  LIG1       -0.3549
     35 H          -6.9449   -1.2218    0.8254 H       1  LIG1        0.1655
     36 H          -8.9098    0.4076    0.6934 H       1  LIG1        0.0845
     37 N          -4.9287    2.5621   -0.5536 N.pl3   1  LIG1       -0.3535
     38 H          -5.0769    2.8537   -1.5161 H       1  LIG1        0.1425
     39 H          -4.9874    3.4052    0.0103 H       1  LIG1        0.1425
     40 O          -7.8889    3.0642   -0.1691 O.3     1  LIG1       -0.4918
     41 C          -9.2725    3.1264    0.0882 C.3     1  LIG1        0.0789
     42 H          -9.5895    4.1502   -0.1123 H       1  LIG1        0.0660
     43 H          -9.8288    2.4401   -0.5633 H       1  LIG1        0.0660
     44 H          -9.4936    2.8752    1.1336 H       1  LIG1        0.0660
@<TRIPOS>BOND
     1    10     8    1
     2    38    37    1
     3    28    26    1
     4     9     8    1
     5     8     2    1
     6    11     3    1
     7    11    12    1
     8    29    26    1
     9     2     3   ar
    10     2     1   ar
    11    43    41    1
    12    37    31    1
    13    37    39    1
    14     3     4   ar
    15    21    20    1
    16    26    27    1
    17    26    25    1
    18     1     7    1
    19     1     5   ar
    20    24    22    1
    21     4     5   ar
    22     4    16    1
    23    40    32    1
    24    40    41    1
    25    31    32   ar
    26    31    30   ar
    27    42    41    1
    28    20    16   ar
    29    20    19   ar
    30     5     6    1
    31    16    17   ar
    32    13    12    1
    33    32    33   ar
    34    41    44    1
    35    19    30    1
    36    19    18   ar
    37    30    34   ar
    38    17    18   ar
    39    17    22    1
    40    12    15    1
    41    12    14    1
    42    18    25    1
    43    33    34   ar
    44    33    36    1
    45    22    23    1
    46    34    35    1
