@<TRIPOS>MOLECULE
mol_data/opt/cam/geoms/mol2/13hl13hl-13hl13hl-.out
 58 61 0 0 0
SMALL
GASTEIGER

@<TRIPOS>ATOM
      1 C           1.3871   -0.4155   -0.0195 C.ar    1  LIG1        0.0267
      2 C           1.0582    0.8881   -0.3173 C.ar    1  LIG1        0.0851
      3 C          -0.3598    0.9476   -0.3573 C.ar    1  LIG1        0.1673
      4 C          -0.8554   -0.3137   -0.0912 C.ar    1  LIG1        0.1089
      5 N           0.2205   -1.1310    0.1096 N.ar    1  LIG1       -0.3549
      6 H           0.0954   -2.0997    0.3735 H       1  LIG1        0.1655
      7 H           2.3528   -0.8799    0.1075 H       1  LIG1        0.0827
      8 N           1.8990    2.0036   -0.5043 N.pl3   1  LIG1       -0.3540
      9 H           2.8630    1.7357   -0.6571 H       1  LIG1        0.1425
     10 H           1.5858    2.5630   -1.2897 H       1  LIG1        0.1425
     11 O          -1.1197    2.0582   -0.6447 O.3     1  LIG1       -0.4911
     12 C          -1.1123    3.0230    0.4027 C.3     1  LIG1        0.0790
     13 H          -1.7102    3.8685    0.0567 H       1  LIG1        0.0660
     14 H          -1.5561    2.6108    1.3164 H       1  LIG1        0.0660
     15 H          -0.0929    3.3565    0.6213 H       1  LIG1        0.0660
     16 C          -2.2104   -0.7990   -0.0124 C.ar    1  LIG1        0.0916
     17 C          -2.6781   -2.0731    0.2669 C.ar    1  LIG1        0.0947
     18 C          -4.0953   -1.9971    0.2547 C.ar    1  LIG1        0.1679
     19 C          -4.4562   -0.6946   -0.0316 C.ar    1  LIG1        0.1094
     20 N          -3.2926    0.0155   -0.1892 N.ar    1  LIG1       -0.3473
     21 H          -3.2704    0.9870   -0.4790 H       1  LIG1        0.1662
     22 N          -1.8403   -3.1992    0.5373 N.pl3   1  LIG1       -0.3534
     23 H          -2.1679   -3.6932    1.3623 H       1  LIG1        0.1425
     24 H          -1.8595   -3.8650   -0.2308 H       1  LIG1        0.1425
     25 O          -4.9809   -3.0147    0.5241 O.3     1  LIG1       -0.4911
     26 C          -5.1444   -3.9304   -0.5488 C.3     1  LIG1        0.0790
     27 H          -5.9127   -4.6424   -0.2427 H       1  LIG1        0.0660
     28 H          -5.4662   -3.4170   -1.4616 H       1  LIG1        0.0660
     29 H          -4.2149   -4.4732   -0.7583 H       1  LIG1        0.0660
     30 C          -5.7559   -0.0872   -0.1588 C.ar    1  LIG1        0.0917
     31 C          -6.0986    1.2227   -0.4591 C.ar    1  LIG1        0.0947
     32 C          -7.5178    1.2706   -0.4915 C.ar    1  LIG1        0.1679
     33 C          -8.0005    0.0081   -0.2119 C.ar    1  LIG1        0.1094
     34 N          -6.9123   -0.8004   -0.0113 N.ar    1  LIG1       -0.3473
     35 H          -6.9924   -1.7743    0.2594 H       1  LIG1        0.1662
     36 N          -5.1530    2.2624   -0.7040 N.pl3   1  LIG1       -0.3534
     37 H          -5.3916    2.7807   -1.5435 H       1  LIG1        0.1425
     38 H          -5.1160    2.9280    0.0628 H       1  LIG1        0.1425
     39 O          -8.3117    2.3569   -0.7925 O.3     1  LIG1       -0.4911
     40 C          -8.3552    3.3308    0.2410 C.3     1  LIG1        0.0790
     41 H          -9.0246    4.1246   -0.0957 H       1  LIG1        0.0660
     42 H          -8.7350    2.8998    1.1741 H       1  LIG1        0.0660
     43 H          -7.3643    3.7589    0.4280 H       1  LIG1        0.0660
     44 C          -9.3505   -0.4921   -0.1538 C.ar    1  LIG1        0.0912
     45 C          -9.8179   -1.7503    0.1716 C.ar    1  LIG1        0.0940
     46 C         -11.2343   -1.7047    0.0485 C.ar    1  LIG1        0.1585
     47 C         -11.5941   -0.4376   -0.3467 C.ar    1  LIG1        0.0463
     48 N         -10.4278    0.2922   -0.4520 N.ar    1  LIG1       -0.3549
     49 H         -10.3296    1.2357   -0.7921 H       1  LIG1        0.1655
     50 H         -12.5559    0.0018   -0.5518 H       1  LIG1        0.0845
     51 N          -8.9950   -2.8540    0.5469 N.pl3   1  LIG1       -0.3535
     52 H          -9.1383   -3.0921    1.5250 H       1  LIG1        0.1425
     53 H          -9.2573   -3.6788    0.0147 H       1  LIG1        0.1425
     54 O         -12.0075   -2.7946    0.3015 O.3     1  LIG1       -0.4918
     55 C         -13.3893   -2.6005    0.1075 C.3     1  LIG1        0.0789
     56 H         -13.8805   -3.5464    0.3370 H       1  LIG1        0.0660
     57 H         -13.7778   -1.8191    0.7734 H       1  LIG1        0.0660
     58 H         -13.6088   -2.3188   -0.9303 H       1  LIG1        0.0660
@<TRIPOS>BOND
     1    37    36    1
     2    28    26    1
     3    10     8    1
     4    58    55    1
     5    39    32    1
     6    39    40    1
     7    49    48    1
     8    29    26    1
     9    36    31    1
    10    36    38    1
    11     9     8    1
    12    11     3    1
    13    11    12    1
    14    50    47    1
    15    26    27    1
    16    26    25    1
    17     8     2    1
    18    32    31   ar
    19    32    33   ar
    20    21    20    1
    21    31    30   ar
    22    48    47   ar
    23    48    44   ar
    24     3     2   ar
    25     3     4   ar
    26    47    46   ar
    27     2     1   ar
    28    24    22    1
    29    33    44    1
    30    33    34   ar
    31    20    19   ar
    32    20    16   ar
    33    30    19    1
    34    30    34   ar
    35    44    45   ar
    36    41    40    1
    37     4    16    1
    38     4     5   ar
    39    19    18   ar
    40     1     7    1
    41     1     5   ar
    42    16    17   ar
    43    34    35    1
    44    53    51    1
    45    46    45   ar
    46    46    54    1
    47    13    12    1
    48    55    54    1
    49    55    56    1
    50    55    57    1
    51     5     6    1
    52    45    51    1
    53    40    43    1
    54    40    42    1
    55    18    17   ar
    56    18    25    1
    57    17    22    1
    58    12    15    1
    59    12    14    1
    60    22    23    1
    61    51    52    1
