@<TRIPOS>MOLECULE
mol_data/opt/cam/geoms/mol2/13hl13hl-13hl-13hl-.out
 58 61 0 0 0
SMALL
GASTEIGER

@<TRIPOS>ATOM
      1 C           1.2981   -0.2250   -0.6456 C.ar    1  LIG1        0.0267
      2 C           0.8437    0.7868   -1.4623 C.ar    1  LIG1        0.0851
      3 C          -0.5733    0.7756   -1.3652 C.ar    1  LIG1        0.1673
      4 C          -0.9400   -0.2302   -0.4942 C.ar    1  LIG1        0.1089
      5 N           0.2086   -0.8357   -0.0728 N.ar    1  LIG1       -0.3549
      6 H           0.1846   -1.5879    0.6038 H       1  LIG1        0.1655
      7 H           2.3045   -0.5578   -0.4439 H       1  LIG1        0.0827
      8 N           1.5747    1.6520   -2.3019 N.pl3   1  LIG1       -0.3540
      9 H           1.2646    2.6114   -2.1943 H       1  LIG1        0.1425
     10 H           2.5695    1.6094   -2.1196 H       1  LIG1        0.1425
     11 O          -1.4515    1.6327   -1.9923 O.3     1  LIG1       -0.4911
     12 C          -1.5056    1.4388   -3.4042 C.3     1  LIG1        0.0790
     13 H          -2.1839    2.1960   -3.8020 H       1  LIG1        0.0660
     14 H          -0.5146    1.5582   -3.8519 H       1  LIG1        0.0660
     15 H          -1.8881    0.4405   -3.6455 H       1  LIG1        0.0660
     16 C          -2.2390   -0.6282   -0.0126 C.ar    1  LIG1        0.0916
     17 C          -2.5999   -1.6762    0.8123 C.ar    1  LIG1        0.0947
     18 C          -4.0034   -1.5856    1.0055 C.ar    1  LIG1        0.1679
     19 C          -4.4765   -0.5002    0.2905 C.ar    1  LIG1        0.1094
     20 N          -3.3741    0.0607   -0.3287 N.ar    1  LIG1       -0.3473
     21 H          -3.3687    0.8767   -0.9225 H       1  LIG1        0.1662
     22 N          -1.6854   -2.6197    1.3728 N.pl3   1  LIG1       -0.3534
     23 H          -1.9473   -2.8115    2.3358 H       1  LIG1        0.1425
     24 H          -1.7419   -3.5088    0.8820 H       1  LIG1        0.1425
     25 O          -4.7136   -2.4008    1.8402 O.3     1  LIG1       -0.4911
     26 C          -5.4066   -3.4579    1.1864 C.3     1  LIG1        0.0790
     27 H          -5.9276   -4.0168    1.9658 H       1  LIG1        0.0660
     28 H          -6.1305   -3.0735    0.4603 H       1  LIG1        0.0660
     29 H          -4.7054   -4.1309    0.6748 H       1  LIG1        0.0660
     30 C          -5.8158    0.0611    0.1671 C.ar    1  LIG1        0.0917
     31 C          -6.9279   -0.3901   -0.5174 C.ar    1  LIG1        0.0947
     32 C          -7.9694    0.5448   -0.2929 C.ar    1  LIG1        0.1679
     33 C          -7.4893    1.5574    0.5194 C.ar    1  LIG1        0.1094
     34 N          -6.1740    1.2505    0.7712 N.ar    1  LIG1       -0.3473
     35 H          -5.5729    1.7811    1.3796 H       1  LIG1        0.1662
     36 N          -7.0693   -1.5798   -1.2507 N.pl3   1  LIG1       -0.3534
     37 H          -7.9555   -1.5884   -1.7411 H       1  LIG1        0.1425
     38 H          -6.3052   -1.7425   -1.8945 H       1  LIG1        0.1425
     39 O          -9.2342    0.3844   -0.7893 O.3     1  LIG1       -0.4911
     40 C          -9.5678    1.2574   -1.8632 C.3     1  LIG1        0.0790
     41 H         -10.5942    1.0198   -2.1484 H       1  LIG1        0.0660
     42 H          -9.5024    2.3092   -1.5692 H       1  LIG1        0.0660
     43 H          -8.9087    1.0883   -2.7251 H       1  LIG1        0.0660
     44 C          -8.1430    2.7273    1.0958 C.ar    1  LIG1        0.0912
     45 C          -8.4869    3.9376    0.5340 C.ar    1  LIG1        0.0940
     46 C          -9.0972    4.7136    1.5545 C.ar    1  LIG1        0.1585
     47 C          -9.1126    3.9741    2.7131 C.ar    1  LIG1        0.0463
     48 N          -8.5075    2.7767    2.4311 N.ar    1  LIG1       -0.3549
     49 H          -8.5219    1.9667    3.0269 H       1  LIG1        0.1655
     50 H          -9.4847    4.2059    3.6975 H       1  LIG1        0.0845
     51 N          -8.3299    4.3579   -0.7967 N.pl3   1  LIG1       -0.3535
     52 H          -8.3795    5.3668   -0.8681 H       1  LIG1        0.1425
     53 H          -7.4708    4.0191   -1.2112 H       1  LIG1        0.1425
     54 O          -9.5207    5.9855    1.3088 O.3     1  LIG1       -0.4918
     55 C         -10.0991    6.6430    2.4116 C.3     1  LIG1        0.0789
     56 H         -10.3904    7.6380    2.0745 H       1  LIG1        0.0660
     57 H         -10.9871    6.1077    2.7714 H       1  LIG1        0.0660
     58 H          -9.3839    6.7351    3.2396 H       1  LIG1        0.0660
@<TRIPOS>BOND
     1    14    12    1
     2    13    12    1
     3    15    12    1
     4    12    11    1
     5    43    40    1
     6     8     9    1
     7     8    10    1
     8     8     2    1
     9    41    40    1
    10    11     3    1
    11    38    36    1
    12    40    42    1
    13    40    39    1
    14    37    36    1
    15     2     3   ar
    16     2     1   ar
    17     3     4   ar
    18    36    31    1
    19    53    51    1
    20    21    20    1
    21    52    51    1
    22    51    45    1
    23    39    32    1
    24     1     7    1
    25     1     5   ar
    26    31    32   ar
    27    31    30   ar
    28     4     5   ar
    29     4    16    1
    30    20    16   ar
    31    20    19   ar
    32    32    33   ar
    33     5     6    1
    34    16    17   ar
    35    30    19    1
    36    30    34   ar
    37    19    18   ar
    38    28    26    1
    39    33    34   ar
    40    33    44    1
    41    45    44   ar
    42    45    46   ar
    43    29    26    1
    44    34    35    1
    45    17    18   ar
    46    17    22    1
    47    24    22    1
    48    18    25    1
    49    44    48   ar
    50    26    25    1
    51    26    27    1
    52    54    46    1
    53    54    55    1
    54    22    23    1
    55    46    47   ar
    56    56    55    1
    57    55    57    1
    58    55    58    1
    59    48    47   ar
    60    48    49    1
    61    47    50    1
