@<TRIPOS>MOLECULE
mol_data/opt/cam/geoms/mol2/13hl13hl-13hl-13hl.out
 58 61 0 0 0
SMALL
GASTEIGER

@<TRIPOS>ATOM
      1 C           1.3601   -1.0168   -0.8957 C.ar    1  LIG1        0.0267
      2 C           0.9997    0.0274   -1.7189 C.ar    1  LIG1        0.0851
      3 C          -0.3887    0.2425   -1.5107 C.ar    1  LIG1        0.1673
      4 C          -0.8342   -0.6746   -0.5804 C.ar    1  LIG1        0.1089
      5 N           0.2413   -1.4315   -0.2151 N.ar    1  LIG1       -0.3549
      6 H           0.1523   -2.1528    0.4897 H       1  LIG1        0.1655
      7 H           2.3205   -1.4850   -0.7452 H       1  LIG1        0.0827
      8 N           1.8044    0.8074   -2.5751 N.pl3   1  LIG1       -0.3540
      9 H           2.7268    0.4090   -2.6982 H       1  LIG1        0.1425
     10 H           1.3712    0.9133   -3.4859 H       1  LIG1        0.1425
     11 O          -1.1837    1.1758   -2.1400 O.3     1  LIG1       -0.4911
     12 C          -0.8671    2.5161   -1.7692 C.3     1  LIG1        0.0790
     13 H          -1.5151    3.1682   -2.3579 H       1  LIG1        0.0660
     14 H          -1.0549    2.6792   -0.7017 H       1  LIG1        0.0660
     15 H           0.1811    2.7426   -1.9852 H       1  LIG1        0.0660
     16 C          -2.1499   -0.8982   -0.0353 C.ar    1  LIG1        0.0916
     17 C          -2.5798   -1.8140    0.9057 C.ar    1  LIG1        0.0947
     18 C          -3.9706   -1.5933    1.0928 C.ar    1  LIG1        0.1679
     19 C          -4.3682   -0.5660    0.2563 C.ar    1  LIG1        0.1094
     20 N          -3.2310   -0.1599   -0.4190 N.ar    1  LIG1       -0.3473
     21 H          -3.1854    0.5364   -1.1481 H       1  LIG1        0.1662
     22 N          -1.7282   -2.7584    1.5601 N.pl3   1  LIG1       -0.3534
     23 H          -1.8335   -2.6762    2.5678 H       1  LIG1        0.1425
     24 H          -2.0072   -3.7078    1.3269 H       1  LIG1        0.1425
     25 O          -4.7292   -2.2471    2.0216 O.3     1  LIG1       -0.4911
     26 C          -5.5098   -3.3179    1.5063 C.3     1  LIG1        0.0790
     27 H          -6.0616   -3.7347    2.3510 H       1  LIG1        0.0660
     28 H          -6.2118   -2.9708    0.7413 H       1  LIG1        0.0660
     29 H          -4.8709   -4.1026    1.0783 H       1  LIG1        0.0660
     30 C          -5.6592    0.0813    0.0622 C.ar    1  LIG1        0.0917
     31 C          -6.8077   -0.3699   -0.5668 C.ar    1  LIG1        0.0947
     32 C          -7.7587    0.6751   -0.4880 C.ar    1  LIG1        0.1679
     33 C          -7.1838    1.7378    0.1845 C.ar    1  LIG1        0.1094
     34 N          -5.9130    1.3680    0.4987 N.ar    1  LIG1       -0.3473
     35 H          -5.2985    1.9776    1.0246 H       1  LIG1        0.1662
     36 N          -7.0288   -1.6363   -1.1361 N.pl3   1  LIG1       -0.3534
     37 H          -7.9170   -1.6786   -1.6183 H       1  LIG1        0.1425
     38 H          -6.2778   -1.9365   -1.7448 H       1  LIG1        0.1425
     39 O          -9.0393    0.6504   -1.0056 O.3     1  LIG1       -0.4911
     40 C          -9.0891    1.0362   -2.3750 C.3     1  LIG1        0.0790
     41 H         -10.1283    0.9426   -2.6967 H       1  LIG1        0.0660
     42 H          -8.7559    2.0721   -2.5052 H       1  LIG1        0.0660
     43 H          -8.4599    0.3866   -2.9939 H       1  LIG1        0.0660
     44 C          -7.7372    3.0119    0.5706 C.ar    1  LIG1        0.0912
     45 C          -7.1411    4.0804    1.2090 C.ar    1  LIG1        0.0940
     46 C          -8.1475    5.0725    1.3731 C.ar    1  LIG1        0.1585
     47 C          -9.3203    4.5904    0.8408 C.ar    1  LIG1        0.0463
     48 N          -9.0446    3.3335    0.3414 N.ar    1  LIG1       -0.3549
     49 H          -9.7100    2.6660   -0.0159 H       1  LIG1        0.1655
     50 H         -10.3036    5.0238    0.7671 H       1  LIG1        0.0845
     51 N          -5.7742    4.1214    1.6181 N.pl3   1  LIG1       -0.3535
     52 H          -5.2816    4.8725    1.1418 H       1  LIG1        0.1425
     53 H          -5.7130    4.3305    2.6109 H       1  LIG1        0.1425
     54 O          -7.8833    6.2658    1.9679 O.3     1  LIG1       -0.4918
     55 C          -8.9886    7.1327    2.0788 C.3     1  LIG1        0.0789
     56 H          -8.6367    8.0373    2.5753 H       1  LIG1        0.0660
     57 H          -9.3891    7.3934    1.0907 H       1  LIG1        0.0660
     58 H          -9.7905    6.6790    2.6751 H       1  LIG1        0.0660
@<TRIPOS>BOND
     1    10     8    1
     2    43    40    1
     3     9     8    1
     4    41    40    1
     5     8     2    1
     6    42    40    1
     7    40    39    1
     8    13    12    1
     9    11    12    1
    10    11     3    1
    11    15    12    1
    12    12    14    1
    13    38    36    1
    14     2     3   ar
    15     2     1   ar
    16    37    36    1
    17     3     4   ar
    18    21    20    1
    19    36    31    1
    20    39    32    1
    21     1     7    1
    22     1     5   ar
    23     4     5   ar
    24     4    16    1
    25    31    32   ar
    26    31    30   ar
    27    32    33   ar
    28    20    16   ar
    29    20    19   ar
    30     5     6    1
    31    16    17   ar
    32    49    48    1
    33    30    19    1
    34    30    34   ar
    35    33    34   ar
    36    33    44    1
    37    19    18   ar
    38    48    44   ar
    39    48    47   ar
    40    34    35    1
    41    44    45   ar
    42    28    26    1
    43    50    47    1
    44    47    46   ar
    45    17    18   ar
    46    17    22    1
    47    29    26    1
    48    57    55    1
    49    18    25    1
    50    52    51    1
    51    45    46   ar
    52    45    51    1
    53    24    22    1
    54    46    54    1
    55    26    25    1
    56    26    27    1
    57    22    23    1
    58    51    53    1
    59    54    55    1
    60    55    56    1
    61    55    58    1
