@<TRIPOS>MOLECULE
mol_data/opt/cam/geoms/mol2/13hl4ee-12el-4hf12al6ah-13aa12le.out
 99 106 0 0 0
SMALL
GASTEIGER

@<TRIPOS>ATOM
      1 C           0.9018    0.5261    1.8714 C.ar    1  LIG1        0.0267
      2 C           0.7599    1.6886    1.1532 C.ar    1  LIG1        0.0850
      3 C          -0.5502    1.6657    0.5901 C.ar    1  LIG1        0.1658
      4 C          -1.1608    0.4819    0.9596 C.ar    1  LIG1        0.0918
      5 N          -0.2458   -0.2104    1.7221 N.ar    1  LIG1       -0.3561
      6 H          -0.4805   -1.0251    2.2638 H       1  LIG1        0.1655
      7 H           1.7265    0.1721    2.4707 H       1  LIG1        0.0827
      8 N           1.6903    2.7327    0.9792 N.pl3   1  LIG1       -0.3540
      9 H           2.5990    2.4964    1.3577 H       1  LIG1        0.1425
     10 H           1.7992    2.9660   -0.0018 H       1  LIG1        0.1425
     11 O          -1.0633    2.5691   -0.2930 O.3     1  LIG1       -0.4911
     12 C          -1.1269    3.9070    0.1915 C.3     1  LIG1        0.0790
     13 H          -1.5693    4.5012   -0.6092 H       1  LIG1        0.0660
     14 H          -1.7610    3.9656    1.0797 H       1  LIG1        0.0660
     15 H          -0.1336    4.2919    0.4371 H       1  LIG1        0.0660
     16 C          -3.6635    0.4933    0.5420 C.ar    1  LIG1        0.0346
     17 C          -4.7980   -0.2042    0.1235 C.ar    1  LIG1       -0.0338
     18 C          -2.4114   -0.1552    0.5430 C.ar    1  LIG1        0.0185
     19 C          -4.7515   -1.5347   -0.2844 C.ar    1  LIG1        0.0352
     20 H          -5.7516    0.3079    0.1434 H       1  LIG1        0.0637
     21 C          -2.3711   -1.4885    0.1337 C.ar    1  LIG1       -0.0352
     22 C          -3.5032   -2.1935   -0.2768 C.ar    1  LIG1        0.0361
     23 H          -1.4129   -1.9934    0.0937 H       1  LIG1        0.0637
     24 C          -3.8544    1.8229    1.0350 C.1     1  LIG1       -0.0690
     25 C          -4.1230    2.9115    1.4737 C.1     1  LIG1       -0.1139
     26 H          -4.3467    3.8783    1.8616 H       1  LIG1        0.1232
     27 C          -3.3138   -3.5351   -0.7422 C.1     1  LIG1       -0.0689
     28 C          -3.0644   -4.6425   -1.1447 C.1     1  LIG1       -0.1139
     29 H          -2.8545   -5.6125   -1.5339 H       1  LIG1        0.1232
     30 C          -5.9903   -2.1900   -0.6888 C.ar    1  LIG1        0.1559
     31 C          -7.1204   -1.7372   -1.3197 C.ar    1  LIG1        0.1127
     32 C          -7.9950   -2.8751   -1.4144 C.ar    1  LIG1        0.1817
     33 C          -7.3600   -3.9422   -0.8326 C.ar    1  LIG1        0.1802
     34 O          -6.1372   -3.4982   -0.4002 O.2     1  LIG1       -0.4497
     35 C          -7.3652   -0.4446   -1.8522 C.1     1  LIG1       -0.0622
     36 C          -7.5889    0.6496   -2.3029 C.1     1  LIG1       -0.1137
     37 H          -7.7696    1.6144   -2.7179 H       1  LIG1        0.1232
     38 O          -9.1949   -2.8624   -2.0613 O.3     1  LIG1       -0.4901
     39 C         -10.2013   -2.0650   -1.4260 C.3     1  LIG1        0.0790
     40 H         -11.0569   -2.0603   -2.1018 H       1  LIG1        0.0660
     41 H         -10.4845   -2.5141   -0.4694 H       1  LIG1        0.0660
     42 H          -9.8505   -1.0418   -1.2786 H       1  LIG1        0.0660
     43 C          -8.8546   -5.9987   -0.6540 C.ar    1  LIG1        0.0364
     44 C          -8.9258   -7.3564   -0.3448 C.ar    1  LIG1       -0.0262
     45 C          -7.5963   -5.3655   -0.5804 C.ar    1  LIG1        0.0451
     46 C          -7.8283   -8.1175    0.0552 C.ar    1  LIG1        0.0605
     47 H          -9.8894   -7.8491   -0.4311 H       1  LIG1        0.0644
     48 C          -6.4876   -6.1356   -0.2029 C.ar    1  LIG1       -0.0069
     49 C          -6.5807   -7.4766    0.1205 C.ar    1  LIG1        0.1283
     50 H          -5.5179   -5.6516   -0.1513 H       1  LIG1        0.0662
     51 N         -10.0207   -5.3073   -0.9740 N.pl3   1  LIG1       -0.3574
     52 H          -9.8997   -4.5710   -1.6592 H       1  LIG1        0.1423
     53 H         -10.7978   -5.9133   -1.1944 H       1  LIG1        0.1423
     54 O          -5.4856   -8.1891    0.5144 O.3     1  LIG1       -0.5060
     55 H          -4.7447   -7.5799    0.6127 H       1  LIG1        0.2922
     56 C          -8.0289   -9.5187    0.4033 C.ar    1  LIG1        0.1429
     57 C          -9.1395  -10.1900    0.8401 C.ar    1  LIG1        0.0268
     58 C          -8.7417  -11.5472    0.9898 C.ar    1  LIG1        0.1663
     59 C          -7.4164  -11.6260    0.6428 C.ar    1  LIG1        0.1786
     60 O          -6.9956  -10.3789    0.2828 O.2     1  LIG1       -0.4509
     61 H         -10.1032   -9.7562    1.0543 H       1  LIG1        0.0692
     62 O          -9.4753  -12.6098    1.4023 O.3     1  LIG1       -0.4913
     63 C         -10.8060  -12.3320    1.7891 C.3     1  LIG1        0.0790
     64 H         -11.2405  -13.2798    2.1059 H       1  LIG1        0.0660
     65 H         -10.8388  -11.6229    2.6240 H       1  LIG1        0.0660
     66 H         -11.3893  -11.9301    0.9525 H       1  LIG1        0.0660
     67 C          -5.1072  -12.4352    0.2719 C.ar    1  LIG1        0.0392
     68 C          -6.4435  -12.6971    0.6022 C.ar    1  LIG1        0.0408
     69 C          -6.7909  -14.0213    0.8680 C.ar    1  LIG1       -0.0267
     70 C          -5.8266  -15.0221    0.8251 C.ar    1  LIG1        0.0530
     71 C          -4.4991  -14.6475    0.5292 C.ar    1  LIG1        0.1076
     72 N          -4.1799  -13.3785    0.2375 N.ar    1  LIG1       -0.2510
     73 H          -7.8203  -14.2729    1.0996 H       1  LIG1        0.0644
     74 H          -4.7941  -11.4225    0.0387 H       1  LIG1        0.0837
     75 N          -6.1625  -16.3482    1.0858 N.pl3   1  LIG1       -0.3563
     76 H          -7.1531  -16.5362    1.0190 H       1  LIG1        0.1424
     77 H          -5.6176  -17.0194    0.5608 H       1  LIG1        0.1424
     78 C          -3.3861  -15.5932    0.4816 C.ar    1  LIG1        0.0673
     79 C          -3.1776  -16.8869    0.9428 C.ar    1  LIG1       -0.0342
     80 C          -1.8517  -17.2496    0.6200 C.ar    1  LIG1       -0.0326
     81 C          -1.2790  -16.1722   -0.0308 C.ar    1  LIG1        0.0863
     82 N          -2.2204  -15.1858   -0.1057 N.ar    1  LIG1       -0.3504
     83 H          -2.1043  -14.2495   -0.4650 H       1  LIG1        0.1660
     84 H          -3.8747  -17.4768    1.5169 H       1  LIG1        0.0639
     85 H          -1.3491  -18.1782    0.8423 H       1  LIG1        0.0640
     86 C           0.0395  -16.0014   -0.5823 C.ar    1  LIG1        0.1935
     87 C           1.1182  -16.8264   -0.6991 C.ar    1  LIG1        0.1825
     88 C           2.1643  -16.0636   -1.3370 C.ar    1  LIG1        0.1047
     89 C           1.6273  -14.8307   -1.5523 C.ar    1  LIG1        0.1117
     90 O           0.3560  -14.7757   -1.1006 O.2     1  LIG1       -0.4564
     91 H           2.0239  -13.9322   -1.9961 H       1  LIG1        0.1043
     92 O           1.1775  -18.1017   -0.2408 O.3     1  LIG1       -0.4901
     93 C           1.3877  -19.0870   -1.2478 C.3     1  LIG1        0.0790
     94 H           1.4102  -20.0495   -0.7361 H       1  LIG1        0.0660
     95 H           0.5698  -19.0791   -1.9766 H       1  LIG1        0.0660
     96 H           2.3380  -18.9286   -1.7652 H       1  LIG1        0.0660
     97 C           3.4840  -16.4859   -1.6508 C.1     1  LIG1       -0.0628
     98 C           4.6005  -16.8485   -1.9181 C.1     1  LIG1       -0.1137
     99 H           5.5930  -17.1630   -2.1446 H       1  LIG1        0.1232
@<TRIPOS>BOND
     1    37    36    1
     2    36    35    3
     3    99    98    1
     4    40    39    1
     5    38    39    1
     6    38    32    1
     7    91    89    1
     8    95    93    1
     9    98    97    3
    10    35    31    1
    11    96    93    1
    12    52    51    1
    13    97    88    1
    14    89    88   ar
    15    89    90   ar
    16    29    28    1
    17    39    42    1
    18    39    41    1
    19    32    31   ar
    20    32    33   ar
    21    88    87   ar
    22    31    30   ar
    23    93    94    1
    24    93    92    1
    25    53    51    1
    26    28    27    3
    27    90    86   ar
    28    51    43    1
    29    33    45    1
    30    33    34   ar
    31    27    22    1
    32    87    86   ar
    33    87    92    1
    34    30    34   ar
    35    30    19    1
    36    43    45   ar
    37    43    44   ar
    38    13    12    1
    39    86    81    1
    40    45    48   ar
    41    83    82    1
    42    47    44    1
    43    44    46   ar
    44    11    12    1
    45    11     3    1
    46    19    22   ar
    47    19    17   ar
    48    22    21   ar
    49    48    50    1
    50    48    49   ar
    51    82    81   ar
    52    82    78   ar
    53    81    80   ar
    54    10     8    1
    55    74    67    1
    56    46    49   ar
    57    46    56    1
    58    23    21    1
    59    49    54    1
    60    17    20    1
    61    17    16   ar
    62    21    18   ar
    63    12    15    1
    64    12    14    1
    65    72    67   ar
    66    72    71   ar
    67    67    68   ar
    68    60    56   ar
    69    60    59   ar
    70    56    57   ar
    71    78    71    1
    72    78    79   ar
    73    54    55    1
    74    71    70   ar
    75    16    18   ar
    76    16    24    1
    77    18     4    1
    78    77    75    1
    79     3     4   ar
    80     3     2   ar
    81    68    59    1
    82    68    69   ar
    83    80    85    1
    84    80    79   ar
    85    59    58   ar
    86    70    69   ar
    87    70    75    1
    88    57    58   ar
    89    57    61    1
    90    69    73    1
    91    79    84    1
    92    66    63    1
    93     4     5   ar
    94     8     2    1
    95     8     9    1
    96    58    62    1
    97    76    75    1
    98    24    25    3
    99     2     1   ar
   100    62    63    1
   101    25    26    1
   102     5     1   ar
   103     5     6    1
   104    63    64    1
   105    63    65    1
   106     1     7    1
