@<TRIPOS>MOLECULE
mol_data/opt/cam/geoms/mol2/13hl13hl13hl13hl.out
 58 61 0 0 0
SMALL
GASTEIGER

@<TRIPOS>ATOM
      1 C           1.4118   -0.4510    0.0464 C.ar    1  LIG1        0.0267
      2 C           1.1943    0.8794   -0.1923 C.ar    1  LIG1        0.0851
      3 C          -0.2162    1.0542   -0.3145 C.ar    1  LIG1        0.1673
      4 C          -0.8290   -0.1739   -0.1644 C.ar    1  LIG1        0.1089
      5 N           0.1828   -1.0904    0.0266 N.ar    1  LIG1       -0.3549
      6 H           0.0132   -1.9815    0.4626 H       1  LIG1        0.1655
      7 H           2.3286   -0.9979    0.2012 H       1  LIG1        0.0827
      8 N           2.1165    1.9351   -0.2889 N.pl3   1  LIG1       -0.3540
      9 H           3.0660    1.6121   -0.4218 H       1  LIG1        0.1425
     10 H           1.8694    2.5681   -1.0411 H       1  LIG1        0.1425
     11 O          -0.8238    2.2562   -0.6034 O.3     1  LIG1       -0.4911
     12 C          -0.7547    3.1864    0.4823 C.3     1  LIG1        0.0790
     13 H          -1.1446    4.1343    0.1062 H       1  LIG1        0.0660
     14 H          -1.3719    2.8419    1.3183 H       1  LIG1        0.0660
     15 H           0.2785    3.3192    0.8146 H       1  LIG1        0.0660
     16 C          -2.2075   -0.5984   -0.2198 C.ar    1  LIG1        0.0916
     17 C          -3.3914    0.0960   -0.1183 C.ar    1  LIG1        0.0947
     18 C          -4.4421   -0.8634   -0.1957 C.ar    1  LIG1        0.1679
     19 C          -3.9005   -2.1192   -0.3478 C.ar    1  LIG1        0.1094
     20 N          -2.5242   -1.9629   -0.3171 N.ar    1  LIG1       -0.3473
     21 H          -1.9538   -2.5705   -0.8881 H       1  LIG1        0.1662
     22 N          -3.5945    1.4562    0.0981 N.pl3   1  LIG1       -0.3534
     23 H          -2.8838    2.0181   -0.3571 H       1  LIG1        0.1425
     24 H          -4.5271    1.7334   -0.1817 H       1  LIG1        0.1425
     25 O          -5.7754   -0.5326   -0.1181 O.3     1  LIG1       -0.4911
     26 C          -6.3027   -0.6009    1.2063 C.3     1  LIG1        0.0790
     27 H          -7.3439   -0.2804    1.1486 H       1  LIG1        0.0660
     28 H          -6.2579   -1.6253    1.5888 H       1  LIG1        0.0660
     29 H          -5.7475    0.0637    1.8761 H       1  LIG1        0.0660
     30 C          -4.5003   -3.4172   -0.5161 C.ar    1  LIG1        0.0917
     31 C          -5.7614   -3.8001   -0.9201 C.ar    1  LIG1        0.0947
     32 C          -5.7749   -5.2293   -0.9403 C.ar    1  LIG1        0.1679
     33 C          -4.5345   -5.6941   -0.5689 C.ar    1  LIG1        0.1094
     34 N          -3.7386   -4.5789   -0.3457 N.ar    1  LIG1       -0.3473
     35 H          -3.0356   -4.6138    0.3790 H       1  LIG1        0.1662
     36 N          -6.8600   -3.0101   -1.2544 N.pl3   1  LIG1       -0.3534
     37 H          -6.6626   -2.0159   -1.2373 H       1  LIG1        0.1425
     38 H          -7.3115   -3.3042   -2.1110 H       1  LIG1        0.1425
     39 O          -6.8453   -5.9851   -1.3552 O.3     1  LIG1       -0.4911
     40 C          -7.9626   -5.9092   -0.4627 C.3     1  LIG1        0.0790
     41 H          -8.7877   -6.4282   -0.9540 H       1  LIG1        0.0660
     42 H          -7.7268   -6.4086    0.4829 H       1  LIG1        0.0660
     43 H          -8.2390   -4.8685   -0.2768 H       1  LIG1        0.0660
     44 C          -3.9845   -7.0204   -0.4228 C.ar    1  LIG1        0.0912
     45 C          -4.5764   -8.2598   -0.2834 C.ar    1  LIG1        0.0940
     46 C          -3.5212   -9.2045   -0.1218 C.ar    1  LIG1        0.1585
     47 C          -2.3261   -8.5382   -0.1716 C.ar    1  LIG1        0.0463
     48 N          -2.6068   -7.2037   -0.3207 N.ar    1  LIG1       -0.3549
     49 H          -1.9554   -6.5443   -0.7142 H       1  LIG1        0.1655
     50 H          -1.3164   -8.9136   -0.1217 H       1  LIG1        0.0845
     51 N          -5.9341   -8.5828   -0.2398 N.pl3   1  LIG1       -0.3535
     52 H          -6.4765   -7.9688   -0.8379 H       1  LIG1        0.1425
     53 H          -6.0760   -9.5528   -0.4952 H       1  LIG1        0.1425
     54 O          -3.7151  -10.5495    0.0460 O.3     1  LIG1       -0.4918
     55 C          -4.0624  -10.9052    1.3778 C.3     1  LIG1        0.0789
     56 H          -4.2330  -11.9831    1.3843 H       1  LIG1        0.0660
     57 H          -3.2508  -10.6613    2.0731 H       1  LIG1        0.0660
     58 H          -4.9727  -10.3888    1.7031 H       1  LIG1        0.0660
@<TRIPOS>BOND
     1    38    36    1
     2    39    32    1
     3    39    40    1
     4    36    37    1
     5    36    31    1
     6    10     8    1
     7    41    40    1
     8    32    31   ar
     9    32    33   ar
    10    31    30   ar
    11    21    20    1
    12    52    51    1
    13    49    48    1
    14    11     3    1
    15    11    12    1
    16    33    44    1
    17    33    34   ar
    18    30    19    1
    19    30    34   ar
    20    53    51    1
    21    40    43    1
    22    40    42    1
    23    44    48   ar
    24    44    45   ar
    25     9     8    1
    26    23    22    1
    27    19    20   ar
    28    19    18   ar
    29    34    35    1
    30    48    47   ar
    31    20    16   ar
    32     3     2   ar
    33     3     4   ar
    34     8     2    1
    35    45    51    1
    36    45    46   ar
    37    16     4    1
    38    16    17   ar
    39    18    17   ar
    40    18    25    1
    41     2     1   ar
    42    24    22    1
    43    47    46   ar
    44    47    50    1
    45     4     5   ar
    46    46    54    1
    47    17    22    1
    48    25    26    1
    49     5     1   ar
    50     5     6    1
    51    54    55    1
    52     1     7    1
    53    13    12    1
    54    12    15    1
    55    12    14    1
    56    27    26    1
    57    26    28    1
    58    26    29    1
    59    55    56    1
    60    55    58    1
    61    55    57    1
