@<TRIPOS>MOLECULE
mol_data/opt/cam/geoms/mol2/13hl6ii4ee12he-.out
 56 59 0 0 0
SMALL
GASTEIGER

@<TRIPOS>ATOM
      1 C           1.0016    0.4985   -1.7472 C.ar    1  LIG1        0.0267
      2 C           0.8738    1.3631   -0.6878 C.ar    1  LIG1        0.0850
      3 C          -0.3742    1.0727   -0.0784 C.ar    1  LIG1        0.1658
      4 C          -0.9825    0.0336   -0.7634 C.ar    1  LIG1        0.0923
      5 N          -0.1127   -0.3087   -1.7701 N.ar    1  LIG1       -0.3560
      6 H          -0.3309   -0.9517   -2.5100 H       1  LIG1        0.1655
      7 H           1.7949    0.3816   -2.4689 H       1  LIG1        0.0827
      8 N           1.7741    2.3185   -0.1928 N.pl3   1  LIG1       -0.3540
      9 H           2.4308    2.6439   -0.8900 H       1  LIG1        0.1425
     10 H           1.2787    3.1082    0.2041 H       1  LIG1        0.1425
     11 O          -0.8685    1.7495    1.0075 O.3     1  LIG1       -0.4911
     12 C          -0.3157    1.3088    2.2445 C.3     1  LIG1        0.0790
     13 H          -0.7400    1.9434    3.0244 H       1  LIG1        0.0660
     14 H          -0.5810    0.2642    2.4405 H       1  LIG1        0.0660
     15 H           0.7748    1.4079    2.2425 H       1  LIG1        0.0660
     16 C          -2.6041   -1.9207   -0.8768 C.ar    1  LIG1        0.0481
     17 C          -2.2925   -0.5867   -0.5516 C.ar    1  LIG1        0.0232
     18 C          -3.3062    0.1715    0.0407 C.ar    1  LIG1       -0.0459
     19 C          -4.5740   -0.3466    0.2620 C.ar    1  LIG1       -0.0238
     20 C          -4.7914   -1.6672   -0.1547 C.ar    1  LIG1        0.0754
     21 N          -3.8227   -2.4215   -0.6761 N.ar    1  LIG1       -0.2509
     22 H          -3.0806    1.1862    0.3492 H       1  LIG1        0.0628
     23 C          -1.6076   -2.8980   -1.4464 C.3     1  LIG1       -0.0217
     24 H          -0.6168   -2.7834   -1.0017 H       1  LIG1        0.0293
     25 H          -1.5068   -2.7895   -2.5339 H       1  LIG1        0.0293
     26 H          -1.9744   -3.9080   -1.2649 H       1  LIG1        0.0293
     27 C          -5.6292    0.4826    0.9423 C.3     1  LIG1       -0.0377
     28 H          -6.1915   -0.1063    1.6711 H       1  LIG1        0.0278
     29 H          -6.3486    0.8794    0.2216 H       1  LIG1        0.0278
     30 H          -5.1729    1.3262    1.4645 H       1  LIG1        0.0278
     31 C          -7.2759   -1.9642   -0.6369 C.ar    1  LIG1        0.0346
     32 C          -8.4623   -2.6687   -0.4179 C.ar    1  LIG1       -0.0338
     33 C          -6.1004   -2.3618    0.0233 C.ar    1  LIG1        0.0172
     34 C          -8.5231   -3.7815    0.4208 C.ar    1  LIG1        0.0357
     35 H          -9.3666   -2.3243   -0.9067 H       1  LIG1        0.0637
     36 C          -6.1562   -3.4815    0.8436 C.ar    1  LIG1       -0.0353
     37 C          -7.3333   -4.2028    1.0564 C.ar    1  LIG1        0.0361
     38 H          -5.2460   -3.8197    1.3246 H       1  LIG1        0.0637
     39 C          -7.2937   -0.8706   -1.5625 C.1     1  LIG1       -0.0690
     40 C          -7.3432    0.0322   -2.3578 C.1     1  LIG1       -0.1139
     41 H          -7.3759    0.8310   -3.0624 H       1  LIG1        0.1232
     42 C          -7.2637   -5.3669    1.8866 C.1     1  LIG1       -0.0689
     43 C          -7.1320   -6.3441    2.5768 C.1     1  LIG1       -0.1139
     44 H          -7.0364   -7.2103    3.1897 H       1  LIG1        0.1232
     45 C          -9.8012   -4.4626    0.5733 C.ar    1  LIG1        0.1578
     46 C         -10.8566   -4.6259   -0.2833 C.ar    1  LIG1        0.0866
     47 C         -11.8577   -5.3629    0.4437 C.ar    1  LIG1        0.0836
     48 C         -11.3287   -5.5818    1.6814 C.ar    1  LIG1        0.1098
     49 O         -10.1040   -5.0557    1.7772 O.2     1  LIG1       -0.4597
     50 H         -11.7132   -6.0873    2.5529 H       1  LIG1        0.1043
     51 N         -11.0100   -4.1716   -1.5852 N.pl3   1  LIG1       -0.3541
     52 H         -10.1512   -4.1212   -2.1164 H       1  LIG1        0.1425
     53 H         -11.7364   -4.6630   -2.0894 H       1  LIG1        0.1425
     54 C         -13.1159   -5.7743   -0.0687 C.1     1  LIG1       -0.0646
     55 C         -14.1684   -6.1094   -0.5490 C.1     1  LIG1       -0.1138
     56 H         -15.1076   -6.4079   -0.9546 H       1  LIG1        0.1232
@<TRIPOS>BOND
     1    41    40    1
     2    25    23    1
     3     6     5    1
     4     7     1    1
     5    40    39    3
     6    52    51    1
     7    53    51    1
     8     5     1   ar
     9     5     4   ar
    10     1     2   ar
    11    51    46    1
    12    39    31    1
    13    23    26    1
    14    23    24    1
    15    23    16    1
    16    56    55    1
    17    35    32    1
    18     9     8    1
    19    16    21   ar
    20    16    17   ar
    21     4    17    1
    22     4     3   ar
    23     2     8    1
    24     2     3   ar
    25    21    20   ar
    26    31    32   ar
    27    31    33   ar
    28    17    18   ar
    29    55    54    3
    30    32    34   ar
    31    46    47   ar
    32    46    45   ar
    33     8    10    1
    34    20    33    1
    35    20    19   ar
    36     3    11    1
    37    54    47    1
    38    33    36   ar
    39    18    19   ar
    40    18    22    1
    41    29    27    1
    42    19    27    1
    43    34    45    1
    44    34    37   ar
    45    47    48   ar
    46    45    49   ar
    47    36    37   ar
    48    36    38    1
    49    27    30    1
    50    27    28    1
    51    11    12    1
    52    37    42    1
    53    48    49   ar
    54    48    50    1
    55    42    43    3
    56    15    12    1
    57    12    14    1
    58    12    13    1
    59    43    44    1
