@<TRIPOS>MOLECULE
mol_data/opt/cam/geoms/mol2/13ia13ia.out
 24 25 0 0 0
SMALL
GASTEIGER

@<TRIPOS>ATOM
      1 C           1.0841   -0.2445    0.5722 C.ar    1  LIG1        0.0051
      2 C           0.8018    0.9377   -0.0630 C.ar    1  LIG1       -0.0325
      3 C          -0.5748    0.8855   -0.4275 C.ar    1  LIG1       -0.0321
      4 C          -1.0889   -0.3186   -0.0025 C.ar    1  LIG1        0.0634
      5 N          -0.0564   -1.0090    0.5935 N.ar    1  LIG1       -0.3593
      6 H          -0.1805   -1.8498    1.1326 H       1  LIG1        0.1654
      7 H           2.0075   -0.6025    1.0028 H       1  LIG1        0.0809
      8 C           1.7616    2.0534   -0.3379 C.3     1  LIG1       -0.0383
      9 H           1.4244    2.9931    0.1108 H       1  LIG1        0.0278
     10 H           1.8771    2.2323   -1.4118 H       1  LIG1        0.0278
     11 H           2.7518    1.8304    0.0673 H       1  LIG1        0.0278
     12 H          -1.1233    1.6355   -0.9794 H       1  LIG1        0.0642
     13 C          -2.4200   -0.8948   -0.1062 C.ar    1  LIG1        0.0658
     14 C          -3.6715   -0.3450    0.0860 C.ar    1  LIG1       -0.0238
     15 C          -4.6175   -1.3871   -0.1326 C.ar    1  LIG1       -0.0409
     16 C          -3.9277   -2.5282   -0.4455 C.ar    1  LIG1        0.0025
     17 N          -2.5925   -2.2301   -0.4133 N.ar    1  LIG1       -0.3593
     18 H          -1.8545   -2.8305   -0.7417 H       1  LIG1        0.1654
     19 H          -4.2746   -3.5224   -0.6824 H       1  LIG1        0.0807
     20 C          -3.9735    1.0671    0.4799 C.3     1  LIG1       -0.0377
     21 H          -4.7399    1.1047    1.2597 H       1  LIG1        0.0278
     22 H          -4.3455    1.6559   -0.3659 H       1  LIG1        0.0278
     23 H          -3.0787    1.5663    0.8586 H       1  LIG1        0.0278
     24 H          -5.6918   -1.2998   -0.0501 H       1  LIG1        0.0635
@<TRIPOS>BOND
     1    10     8    1
     2    12     3    1
     3    18    17    1
     4    19    16    1
     5    16    17   ar
     6    16    15   ar
     7     3     2   ar
     8     3     4   ar
     9    17    13   ar
    10    22    20    1
    11     8     2    1
    12     8    11    1
    13     8     9    1
    14    15    24    1
    15    15    14   ar
    16    13     4    1
    17    13    14   ar
    18     2     1   ar
    19     4     5   ar
    20    14    20    1
    21    20    23    1
    22    20    21    1
    23     1     5   ar
    24     1     7    1
    25     5     6    1
