@<TRIPOS>MOLECULE
mol_data/opt/cam/geoms/mol2/13ia13ia13ia13ia.out
 46 49 0 0 0
SMALL
GASTEIGER

@<TRIPOS>ATOM
      1 C           0.6130    0.1910    1.7273 C.ar    1  LIG1        0.0051
      2 C           0.8192    0.9491    0.6032 C.ar    1  LIG1       -0.0325
      3 C          -0.2931    0.7138   -0.2559 C.ar    1  LIG1       -0.0321
      4 C          -1.1411   -0.1730    0.3678 C.ar    1  LIG1        0.0634
      5 N          -0.5641   -0.5000    1.5760 N.ar    1  LIG1       -0.3593
      6 H          -1.0402   -0.9946    2.3122 H       1  LIG1        0.1654
      7 H           1.2149    0.0847    2.6175 H       1  LIG1        0.0809
      8 C           1.9959    1.8325    0.3267 C.3     1  LIG1       -0.0383
      9 H           1.6869    2.8660    0.1413 H       1  LIG1        0.0278
     10 H           2.5534    1.4997   -0.5547 H       1  LIG1        0.0278
     11 H           2.6893    1.8413    1.1713 H       1  LIG1        0.0278
     12 H          -0.4387    1.1211   -1.2463 H       1  LIG1        0.0642
     13 C          -2.4079   -0.7533   -0.0472 C.ar    1  LIG1        0.0663
     14 C          -3.5201   -0.1889   -0.6410 C.ar    1  LIG1       -0.0231
     15 C          -4.4796   -1.2262   -0.7917 C.ar    1  LIG1       -0.0314
     16 C          -3.9473   -2.3927   -0.2881 C.ar    1  LIG1        0.0639
     17 N          -2.6822   -2.0898    0.1605 N.ar    1  LIG1       -0.3517
     18 H          -2.0529   -2.7418    0.5995 H       1  LIG1        0.1660
     19 C          -3.6853    1.2438   -1.0406 C.3     1  LIG1       -0.0376
     20 H          -4.6734    1.6192   -0.7595 H       1  LIG1        0.0278
     21 H          -3.5846    1.3799   -2.1230 H       1  LIG1        0.0278
     22 H          -2.9325    1.8724   -0.5596 H       1  LIG1        0.0278
     23 H          -5.4565   -1.1348   -1.2448 H       1  LIG1        0.0642
     24 C          -4.4842   -3.7407   -0.2008 C.ar    1  LIG1        0.0663
     25 C          -5.7210   -4.2053    0.2025 C.ar    1  LIG1       -0.0231
     26 C          -5.6816   -5.6229    0.1085 C.ar    1  LIG1       -0.0314
     27 C          -4.4341   -5.9976   -0.3395 C.ar    1  LIG1        0.0639
     28 N          -3.7142   -4.8401   -0.5238 N.ar    1  LIG1       -0.3517
     29 H          -2.7626   -4.8022   -0.8503 H       1  LIG1        0.1660
     30 C          -6.8781   -3.3736    0.6595 C.3     1  LIG1       -0.0376
     31 H          -7.3407   -3.7996    1.5546 H       1  LIG1        0.0278
     32 H          -7.6592   -3.3064   -0.1057 H       1  LIG1        0.0278
     33 H          -6.5590   -2.3554    0.8929 H       1  LIG1        0.0278
     34 H          -6.4935   -6.3023    0.3257 H       1  LIG1        0.0642
     35 C          -3.8585   -7.3019   -0.6250 C.ar    1  LIG1        0.0658
     36 C          -3.9007   -8.4907    0.0751 C.ar    1  LIG1       -0.0238
     37 C          -3.1385   -9.4355   -0.6700 C.ar    1  LIG1       -0.0409
     38 C          -2.6576   -8.8065   -1.7872 C.ar    1  LIG1        0.0025
     39 N          -3.0818   -7.5059   -1.7495 N.ar    1  LIG1       -0.3593
     40 H          -3.0151   -6.8537   -2.5133 H       1  LIG1        0.1654
     41 H          -2.0484   -9.1736   -2.5990 H       1  LIG1        0.0807
     42 C          -4.5888   -8.7317    1.3822 C.3     1  LIG1       -0.0377
     43 H          -3.9490   -9.2946    2.0683 H       1  LIG1        0.0278
     44 H          -5.5116   -9.3085    1.2562 H       1  LIG1        0.0278
     45 H          -4.8551   -7.7879    1.8634 H       1  LIG1        0.0278
     46 H          -2.9560  -10.4649   -0.3953 H       1  LIG1        0.0635
@<TRIPOS>BOND
     1    41    38    1
     2    40    39    1
     3    21    19    1
     4    38    39   ar
     5    38    37   ar
     6    39    35   ar
     7    12     3    1
     8    23    15    1
     9    19    20    1
    10    19    14    1
    11    19    22    1
    12    29    28    1
    13    15    14   ar
    14    15    16   ar
    15    37    46    1
    16    37    36   ar
    17    14    13   ar
    18    35    27    1
    19    35    36   ar
    20    10     8    1
    21    28    27   ar
    22    28    24   ar
    23    27    26   ar
    24    16    24    1
    25    16    17   ar
    26     3     4   ar
    27     3     2   ar
    28    24    25   ar
    29    32    30    1
    30    13    17   ar
    31    13     4    1
    32    36    42    1
    33    26    25   ar
    34    26    34    1
    35     9     8    1
    36    17    18    1
    37    25    30    1
    38     8     2    1
    39     8    11    1
    40     4     5   ar
    41     2     1   ar
    42    30    33    1
    43    30    31    1
    44    44    42    1
    45    42    45    1
    46    42    43    1
    47     5     1   ar
    48     5     6    1
    49     1     7    1
