@<TRIPOS>MOLECULE
mol_data/opt/cam/geoms/mol2/13ia13ia-13ia-13ia.out
 46 49 0 0 0
SMALL
GASTEIGER

@<TRIPOS>ATOM
      1 C           1.2076   -0.0939   -0.5785 C.ar    1  LIG1        0.0051
      2 C           0.9069    0.8121    0.4075 C.ar    1  LIG1       -0.0325
      3 C          -0.4702    0.6309    0.7179 C.ar    1  LIG1       -0.0321
      4 C          -0.9659   -0.3742   -0.0869 C.ar    1  LIG1        0.0634
      5 N           0.0747   -0.8102   -0.8690 N.ar    1  LIG1       -0.3593
      6 H          -0.0171   -1.4875   -1.6068 H       1  LIG1        0.1654
      7 H           2.1395   -0.2875   -1.0883 H       1  LIG1        0.0809
      8 C           1.8519    1.7835    1.0439 C.3     1  LIG1       -0.0383
      9 H           1.9493    1.6062    2.1198 H       1  LIG1        0.0278
     10 H           1.5144    2.8171    0.9166 H       1  LIG1        0.0278
     11 H           2.8500    1.7061    0.6057 H       1  LIG1        0.0278
     12 H          -1.0256    1.1538    1.4850 H       1  LIG1        0.0642
     13 C          -2.3019   -0.9317   -0.1924 C.ar    1  LIG1        0.0663
     14 C          -2.7566   -2.2054   -0.4861 C.ar    1  LIG1       -0.0231
     15 C          -4.1741   -2.1652   -0.4124 C.ar    1  LIG1       -0.0314
     16 C          -4.5572   -0.8857   -0.0699 C.ar    1  LIG1        0.0639
     17 N          -3.4053   -0.1456    0.0480 N.ar    1  LIG1       -0.3517
     18 H          -3.3592    0.8089    0.3657 H       1  LIG1        0.1660
     19 C          -1.9240   -3.4084   -0.8103 C.3     1  LIG1       -0.0376
     20 H          -0.9371   -3.3504   -0.3429 H       1  LIG1        0.0278
     21 H          -1.7763   -3.5373   -1.8898 H       1  LIG1        0.0278
     22 H          -2.4049   -4.3205   -0.4479 H       1  LIG1        0.0278
     23 H          -4.8479   -2.9853   -0.6154 H       1  LIG1        0.0642
     24 C          -5.8641   -0.2903    0.1339 C.ar    1  LIG1        0.0663
     25 C          -7.0109   -0.7851    0.7227 C.ar    1  LIG1       -0.0231
     26 C          -7.9809    0.2527    0.6714 C.ar    1  LIG1       -0.0314
     27 C          -7.4147    1.3500    0.0584 C.ar    1  LIG1        0.0639
     28 N          -6.1187    1.0134   -0.2480 N.ar    1  LIG1       -0.3517
     29 H          -5.5410    1.5400   -0.8828 H       1  LIG1        0.1660
     30 C          -7.1838   -2.1358    1.3426 C.3     1  LIG1       -0.0376
     31 H          -6.2157   -2.5860    1.5741 H       1  LIG1        0.0278
     32 H          -7.7163   -2.8255    0.6782 H       1  LIG1        0.0278
     33 H          -7.7599   -2.0727    2.2702 H       1  LIG1        0.0278
     34 H          -8.9745    0.2138    1.0972 H       1  LIG1        0.0642
     35 C          -7.9753    2.6457   -0.2748 C.ar    1  LIG1        0.0658
     36 C          -7.4097    3.9057   -0.3678 C.ar    1  LIG1       -0.0238
     37 C          -8.4582    4.8016   -0.7159 C.ar    1  LIG1       -0.0409
     38 C          -9.6172    4.0773   -0.8218 C.ar    1  LIG1        0.0025
     39 N          -9.3168    2.7727   -0.5500 N.ar    1  LIG1       -0.3593
     40 H          -9.9515    1.9942   -0.6097 H       1  LIG1        0.1654
     41 H         -10.6230    4.3829   -1.0655 H       1  LIG1        0.0807
     42 C          -5.9779    4.2729   -0.1204 C.3     1  LIG1       -0.0377
     43 H          -5.9027    5.2755    0.3084 H       1  LIG1        0.0278
     44 H          -5.3815    4.2782   -1.0414 H       1  LIG1        0.0278
     45 H          -5.5031    3.5799    0.5796 H       1  LIG1        0.0278
     46 H          -8.3621    5.8689   -0.8581 H       1  LIG1        0.0635
@<TRIPOS>BOND
     1    21    19    1
     2     6     5    1
     3     7     1    1
     4    41    38    1
     5    44    42    1
     6    29    28    1
     7     5     1   ar
     8     5     4   ar
     9    46    37    1
    10    38    37   ar
    11    38    39   ar
    12    19    14    1
    13    19    22    1
    14    19    20    1
    15    37    36   ar
    16    23    15    1
    17    40    39    1
    18     1     2   ar
    19    39    35   ar
    20    14    15   ar
    21    14    13   ar
    22    15    16   ar
    23    36    35   ar
    24    36    42    1
    25    35    27    1
    26    28    27   ar
    27    28    24   ar
    28    13     4    1
    29    13    17   ar
    30    42    43    1
    31    42    45    1
    32     4     3   ar
    33    16    17   ar
    34    16    24    1
    35    17    18    1
    36    27    26   ar
    37    24    25   ar
    38     2     3   ar
    39     2     8    1
    40    11     8    1
    41    26    25   ar
    42    26    34    1
    43    32    30    1
    44     3    12    1
    45    25    30    1
    46    10     8    1
    47     8     9    1
    48    30    31    1
    49    30    33    1
