@<TRIPOS>MOLECULE
mol_data/opt/cam/geoms/mol2/13ia13ia-13ia13ia-.out
 46 49 0 0 0
SMALL
GASTEIGER

@<TRIPOS>ATOM
      1 C           1.1708   -0.2300   -0.8981 C.ar    1  LIG1        0.0051
      2 C           0.8715    1.0120   -0.3967 C.ar    1  LIG1       -0.0325
      3 C          -0.4792    0.9548    0.0487 C.ar    1  LIG1       -0.0321
      4 C          -0.9606   -0.3148   -0.1953 C.ar    1  LIG1        0.0634
      5 N           0.0626   -1.0282   -0.7690 N.ar    1  LIG1       -0.3593
      6 H          -0.0302   -1.9635   -1.1267 H       1  LIG1        0.1654
      7 H           2.0862   -0.6072   -1.3287 H       1  LIG1        0.0809
      8 C           1.7953    2.1873   -0.3169 C.3     1  LIG1       -0.0383
      9 H           1.9547    2.5061    0.7183 H       1  LIG1        0.0278
     10 H           1.3989    3.0497   -0.8624 H       1  LIG1        0.0278
     11 H           2.7733    1.9492   -0.7424 H       1  LIG1        0.0278
     12 H          -1.0261    1.7495    0.5378 H       1  LIG1        0.0642
     13 C          -2.2719   -0.8897    0.0394 C.ar    1  LIG1        0.0663
     14 C          -2.6827   -2.1735    0.3524 C.ar    1  LIG1       -0.0231
     15 C          -4.0955   -2.1320    0.4857 C.ar    1  LIG1       -0.0314
     16 C          -4.5171   -0.8379    0.2560 C.ar    1  LIG1        0.0639
     17 N          -3.3944   -0.0957   -0.0075 N.ar    1  LIG1       -0.3517
     18 H          -3.3965    0.8558   -0.3356 H       1  LIG1        0.1660
     19 C          -1.8113   -3.3739    0.5646 C.3     1  LIG1       -0.0376
     20 H          -0.8075   -3.0869    0.8893 H       1  LIG1        0.0278
     21 H          -1.7089   -3.9819   -0.3429 H       1  LIG1        0.0278
     22 H          -2.2302   -4.0268    1.3348 H       1  LIG1        0.0278
     23 H          -4.7300   -2.9580    0.7772 H       1  LIG1        0.0642
     24 C          -5.8479   -0.2656    0.2458 C.ar    1  LIG1        0.0663
     25 C          -6.3148    1.0056    0.5326 C.ar    1  LIG1       -0.0231
     26 C          -7.7250    0.9701    0.3737 C.ar    1  LIG1       -0.0314
     27 C          -8.0899   -0.3065   -0.0029 C.ar    1  LIG1        0.0639
     28 N          -6.9369   -1.0452   -0.0693 N.ar    1  LIG1       -0.3517
     29 H          -6.8742   -1.9793   -0.4389 H       1  LIG1        0.1660
     30 C          -5.5055    2.1864    0.9755 C.3     1  LIG1       -0.0376
     31 H          -6.0888    2.8289    1.6400 H       1  LIG1        0.0278
     32 H          -5.1834    2.8120    0.1336 H       1  LIG1        0.0278
     33 H          -4.6103    1.8767    1.5216 H       1  LIG1        0.0278
     34 H          -8.4061    1.7865    0.5728 H       1  LIG1        0.0642
     35 C          -9.3904   -0.8681   -0.3146 C.ar    1  LIG1        0.0658
     36 C          -9.9121   -2.1409   -0.1610 C.ar    1  LIG1       -0.0238
     37 C         -11.2553   -2.0928   -0.6264 C.ar    1  LIG1       -0.0409
     38 C         -11.5147   -0.8125   -1.0421 C.ar    1  LIG1        0.0025
     39 N         -10.3809   -0.0759   -0.8469 N.ar    1  LIG1       -0.3593
     40 H         -10.2457    0.8844   -1.1150 H       1  LIG1        0.1654
     41 H         -12.4075   -0.3698   -1.4561 H       1  LIG1        0.0807
     42 C          -9.2166   -3.3381    0.4130 C.3     1  LIG1       -0.0377
     43 H          -8.4445   -3.0478    1.1308 H       1  LIG1        0.0278
     44 H          -8.7396   -3.9551   -0.3589 H       1  LIG1        0.0278
     45 H          -9.9257   -3.9837    0.9375 H       1  LIG1        0.0278
     46 H         -11.9546   -2.9170   -0.6371 H       1  LIG1        0.0635
@<TRIPOS>BOND
     1    41    38    1
     2     7     1    1
     3     6     5    1
     4    40    39    1
     5    38    39   ar
     6    38    37   ar
     7     1     5   ar
     8     1     2   ar
     9    10     8    1
    10    39    35   ar
    11     5     4   ar
    12    11     8    1
    13    46    37    1
    14    37    36   ar
    15    29    28    1
    16     2     8    1
    17     2     3   ar
    18    44    42    1
    19    21    19    1
    20    18    17    1
    21     8     9    1
    22    35    36   ar
    23    35    27    1
    24     4    13    1
    25     4     3   ar
    26    36    42    1
    27    28    27   ar
    28    28    24   ar
    29    17    13   ar
    30    17    16   ar
    31    27    26   ar
    32    13    14   ar
    33     3    12    1
    34    32    30    1
    35    24    16    1
    36    24    25   ar
    37    16    15   ar
    38    14    15   ar
    39    14    19    1
    40    26    25   ar
    41    26    34    1
    42    42    45    1
    43    42    43    1
    44    15    23    1
    45    25    30    1
    46    19    20    1
    47    19    22    1
    48    30    33    1
    49    30    31    1
