@<TRIPOS>MOLECULE
mol_data/opt/cam/geoms/mol2/13ia12hd6hi4ie-.out
 52 55 0 0 0
SMALL
GASTEIGER

@<TRIPOS>ATOM
      1 C           1.1683   -0.1557   -0.1046 C.ar    1  LIG1        0.0052
      2 C           0.7967    1.1032    0.3317 C.ar    1  LIG1       -0.0325
      3 C          -0.6170    1.0779    0.4931 C.ar    1  LIG1       -0.0305
      4 C          -1.0671   -0.1905    0.1509 C.ar    1  LIG1        0.0824
      5 N           0.0397   -0.9306   -0.2074 N.ar    1  LIG1       -0.3580
      6 H          -0.0024   -1.8821   -0.5340 H       1  LIG1        0.1654
      7 H           2.1438   -0.5526   -0.3444 H       1  LIG1        0.0809
      8 C           1.7135    2.2636    0.5888 C.3     1  LIG1       -0.0383
      9 H           1.6607    2.5989    1.6313 H       1  LIG1        0.0278
     10 H           1.4608    3.1259   -0.0391 H       1  LIG1        0.0278
     11 H           2.7544    1.9986    0.3808 H       1  LIG1        0.0278
     12 H          -1.2400    1.8940    0.8326 H       1  LIG1        0.0642
     13 C          -2.3898   -0.7571    0.1199 C.ar    1  LIG1        0.1530
     14 C          -3.6493   -0.2514    0.2673 C.ar    1  LIG1        0.0017
     15 C          -4.5700   -1.3475    0.1262 C.ar    1  LIG1        0.0726
     16 C          -3.7992   -2.4726   -0.1247 C.ar    1  LIG1        0.1708
     17 O          -2.4696   -2.1131   -0.1205 O.2     1  LIG1       -0.4505
     18 H          -3.9159    0.7773    0.4558 H       1  LIG1        0.0668
     19 C          -5.9742   -1.2534    0.2867 C.1     1  LIG1       -0.0658
     20 C          -7.1621   -1.1002    0.4653 C.1     1  LIG1       -0.1138
     21 H          -8.2107   -0.9756    0.6017 H       1  LIG1        0.1232
     22 C          -4.0542   -3.8694   -0.3255 C.ar    1  LIG1        0.1297
     23 C          -5.1784   -4.5659   -0.7731 C.ar    1  LIG1        0.1904
     24 C          -4.8552   -5.9493   -0.7473 C.ar    1  LIG1        0.1851
     25 C          -3.5516   -6.0903   -0.2838 C.ar    1  LIG1        0.0932
     26 N          -3.0644   -4.8086   -0.0958 N.ar    1  LIG1       -0.3458
     27 H          -2.2176   -4.6028    0.4095 H       1  LIG1        0.1662
     28 O          -6.2976   -3.9864   -1.2829 O.3     1  LIG1       -0.4894
     29 C          -7.5344   -4.4221   -0.7107 C.3     1  LIG1        0.0791
     30 H          -8.3204   -3.8998   -1.2590 H       1  LIG1        0.0660
     31 H          -7.6655   -5.5027   -0.8218 H       1  LIG1        0.0660
     32 H          -7.5890   -4.1462    0.3490 H       1  LIG1        0.0660
     33 O          -5.7030   -6.9285   -1.1975 O.3     1  LIG1       -0.5019
     34 H          -5.1721   -7.6997   -1.4392 H       1  LIG1        0.2924
     35 C          -3.1350   -8.4254    0.5864 C.ar    1  LIG1       -0.0410
     36 C          -2.2589   -9.5104    0.6614 C.ar    1  LIG1       -0.0548
     37 C          -2.7022   -7.2785   -0.1328 C.ar    1  LIG1        0.0084
     38 C          -0.9848   -9.4981    0.0886 C.ar    1  LIG1       -0.0197
     39 H          -2.5706  -10.3951    1.2106 H       1  LIG1        0.0622
     40 C          -1.4200   -7.2589   -0.7001 C.ar    1  LIG1       -0.0105
     41 C          -0.5563   -8.3525   -0.5882 C.ar    1  LIG1        0.1207
     42 H          -1.0875   -6.3958   -1.2673 H       1  LIG1        0.0661
     43 H          -0.3466  -10.3678    0.1865 H       1  LIG1        0.0654
     44 C          -4.4525   -8.4649    1.3274 C.3     1  LIG1       -0.0391
     45 H          -4.5239   -9.3720    1.9333 H       1  LIG1        0.0278
     46 H          -5.3222   -8.4356    0.6636 H       1  LIG1        0.0278
     47 H          -4.5508   -7.6020    1.9951 H       1  LIG1        0.0278
     48 O           0.6652   -8.2068   -1.1838 O.3     1  LIG1       -0.4951
     49 C           1.5707   -9.2978   -1.1263 C.3     1  LIG1        0.0788
     50 H           2.4656   -8.9750   -1.6602 H       1  LIG1        0.0660
     51 H           1.8392   -9.5487   -0.0921 H       1  LIG1        0.0660
     52 H           1.1618  -10.1909   -1.6162 H       1  LIG1        0.0660
@<TRIPOS>BOND
     1    50    49    1
     2    52    49    1
     3    34    33    1
     4    28    23    1
     5    28    29    1
     6    42    40    1
     7    30    29    1
     8    33    24    1
     9    48    49    1
    10    48    41    1
    11    49    51    1
    12    31    29    1
    13    23    24   ar
    14    23    22   ar
    15    24    25   ar
    16    29    32    1
    17    40    41   ar
    18    40    37   ar
    19    41    38   ar
    20     6     5    1
    21     7     1    1
    22    22    16    1
    23    22    26   ar
    24    25    37    1
    25    25    26   ar
    26     5     1   ar
    27     5     4   ar
    28    37    35   ar
    29    16    17   ar
    30    16    15   ar
    31    17    13   ar
    32     1     2   ar
    33    26    27    1
    34    10     8    1
    35    38    43    1
    36    38    36   ar
    37    13     4    1
    38    13    14   ar
    39    15    14   ar
    40    15    19    1
    41     4     3   ar
    42    14    18    1
    43    19    20    3
    44     2     3   ar
    45     2     8    1
    46    11     8    1
    47    20    21    1
    48     3    12    1
    49    35    36   ar
    50    35    44    1
    51     8     9    1
    52    36    39    1
    53    46    44    1
    54    44    45    1
    55    44    47    1
