@<TRIPOS>MOLECULE
mol_data/opt/cam/geoms/mol2/13ia13ia13ia-13ia.out
 46 49 0 0 0
SMALL
GASTEIGER

@<TRIPOS>ATOM
      1 C           1.2477   -0.1091    0.0877 C.ar    1  LIG1        0.0051
      2 C           0.8394    1.0188   -0.5774 C.ar    1  LIG1       -0.0325
      3 C          -0.5814    0.9516   -0.6598 C.ar    1  LIG1       -0.0321
      4 C          -0.9950   -0.2077   -0.0418 C.ar    1  LIG1        0.0634
      5 N           0.1380   -0.8568    0.3963 N.ar    1  LIG1       -0.3593
      6 H           0.1275   -1.6503    1.0153 H       1  LIG1        0.1654
      7 H           2.2395   -0.4397    0.3578 H       1  LIG1        0.0809
      8 C           1.7200    2.0968   -1.1286 C.3     1  LIG1       -0.0383
      9 H           1.4701    3.0750   -0.7059 H       1  LIG1        0.0278
     10 H           1.6234    2.1813   -2.2159 H       1  LIG1        0.0278
     11 H           2.7715    1.8993   -0.9056 H       1  LIG1        0.0278
     12 H          -1.2306    1.6582   -1.1567 H       1  LIG1        0.0642
     13 C          -2.3148   -0.7756    0.1663 C.ar    1  LIG1        0.0663
     14 C          -3.5207   -0.1905    0.4960 C.ar    1  LIG1       -0.0231
     15 C          -4.4739   -1.2403    0.5984 C.ar    1  LIG1       -0.0314
     16 C          -3.8385   -2.4345    0.3323 C.ar    1  LIG1        0.0639
     17 N          -2.5181   -2.1407    0.0895 N.ar    1  LIG1       -0.3517
     18 H          -1.8714   -2.7820   -0.3400 H       1  LIG1        0.1660
     19 C          -3.7678    1.2636    0.7479 C.3     1  LIG1       -0.0376
     20 H          -4.4137    1.4086    1.6187 H       1  LIG1        0.0278
     21 H          -4.2602    1.7471   -0.1031 H       1  LIG1        0.0278
     22 H          -2.8296    1.7933    0.9279 H       1  LIG1        0.0278
     23 H          -5.5084   -1.1316    0.8951 H       1  LIG1        0.0642
     24 C          -4.3552   -3.7863    0.2680 C.ar    1  LIG1        0.0663
     25 C          -3.7707   -5.0182    0.5079 C.ar    1  LIG1       -0.0231
     26 C          -4.7788   -5.9973    0.3064 C.ar    1  LIG1       -0.0314
     27 C          -5.9467   -5.3538   -0.0492 C.ar    1  LIG1        0.0639
     28 N          -5.6719   -4.0108   -0.0613 N.ar    1  LIG1       -0.3517
     29 H          -6.2962   -3.2999   -0.4049 H       1  LIG1        0.1660
     30 C          -2.3621   -5.2798    0.9468 C.3     1  LIG1       -0.0376
     31 H          -1.9577   -4.4360    1.5125 H       1  LIG1        0.0278
     32 H          -1.6886   -5.4693    0.1015 H       1  LIG1        0.0278
     33 H          -2.3137   -6.1610    1.5917 H       1  LIG1        0.0278
     34 H          -4.6694   -7.0619    0.4633 H       1  LIG1        0.0642
     35 C          -7.2550   -5.8810   -0.3871 C.ar    1  LIG1        0.0658
     36 C          -8.5311   -5.3716   -0.2199 C.ar    1  LIG1       -0.0238
     37 C          -9.4323   -6.3481   -0.7273 C.ar    1  LIG1       -0.0409
     38 C          -8.6949   -7.4112   -1.1805 C.ar    1  LIG1        0.0025
     39 N          -7.3769   -7.1220   -0.9676 N.ar    1  LIG1       -0.3593
     40 H          -6.5940   -7.6850   -1.2548 H       1  LIG1        0.1654
     41 H          -8.9995   -8.3427   -1.6322 H       1  LIG1        0.0807
     42 C          -8.9054   -4.0603    0.4021 C.3     1  LIG1       -0.0377
     43 H          -9.8694   -4.1344    0.9117 H       1  LIG1        0.0278
     44 H          -9.0017   -3.2576   -0.3397 H       1  LIG1        0.0278
     45 H          -8.1666   -3.7417    1.1426 H       1  LIG1        0.0278
     46 H         -10.5105   -6.2725   -0.7404 H       1  LIG1        0.0635
@<TRIPOS>BOND
     1    10     8    1
     2    41    38    1
     3    40    39    1
     4    38    39   ar
     5    38    37   ar
     6    12     3    1
     7     8    11    1
     8     8     9    1
     9     8     2    1
    10    39    35   ar
    11    46    37    1
    12    37    36   ar
    13     3     2   ar
    14     3     4   ar
    15     2     1   ar
    16    29    28    1
    17    35    36   ar
    18    35    27    1
    19    18    17    1
    20    44    42    1
    21    36    42    1
    22    21    19    1
    23    28    27   ar
    24    28    24   ar
    25    27    26   ar
    26     4    13    1
    27     4     5   ar
    28     1     7    1
    29     1     5   ar
    30    17    13   ar
    31    17    16   ar
    32    32    30    1
    33    13    14   ar
    34    24    16    1
    35    24    25   ar
    36    26    34    1
    37    26    25   ar
    38    16    15   ar
    39     5     6    1
    40    42    43    1
    41    42    45    1
    42    14    15   ar
    43    14    19    1
    44    25    30    1
    45    15    23    1
    46    19    22    1
    47    19    20    1
    48    30    31    1
    49    30    33    1
