@<TRIPOS>MOLECULE
mol_data/opt/cam/geoms/mol2/13ia13ia-4ia13ia.out
 48 51 0 0 0
SMALL
GASTEIGER

@<TRIPOS>ATOM
      1 C           1.2820   -0.6532   -0.8155 C.ar    1  LIG1        0.0051
      2 C           1.0391    0.6878   -0.6524 C.ar    1  LIG1       -0.0325
      3 C          -0.3196    0.8069   -0.2459 C.ar    1  LIG1       -0.0321
      4 C          -0.8619   -0.4598   -0.1761 C.ar    1  LIG1        0.0634
      5 N           0.1323   -1.3410   -0.5218 N.ar    1  LIG1       -0.3593
      6 H          -0.0019   -2.3318   -0.6313 H       1  LIG1        0.1654
      7 H           2.1838   -1.1687   -1.1104 H       1  LIG1        0.0809
      8 C           2.0206    1.8016   -0.8457 C.3     1  LIG1       -0.0383
      9 H           2.1750    2.3685    0.0780 H       1  LIG1        0.0278
     10 H           1.6805    2.5113   -1.6067 H       1  LIG1        0.0278
     11 H           2.9935    1.4186   -1.1635 H       1  LIG1        0.0278
     12 H          -0.8326    1.7236    0.0115 H       1  LIG1        0.0642
     13 C          -2.2048   -0.8956    0.1584 C.ar    1  LIG1        0.0663
     14 C          -2.6867   -2.0404    0.7700 C.ar    1  LIG1       -0.0232
     15 C          -4.0962   -1.9012    0.8408 C.ar    1  LIG1       -0.0329
     16 C          -4.4500   -0.6874    0.2877 C.ar    1  LIG1        0.0475
     17 N          -3.2815   -0.0867   -0.1125 N.ar    1  LIG1       -0.3528
     18 H          -3.2192    0.7522   -0.6645 H       1  LIG1        0.1660
     19 C          -1.8816   -3.1877    1.3001 C.3     1  LIG1       -0.0376
     20 H          -0.8739   -2.8724    1.5842 H       1  LIG1        0.0278
     21 H          -1.7846   -4.0023    0.5715 H       1  LIG1        0.0278
     22 H          -2.3535   -3.6156    2.1884 H       1  LIG1        0.0278
     23 H          -4.7825   -2.6015    1.2964 H       1  LIG1        0.0641
     24 C          -6.0694    1.2672    0.2539 C.ar    1  LIG1       -0.0407
     25 C          -7.3750    1.7104    0.0576 C.ar    1  LIG1       -0.0491
     26 C          -5.7824   -0.1026    0.0932 C.ar    1  LIG1        0.0013
     27 C          -8.4253    0.8493   -0.2689 C.ar    1  LIG1       -0.0012
     28 H          -7.5800    2.7711    0.1552 H       1  LIG1        0.0627
     29 C          -6.8327   -0.9665   -0.2406 C.ar    1  LIG1       -0.0518
     30 C          -8.1274   -0.5109   -0.4069 C.ar    1  LIG1       -0.0520
     31 H          -6.6134   -2.0208   -0.3717 H       1  LIG1        0.0624
     32 C          -5.0185    2.2772    0.6446 C.3     1  LIG1       -0.0391
     33 H          -5.4859    3.1648    1.0757 H       1  LIG1        0.0278
     34 H          -4.4328    2.6197   -0.2172 H       1  LIG1        0.0278
     35 H          -4.3180    1.8699    1.3764 H       1  LIG1        0.0278
     36 H          -8.9195   -1.2201   -0.6268 H       1  LIG1        0.0624
     37 C          -9.7874    1.3482   -0.4704 C.ar    1  LIG1        0.0494
     38 C         -10.5071    2.3570    0.1471 C.ar    1  LIG1       -0.0252
     39 C         -11.8005    2.3641   -0.4442 C.ar    1  LIG1       -0.0409
     40 C         -11.8381    1.3773   -1.3947 C.ar    1  LIG1        0.0024
     41 N         -10.6219    0.7574   -1.3950 N.ar    1  LIG1       -0.3604
     42 H         -10.3269    0.0510   -2.0480 H       1  LIG1        0.1653
     43 H         -12.6258    1.0691   -2.0650 H       1  LIG1        0.0807
     44 C         -10.0547    3.2511    1.2616 C.3     1  LIG1       -0.0377
     45 H         -10.8980    3.5231    1.9019 H       1  LIG1        0.0278
     46 H          -9.6181    4.1864    0.8923 H       1  LIG1        0.0278
     47 H          -9.3035    2.7653    1.8891 H       1  LIG1        0.0278
     48 H         -12.6160    3.0226   -0.1803 H       1  LIG1        0.0635
@<TRIPOS>BOND
     1    43    40    1
     2    42    41    1
     3    10     8    1
     4    41    40   ar
     5    41    37   ar
     6    40    39   ar
     7    11     8    1
     8     7     1    1
     9     8     2    1
    10     8     9    1
    11     1     2   ar
    12     1     5   ar
    13    18    17    1
    14     2     3   ar
    15     6     5    1
    16    36    30    1
    17     5     4   ar
    18    37    27    1
    19    37    38   ar
    20    39    48    1
    21    39    38   ar
    22    30    27   ar
    23    30    29   ar
    24    31    29    1
    25    27    25   ar
    26     3     4   ar
    27     3    12    1
    28    29    26   ar
    29    34    32    1
    30     4    13    1
    31    17    13   ar
    32    17    16   ar
    33    25    28    1
    34    25    24   ar
    35    26    24   ar
    36    26    16    1
    37    38    44    1
    38    13    14   ar
    39    24    32    1
    40    16    15   ar
    41    21    19    1
    42    32    33    1
    43    32    35    1
    44    14    15   ar
    45    14    19    1
    46    15    23    1
    47    46    44    1
    48    44    47    1
    49    44    45    1
    50    19    20    1
    51    19    22    1
