@<TRIPOS>MOLECULE
mol_data/opt/cam/geoms/mol2/13ia13ia13ia13ia-.out
 46 49 0 0 0
SMALL
GASTEIGER

@<TRIPOS>ATOM
      1 C           0.8143    0.2893    1.2586 C.ar    1  LIG1        0.0051
      2 C           0.8170    1.0699    0.1310 C.ar    1  LIG1       -0.0325
      3 C          -0.4103    0.8118   -0.5455 C.ar    1  LIG1       -0.0321
      4 C          -1.1223   -0.1106    0.1873 C.ar    1  LIG1        0.0634
      5 N          -0.3512   -0.4364    1.2823 N.ar    1  LIG1       -0.3593
      6 H          -0.6897   -0.9569    2.0746 H       1  LIG1        0.1654
      7 H           1.5531    0.1891    2.0398 H       1  LIG1        0.0809
      8 C           1.9085    1.9943   -0.3113 C.3     1  LIG1       -0.0383
      9 H           1.5448    3.0206   -0.4223 H       1  LIG1        0.0278
     10 H           2.3261    1.6940   -1.2777 H       1  LIG1        0.0278
     11 H           2.7283    2.0105    0.4112 H       1  LIG1        0.0278
     12 H          -0.7227    1.2281   -1.4927 H       1  LIG1        0.0642
     13 C          -2.4215   -0.7242   -0.0324 C.ar    1  LIG1        0.0663
     14 C          -3.6273   -0.1885   -0.4416 C.ar    1  LIG1       -0.0231
     15 C          -4.5702   -1.2513   -0.4522 C.ar    1  LIG1       -0.0314
     16 C          -3.9340   -2.4049   -0.0471 C.ar    1  LIG1        0.0639
     17 N          -2.6244   -2.0688    0.2042 N.ar    1  LIG1       -0.3517
     18 H          -1.9155   -2.7100    0.5203 H       1  LIG1        0.1660
     19 C          -3.8915    1.2409   -0.7969 C.3     1  LIG1       -0.0376
     20 H          -4.8367    1.5850   -0.3670 H       1  LIG1        0.0278
     21 H          -3.9583    1.3866   -1.8807 H       1  LIG1        0.0278
     22 H          -3.0935    1.8889   -0.4275 H       1  LIG1        0.0278
     23 H          -5.6068   -1.1845   -0.7501 H       1  LIG1        0.0642
     24 C          -4.4099   -3.7670    0.1105 C.ar    1  LIG1        0.0663
     25 C          -5.5926   -4.2674    0.6169 C.ar    1  LIG1       -0.0231
     26 C          -5.5004   -5.6850    0.5546 C.ar    1  LIG1       -0.0314
     27 C          -4.2767   -6.0198    0.0163 C.ar    1  LIG1        0.0639
     28 N          -3.6121   -4.8431   -0.2320 N.ar    1  LIG1       -0.3517
     29 H          -2.8005   -4.7779   -0.8249 H       1  LIG1        0.1660
     30 C          -6.7319   -3.4725    1.1725 C.3     1  LIG1       -0.0376
     31 H          -7.1211   -3.9270    2.0882 H       1  LIG1        0.0278
     32 H          -7.5662   -3.4065    0.4653 H       1  LIG1        0.0278
     33 H          -6.4190   -2.4522    1.4057 H       1  LIG1        0.0278
     34 H          -6.2370   -6.3856    0.9243 H       1  LIG1        0.0642
     35 C          -3.7000   -7.3133   -0.2981 C.ar    1  LIG1        0.0658
     36 C          -2.3936   -7.7709   -0.3046 C.ar    1  LIG1       -0.0238
     37 C          -2.4405   -9.1419   -0.6805 C.ar    1  LIG1       -0.0409
     38 C          -3.7528   -9.4798   -0.8876 C.ar    1  LIG1        0.0025
     39 N          -4.5097   -8.3678   -0.6506 N.ar    1  LIG1       -0.3593
     40 H          -5.5040   -8.2891   -0.7830 H       1  LIG1        0.1654
     41 H          -4.2049  -10.4146   -1.1814 H       1  LIG1        0.0807
     42 C          -1.1625   -6.9916    0.0463 C.3     1  LIG1       -0.0377
     43 H          -1.3915   -6.1724    0.7334 H       1  LIG1        0.0278
     44 H          -0.6740   -6.5605   -0.8364 H       1  LIG1        0.0278
     45 H          -0.4229   -7.6323    0.5336 H       1  LIG1        0.0278
     46 H          -1.5925   -9.8057   -0.7733 H       1  LIG1        0.0635
@<TRIPOS>BOND
     1    21    19    1
     2    12     3    1
     3    10     8    1
     4    41    38    1
     5    38    37   ar
     6    38    39   ar
     7    44    42    1
     8    29    28    1
     9    19    14    1
    10    19    22    1
    11    19    20    1
    12    40    39    1
    13    46    37    1
    14    23    15    1
    15    37    36   ar
    16    39    35   ar
    17     3     2   ar
    18     3     4   ar
    19    15    14   ar
    20    15    16   ar
    21    14    13   ar
    22     9     8    1
    23     8     2    1
    24     8    11    1
    25    36    35   ar
    26    36    42    1
    27    35    27    1
    28    28    27   ar
    29    28    24   ar
    30    16    24    1
    31    16    17   ar
    32    13     4    1
    33    13    17   ar
    34    27    26   ar
    35    42    45    1
    36    42    43    1
    37    24    25   ar
    38     2     1   ar
    39     4     5   ar
    40    17    18    1
    41    32    30    1
    42    26    25   ar
    43    26    34    1
    44    25    30    1
    45    30    33    1
    46    30    31    1
    47     1     5   ar
    48     1     7    1
    49     5     6    1
