@<TRIPOS>MOLECULE
mol_data/opt/cam/geoms/mol2/13ia13ia-13ia-13ia-.out
 46 49 0 0 0
SMALL
GASTEIGER

@<TRIPOS>ATOM
      1 C           1.2022    0.0670   -0.1547 C.ar    1  LIG1        0.0051
      2 C           0.7735    0.8829    0.8624 C.ar    1  LIG1       -0.0325
      3 C          -0.6212    0.6430    1.0134 C.ar    1  LIG1       -0.0321
      4 C          -0.9995   -0.3059    0.0860 C.ar    1  LIG1        0.0634
      5 N           0.1288   -0.6512   -0.6158 N.ar    1  LIG1       -0.3593
      6 H           0.1354   -1.2710   -1.4079 H       1  LIG1        0.1654
      7 H           2.1869   -0.0617   -0.5784 H       1  LIG1        0.0809
      8 C           1.6163    1.8229    1.6670 C.3     1  LIG1       -0.0383
      9 H           1.6086    1.5625    2.7302 H       1  LIG1        0.0278
     10 H           1.2603    2.8549    1.5851 H       1  LIG1        0.0278
     11 H           2.6561    1.8052    1.3312 H       1  LIG1        0.0278
     12 H          -1.2679    1.0882    1.7577 H       1  LIG1        0.0642
     13 C          -2.2991   -0.8861   -0.1996 C.ar    1  LIG1        0.0663
     14 C          -2.6800   -2.1421   -0.6382 C.ar    1  LIG1       -0.0231
     15 C          -4.0986   -2.1434   -0.7040 C.ar    1  LIG1       -0.0314
     16 C          -4.5564   -0.9075   -0.3015 C.ar    1  LIG1        0.0639
     17 N          -3.4462   -0.1500   -0.0105 N.ar    1  LIG1       -0.3517
     18 H          -3.4610    0.7698    0.3994 H       1  LIG1        0.1660
     19 C          -1.7801   -3.2929   -0.9719 C.3     1  LIG1       -0.0376
     20 H          -0.8476   -3.2508   -0.4023 H       1  LIG1        0.0278
     21 H          -1.5207   -3.3272   -2.0374 H       1  LIG1        0.0278
     22 H          -2.2650   -4.2435   -0.7360 H       1  LIG1        0.0278
     23 H          -4.7223   -2.9606   -1.0373 H       1  LIG1        0.0642
     24 C          -5.8995   -0.3675   -0.1825 C.ar    1  LIG1        0.0663
     25 C          -7.0646   -0.9223    0.3114 C.ar    1  LIG1       -0.0231
     26 C          -8.0728    0.0736    0.2090 C.ar    1  LIG1       -0.0314
     27 C          -7.5132    1.2096   -0.3332 C.ar    1  LIG1        0.0639
     28 N          -6.1881    0.9259   -0.5686 N.ar    1  LIG1       -0.3517
     29 H          -5.5226    1.5748   -0.9554 H       1  LIG1        0.1660
     30 C          -7.2299   -2.3049    0.8593 C.3     1  LIG1       -0.0376
     31 H          -6.2627   -2.7394    1.1225 H       1  LIG1        0.0278
     32 H          -7.7068   -2.9769    0.1371 H       1  LIG1        0.0278
     33 H          -7.8560   -2.2996    1.7560 H       1  LIG1        0.0278
     34 H          -9.1119   -0.0361    0.4851 H       1  LIG1        0.0642
     35 C          -8.0810    2.5067   -0.6626 C.ar    1  LIG1        0.0658
     36 C          -8.9429    3.3286    0.0353 C.ar    1  LIG1       -0.0238
     37 C          -9.1412    4.4913   -0.7631 C.ar    1  LIG1       -0.0409
     38 C          -8.4045    4.3504   -1.9088 C.ar    1  LIG1        0.0025
     39 N          -7.7478    3.1517   -1.8383 N.ar    1  LIG1       -0.3593
     40 H          -7.2616    2.7129   -2.6026 H       1  LIG1        0.1654
     41 H          -8.2903    5.0024   -2.7613 H       1  LIG1        0.0807
     42 C          -9.5300    3.0628    1.3861 C.3     1  LIG1       -0.0377
     43 H          -9.0008    2.2502    1.8890 H       1  LIG1        0.0278
     44 H         -10.5859    2.7779    1.3225 H       1  LIG1        0.0278
     45 H          -9.4742    3.9504    2.0232 H       1  LIG1        0.0278
     46 H          -9.7520    5.3449   -0.5045 H       1  LIG1        0.0635
@<TRIPOS>BOND
     1    41    38    1
     2    40    39    1
     3    21    19    1
     4    38    39   ar
     5    38    37   ar
     6    39    35   ar
     7     6     5    1
     8    23    15    1
     9    19    22    1
    10    19    14    1
    11    19    20    1
    12    29    28    1
    13    37    46    1
    14    37    36   ar
    15    15    14   ar
    16    15    16   ar
    17    35    27    1
    18    35    36   ar
    19    14    13   ar
    20     5     1   ar
    21     5     4   ar
    22     7     1    1
    23    28    27   ar
    24    28    24   ar
    25    27    26   ar
    26    16    24    1
    27    16    17   ar
    28    13    17   ar
    29    13     4    1
    30    24    25   ar
    31     1     2   ar
    32    17    18    1
    33    36    42    1
    34     4     3   ar
    35    32    30    1
    36    26    25   ar
    37    26    34    1
    38    25    30    1
    39    30    31    1
    40    30    33    1
    41     2     3   ar
    42     2     8    1
    43     3    12    1
    44    44    42    1
    45    11     8    1
    46    42    43    1
    47    42    45    1
    48    10     8    1
    49     8     9    1
