@<TRIPOS>MOLECULE
mol_data/opt/cam/geoms/mol2/13ia13ia-.out
 24 25 0 0 0
SMALL
GASTEIGER

@<TRIPOS>ATOM
      1 C           1.1309   -0.2213   -0.4537 C.ar    1  LIG1        0.0051
      2 C           0.7533    1.0101    0.0199 C.ar    1  LIG1       -0.0325
      3 C          -0.6530    0.9489    0.2325 C.ar    1  LIG1       -0.0321
      4 C          -1.0882   -0.3118   -0.1192 C.ar    1  LIG1        0.0634
      5 N           0.0155   -1.0160   -0.5312 N.ar    1  LIG1       -0.3593
      6 H          -0.0181   -1.9439   -0.9178 H       1  LIG1        0.1654
      7 H           2.1052   -0.5931   -0.7336 H       1  LIG1        0.0809
      8 C           1.6521    2.1787    0.2807 C.3     1  LIG1       -0.0383
      9 H           1.6344    2.4749    1.3344 H       1  LIG1        0.0278
     10 H           1.3557    3.0546   -0.3054 H       1  LIG1        0.0278
     11 H           2.6877    1.9444    0.0220 H       1  LIG1        0.0278
     12 H          -1.2727    1.7344    0.6435 H       1  LIG1        0.0642
     13 C          -2.4215   -0.8888   -0.1222 C.ar    1  LIG1        0.0658
     14 C          -2.8791   -2.1712    0.1230 C.ar    1  LIG1       -0.0238
     15 C          -4.2954   -2.1343   -0.0085 C.ar    1  LIG1       -0.0409
     16 C          -4.6585   -0.8501   -0.3213 C.ar    1  LIG1        0.0025
     17 N          -3.5177   -0.1013   -0.3857 N.ar    1  LIG1       -0.3593
     18 H          -3.4582    0.8667   -0.6537 H       1  LIG1        0.1654
     19 H          -5.6286   -0.4124   -0.5001 H       1  LIG1        0.0807
     20 C          -2.0550   -3.3681    0.4900 C.3     1  LIG1       -0.0377
     21 H          -1.1145   -3.0758    0.9649 H       1  LIG1        0.0278
     22 H          -1.8112   -3.9911   -0.3795 H       1  LIG1        0.0278
     23 H          -2.5919   -4.0087    1.1947 H       1  LIG1        0.0278
     24 H          -4.9694   -2.9681    0.1291 H       1  LIG1        0.0635
@<TRIPOS>BOND
     1     6     5    1
     2     7     1    1
     3    18    17    1
     4     5     1   ar
     5     5     4   ar
     6    19    16    1
     7     1     2   ar
     8    17    16   ar
     9    17    13   ar
    10    22    20    1
    11    16    15   ar
    12    10     8    1
    13    13     4    1
    14    13    14   ar
    15     4     3   ar
    16    15    14   ar
    17    15    24    1
    18     2     3   ar
    19     2     8    1
    20    11     8    1
    21    14    20    1
    22     3    12    1
    23     8     9    1
    24    20    21    1
    25    20    23    1
