@<TRIPOS>MOLECULE
mol_data/opt/cam/geoms/mol2/13ia13ia13ia-13ia-.out
 46 49 0 0 0
SMALL
GASTEIGER

@<TRIPOS>ATOM
      1 C           1.2054   -0.0124   -0.1400 C.ar    1  LIG1        0.0051
      2 C           0.6952    1.2009   -0.5259 C.ar    1  LIG1       -0.0325
      3 C          -0.7224    1.0963   -0.4287 C.ar    1  LIG1       -0.0321
      4 C          -1.0322   -0.1702    0.0152 C.ar    1  LIG1        0.0634
      5 N           0.1585   -0.8446    0.1712 N.ar    1  LIG1       -0.3593
      6 H           0.2440   -1.7371    0.6285 H       1  LIG1        0.1654
      7 H           2.2291   -0.3489   -0.0704 H       1  LIG1        0.0809
      8 C           1.4776    2.3930   -0.9817 C.3     1  LIG1       -0.0383
      9 H           1.2770    3.2683   -0.3559 H       1  LIG1        0.0278
     10 H           1.2299    2.6695   -2.0116 H       1  LIG1        0.0278
     11 H           2.5521    2.1979   -0.9422 H       1  LIG1        0.0278
     12 H          -1.4429    1.8561   -0.6958 H       1  LIG1        0.0642
     13 C          -2.3039   -0.8153    0.2883 C.ar    1  LIG1        0.0663
     14 C          -3.4588   -0.3456    0.8809 C.ar    1  LIG1       -0.0231
     15 C          -4.3770   -1.4304    0.9101 C.ar    1  LIG1       -0.0314
     16 C          -3.7723   -2.5308    0.3403 C.ar    1  LIG1        0.0639
     17 N          -2.5019   -2.1482   -0.0173 N.ar    1  LIG1       -0.3517
     18 H          -1.9108   -2.6774   -0.6374 H       1  LIG1        0.1660
     19 C          -3.6841    1.0268    1.4327 C.3     1  LIG1       -0.0376
     20 H          -4.2077    0.9852    2.3922 H       1  LIG1        0.0278
     21 H          -4.2913    1.6426    0.7600 H       1  LIG1        0.0278
     22 H          -2.7354    1.5463    1.5852 H       1  LIG1        0.0278
     23 H          -5.3606   -1.4144    1.3604 H       1  LIG1        0.0642
     24 C          -4.2756   -3.8673    0.0926 C.ar    1  LIG1        0.0663
     25 C          -3.6472   -5.0992    0.0279 C.ar    1  LIG1       -0.0231
     26 C          -4.6580   -6.0659   -0.2168 C.ar    1  LIG1       -0.0314
     27 C          -5.8728   -5.4190   -0.2892 C.ar    1  LIG1        0.0639
     28 N          -5.6199   -4.0799   -0.1101 N.ar    1  LIG1       -0.3517
     29 H          -6.3231   -3.3636   -0.0306 H       1  LIG1        0.1660
     30 C          -2.1837   -5.3761    0.1916 C.3     1  LIG1       -0.0376
     31 H          -1.7110   -4.6484    0.8572 H       1  LIG1        0.0278
     32 H          -1.6437   -5.3562   -0.7634 H       1  LIG1        0.0278
     33 H          -2.0244   -6.3678    0.6224 H       1  LIG1        0.0278
     34 H          -4.5079   -7.1274   -0.3523 H       1  LIG1        0.0642
     35 C          -7.2185   -5.9121   -0.5260 C.ar    1  LIG1        0.0658
     36 C          -7.8766   -7.0301   -0.0532 C.ar    1  LIG1       -0.0238
     37 C          -9.1902   -6.9977   -0.6017 C.ar    1  LIG1       -0.0409
     38 C          -9.2976   -5.8768   -1.3812 C.ar    1  LIG1        0.0025
     39 N          -8.1039   -5.2107   -1.3212 N.ar    1  LIG1       -0.3593
     40 H          -7.8422   -4.4365   -1.9086 H       1  LIG1        0.1654
     41 H         -10.1218   -5.4978   -1.9661 H       1  LIG1        0.0807
     42 C          -7.3257   -8.0604    0.8823 C.3     1  LIG1       -0.0377
     43 H          -6.4375   -7.6865    1.3970 H       1  LIG1        0.0278
     44 H          -7.0392   -8.9780    0.3566 H       1  LIG1        0.0278
     45 H          -8.0641   -8.3405    1.6391 H       1  LIG1        0.0278
     46 H          -9.9733   -7.7206   -0.4214 H       1  LIG1        0.0635
@<TRIPOS>BOND
     1    10     8    1
     2    41    38    1
     3    40    39    1
     4    38    39   ar
     5    38    37   ar
     6    39    35   ar
     7     8    11    1
     8     8     2    1
     9     8     9    1
    10    32    30    1
    11    12     3    1
    12    18    17    1
    13    37    46    1
    14    37    36   ar
    15    35    27    1
    16    35    36   ar
    17     2     3   ar
    18     2     1   ar
    19     3     4   ar
    20    34    26    1
    21    27    26   ar
    22    27    28   ar
    23    26    25   ar
    24     1     7    1
    25     1     5   ar
    26    28    29    1
    27    28    24   ar
    28    36    42    1
    29    17    13   ar
    30    17    16   ar
    31     4     5   ar
    32     4    13    1
    33    25    24   ar
    34    25    30    1
    35    24    16    1
    36     5     6    1
    37    30    33    1
    38    30    31    1
    39    13    14   ar
    40    16    15   ar
    41    44    42    1
    42    21    19    1
    43    14    15   ar
    44    14    19    1
    45    42    43    1
    46    42    45    1
    47    15    23    1
    48    19    22    1
    49    19    20    1
