@<TRIPOS>MOLECULE
mol_data/opt/cam/geoms/mol2/13id13id-4id13id.out
 52 55 0 0 0
SMALL
GASTEIGER

@<TRIPOS>ATOM
      1 C           1.3817   -0.5063   -0.3698 C.ar    1  LIG1        0.0064
      2 C           1.0142    0.7597   -0.7271 C.ar    1  LIG1       -0.0151
      3 C          -0.4101    0.8064   -0.5908 C.ar    1  LIG1        0.0813
      4 C          -0.8568   -0.4403   -0.1533 C.ar    1  LIG1        0.0810
      5 N           0.2539   -1.2170   -0.0274 N.ar    1  LIG1       -0.3582
      6 H           0.2437   -2.1818    0.2579 H       1  LIG1        0.1654
      7 H           2.3592   -0.9614   -0.3308 H       1  LIG1        0.0810
      8 C           1.8986    1.8799   -1.1690 C.3     1  LIG1       -0.0371
      9 H           1.8199    2.7392   -0.4967 H       1  LIG1        0.0278
     10 H           1.6313    2.2269   -2.1713 H       1  LIG1        0.0278
     11 H           2.9437    1.5650   -1.1902 H       1  LIG1        0.0278
     12 N          -2.0176    2.7647   -1.0476 N.1     1  LIG1       -0.1908
     13 C          -1.2580    1.9099   -0.8486 C.1     1  LIG1        0.1016
     14 C          -2.1928   -0.9135    0.1378 C.ar    1  LIG1        0.0688
     15 C          -2.6406   -2.1071    0.6739 C.ar    1  LIG1       -0.0057
     16 C          -4.0603   -2.0071    0.7357 C.ar    1  LIG1        0.0805
     17 C          -4.4421   -0.7624    0.2439 C.ar    1  LIG1        0.0651
     18 N          -3.2962   -0.1246   -0.1068 N.ar    1  LIG1       -0.3517
     19 H          -3.2585    0.7877   -0.5393 H       1  LIG1        0.1660
     20 C          -1.8381   -3.2849    1.1299 C.3     1  LIG1       -0.0364
     21 H          -1.0833   -3.0027    1.8718 H       1  LIG1        0.0279
     22 H          -1.3341   -3.7870    0.2956 H       1  LIG1        0.0279
     23 H          -2.4867   -4.0274    1.5981 H       1  LIG1        0.0279
     24 N          -5.5989   -3.8501    1.6757 N.1     1  LIG1       -0.1908
     25 C          -4.9234   -3.0095    1.2533 C.1     1  LIG1        0.1016
     26 C          -6.0796    1.1637    0.3734 C.ar    1  LIG1       -0.0406
     27 C          -7.3771    1.6194    0.1644 C.ar    1  LIG1       -0.0478
     28 C          -5.7787   -0.1793    0.0678 C.ar    1  LIG1        0.0037
     29 C          -8.4164    0.8157   -0.3113 C.ar    1  LIG1        0.0162
     30 H          -7.5857    2.6608    0.3717 H       1  LIG1        0.0627
     31 C          -6.7932   -0.9978   -0.4223 C.ar    1  LIG1       -0.0343
     32 C          -8.0897   -0.5247   -0.6088 C.ar    1  LIG1        0.0615
     33 H          -6.5781   -2.0306   -0.6692 H       1  LIG1        0.0637
     34 C          -5.0590    2.1239    0.9275 C.3     1  LIG1       -0.0391
     35 H          -5.5567    2.9576    1.4254 H       1  LIG1        0.0278
     36 H          -4.4229    2.5558    0.1467 H       1  LIG1        0.0278
     37 H          -4.4034    1.6387    1.6537 H       1  LIG1        0.0278
     38 N          -9.8408   -2.1545   -1.6041 N.1     1  LIG1       -0.1908
     39 C          -9.0591   -1.4400   -1.1360 C.1     1  LIG1        0.0998
     40 C          -9.7573    1.3854   -0.4655 C.ar    1  LIG1        0.0519
     41 C         -10.3750    2.4075    0.2379 C.ar    1  LIG1       -0.0078
     42 C         -11.6739    2.5604   -0.3319 C.ar    1  LIG1        0.0725
     43 C         -11.8082    1.6371   -1.3488 C.ar    1  LIG1        0.0199
     44 N         -10.6560    0.9401   -1.4192 N.ar    1  LIG1       -0.3592
     45 H         -10.5024    0.1583   -2.0379 H       1  LIG1        0.1654
     46 H         -12.6405    1.4382   -2.0054 H       1  LIG1        0.0820
     47 C          -9.8710    3.2012    1.4023 C.3     1  LIG1       -0.0365
     48 H         -10.7113    3.5695    1.9947 H       1  LIG1        0.0279
     49 H          -9.2965    4.0784    1.0853 H       1  LIG1        0.0279
     50 H          -9.2332    2.6013    2.0550 H       1  LIG1        0.0279
     51 N         -13.4526    4.2567    0.4491 N.1     1  LIG1       -0.1908
     52 C         -12.6625    3.4912    0.0882 C.1     1  LIG1        0.1009
@<TRIPOS>BOND
     1    10     8    1
     2    45    44    1
     3    46    43    1
     4    38    39    3
     5    44    43   ar
     6    44    40   ar
     7    43    42   ar
     8    11     8    1
     9     8     2    1
    10     8     9    1
    11    39    32    1
    12    12    13    3
    13    13     3    1
    14     2     3   ar
    15     2     1   ar
    16    33    31    1
    17    32    31   ar
    18    32    29   ar
    19     3     4   ar
    20    19    18    1
    21    40    29    1
    22    40    41   ar
    23    31    28   ar
    24     1     7    1
    25     1     5   ar
    26    42    52    1
    27    42    41   ar
    28    29    27   ar
    29     4     5   ar
    30     4    14    1
    31    18    14   ar
    32    18    17   ar
    33     5     6    1
    34    28    17    1
    35    28    26   ar
    36    52    51    3
    37    14    15   ar
    38    36    34    1
    39    27    30    1
    40    27    26   ar
    41    41    47    1
    42    17    16   ar
    43    22    20    1
    44    26    34    1
    45    15    16   ar
    46    15    20    1
    47    16    25    1
    48    34    35    1
    49    34    37    1
    50    49    47    1
    51    20    23    1
    52    20    21    1
    53    25    24    3
    54    47    48    1
    55    47    50    1
