@<TRIPOS>MOLECULE
mol_data/opt/cam/geoms/mol2/13id13id-13id.out
 38 40 0 0 0
SMALL
GASTEIGER

@<TRIPOS>ATOM
      1 C           1.2517   -0.3011   -0.2275 C.ar    1  LIG1        0.0064
      2 C           0.8691    0.9862    0.0204 C.ar    1  LIG1       -0.0151
      3 C          -0.5571    0.9546    0.1421 C.ar    1  LIG1        0.0813
      4 C          -0.9905   -0.3576   -0.0389 C.ar    1  LIG1        0.0810
      5 N           0.1308   -1.0991   -0.2596 N.ar    1  LIG1       -0.3582
      6 H           0.1301   -2.0847   -0.4607 H       1  LIG1        0.1654
      7 H           2.2352   -0.7165   -0.3835 H       1  LIG1        0.0810
      8 C           1.7409    2.1928    0.1480 C.3     1  LIG1       -0.0371
      9 H           1.6389    2.6559    1.1337 H       1  LIG1        0.0278
     10 H           1.4806    2.9523   -0.5949 H       1  LIG1        0.0278
     11 H           2.7912    1.9305    0.0070 H       1  LIG1        0.0278
     12 N          -2.1545    2.9174    0.6184 N.1     1  LIG1       -0.1908
     13 C          -1.4091    2.0532    0.4095 C.1     1  LIG1        0.1016
     14 C          -2.3201   -0.9274   -0.0172 C.ar    1  LIG1        0.0688
     15 C          -2.7391   -2.2425    0.0007 C.ar    1  LIG1       -0.0057
     16 C          -4.1630   -2.2057    0.0267 C.ar    1  LIG1        0.0819
     17 C          -4.5773   -0.8727    0.0262 C.ar    1  LIG1        0.0815
     18 N          -3.4457   -0.1242   -0.0029 N.ar    1  LIG1       -0.3506
     19 H          -3.4252    0.8853    0.0354 H       1  LIG1        0.1660
     20 C          -1.9111   -3.4888    0.0031 C.3     1  LIG1       -0.0364
     21 H          -1.1390   -3.4620    0.7788 H       1  LIG1        0.0279
     22 H          -1.4247   -3.6634   -0.9642 H       1  LIG1        0.0279
     23 H          -2.5360   -4.3618    0.2004 H       1  LIG1        0.0279
     24 N          -5.7763   -4.2114    0.1060 N.1     1  LIG1       -0.1908
     25 C          -5.0280   -3.3258    0.0626 C.1     1  LIG1        0.1016
     26 C          -5.9043   -0.2991    0.0500 C.ar    1  LIG1        0.0684
     27 C          -6.3288    1.0108   -0.0951 C.ar    1  LIG1       -0.0064
     28 C          -7.7508    0.9782    0.0088 C.ar    1  LIG1        0.0725
     29 C          -8.1394   -0.3320    0.2079 C.ar    1  LIG1        0.0199
     30 N          -7.0232   -1.0901    0.2318 N.ar    1  LIG1       -0.3581
     31 H          -7.0078   -2.0939    0.3469 H       1  LIG1        0.1654
     32 H          -9.1236   -0.7560    0.3298 H       1  LIG1        0.0820
     33 C          -5.5079    2.2385   -0.3359 C.3     1  LIG1       -0.0364
     34 H          -6.1581    3.0985   -0.5052 H       1  LIG1        0.0279
     35 H          -4.8717    2.1351   -1.2209 H       1  LIG1        0.0279
     36 H          -4.8617    2.4910    0.5113 H       1  LIG1        0.0279
     37 N          -9.3077    3.0267   -0.1700 N.1     1  LIG1       -0.1908
     38 C          -8.6187    2.1000   -0.0866 C.1     1  LIG1        0.1009
@<TRIPOS>BOND
     1    35    33    1
     2    22    20    1
     3    10     8    1
     4    34    33    1
     5     6     5    1
     6     7     1    1
     7    33    27    1
     8    33    36    1
     9     5     1   ar
    10     5     4   ar
    11     1     2   ar
    12    37    38    3
    13    27    28   ar
    14    27    26   ar
    15    38    28    1
    16     4    14    1
    17     4     3   ar
    18    14    18   ar
    19    14    15   ar
    20    18    17   ar
    21    18    19    1
    22    15    20    1
    23    15    16   ar
    24    20    23    1
    25    20    21    1
    26    11     8    1
    27    28    29   ar
    28     2     3   ar
    29     2     8    1
    30    17    16   ar
    31    17    26    1
    32    16    25    1
    33    26    30   ar
    34    25    24    3
    35     3    13    1
    36     8     9    1
    37    29    30   ar
    38    29    32    1
    39    30    31    1
    40    13    12    3
