@<TRIPOS>MOLECULE
mol_data/opt/cam/geoms/mol2/13id13id13id-13id.out
 50 53 0 0 0
SMALL
GASTEIGER

@<TRIPOS>ATOM
      1 C           1.2403   -0.0280    0.5086 C.ar    1  LIG1        0.0064
      2 C           0.8945    1.0527   -0.2538 C.ar    1  LIG1       -0.0151
      3 C          -0.5187    0.9523   -0.4660 C.ar    1  LIG1        0.0813
      4 C          -0.9804   -0.1832    0.1833 C.ar    1  LIG1        0.0810
      5 N           0.1110   -0.7730    0.7578 N.ar    1  LIG1       -0.3582
      6 H           0.0596   -1.5460    1.4016 H       1  LIG1        0.1654
      7 H           2.2035   -0.3279    0.8922 H       1  LIG1        0.0810
      8 C           1.7930    2.1217   -0.7855 C.3     1  LIG1       -0.0371
      9 H           1.4866    3.1099   -0.4309 H       1  LIG1        0.0278
     10 H           1.7729    2.1514   -1.8787 H       1  LIG1        0.0278
     11 H           2.8254    1.9556   -0.4715 H       1  LIG1        0.0278
     12 N          -1.9463    2.5434   -1.9073 N.1     1  LIG1       -0.1908
     13 C          -1.3081    1.8260   -1.2597 C.1     1  LIG1        0.1016
     14 C          -2.3113   -0.7514    0.2850 C.ar    1  LIG1        0.0688
     15 C          -3.5260   -0.1675    0.5585 C.ar    1  LIG1       -0.0057
     16 C          -4.4831   -1.2279    0.5506 C.ar    1  LIG1        0.0819
     17 C          -3.8294   -2.4270    0.2744 C.ar    1  LIG1        0.0815
     18 N          -2.5110   -2.1158    0.1325 N.ar    1  LIG1       -0.3506
     19 H          -1.8180   -2.7475   -0.2349 H       1  LIG1        0.1660
     20 C          -3.8142    1.2700    0.8439 C.3     1  LIG1       -0.0364
     21 H          -4.6592    1.3666    1.5294 H       1  LIG1        0.0279
     22 H          -4.0569    1.8172   -0.0713 H       1  LIG1        0.0279
     23 H          -2.9480    1.7607    1.2926 H       1  LIG1        0.0279
     24 N          -7.0121   -1.0845    1.0162 N.1     1  LIG1       -0.1908
     25 C          -5.8705   -1.1146    0.8140 C.1     1  LIG1        0.1016
     26 C          -4.3370   -3.7729    0.1403 C.ar    1  LIG1        0.0688
     27 C          -3.6757   -4.9827    0.0623 C.ar    1  LIG1       -0.0057
     28 C          -4.6847   -5.9805   -0.0527 C.ar    1  LIG1        0.0819
     29 C          -5.9348   -5.3580   -0.0405 C.ar    1  LIG1        0.0815
     30 N          -5.6949   -4.0276    0.0742 N.ar    1  LIG1       -0.3506
     31 H          -6.4127   -3.3210    0.1540 H       1  LIG1        0.1660
     32 C          -2.2037   -5.2477    0.0956 C.3     1  LIG1       -0.0364
     33 H          -1.7170   -4.7242    0.9243 H       1  LIG1        0.0279
     34 H          -1.7094   -4.9526   -0.8381 H       1  LIG1        0.0279
     35 H          -2.0108   -6.3140    0.2271 H       1  LIG1        0.0279
     36 N          -4.3461   -8.5284   -0.2129 N.1     1  LIG1       -0.1908
     37 C          -4.4714   -7.3770   -0.1471 C.1     1  LIG1        0.1016
     38 C          -7.2651   -5.9165   -0.1246 C.ar    1  LIG1        0.0684
     39 C          -8.5004   -5.3021   -0.2458 C.ar    1  LIG1       -0.0064
     40 C          -9.4614   -6.3546   -0.2888 C.ar    1  LIG1        0.0725
     41 C          -8.7890   -7.5575   -0.1967 C.ar    1  LIG1        0.0199
     42 N          -7.4716   -7.2832   -0.0980 N.ar    1  LIG1       -0.3581
     43 H          -6.7398   -7.9769   -0.0312 H       1  LIG1        0.1654
     44 H          -9.1662   -8.5680   -0.1970 H       1  LIG1        0.0820
     45 C          -8.8133   -3.8419   -0.3392 C.3     1  LIG1       -0.0364
     46 H          -9.8788   -3.6965   -0.5246 H       1  LIG1        0.0279
     47 H          -8.2743   -3.3625   -1.1629 H       1  LIG1        0.0279
     48 H          -8.5738   -3.2962    0.5796 H       1  LIG1        0.0279
     49 N         -12.0110   -6.0401   -0.5180 N.1     1  LIG1       -0.1908
     50 C         -10.8683   -6.1934   -0.4139 C.1     1  LIG1        0.1009
@<TRIPOS>BOND
     1    12    13    3
     2    10     8    1
     3    13     3    1
     4    47    45    1
     5    34    32    1
     6     8    11    1
     7     8     9    1
     8     8     2    1
     9    46    45    1
    10    49    50    3
    11     3     2   ar
    12     3     4   ar
    13    50    40    1
    14    45    39    1
    15    45    48    1
    16    40    39   ar
    17    40    41   ar
    18     2     1   ar
    19    39    38   ar
    20    19    18    1
    21    36    37    3
    22    44    41    1
    23    41    42   ar
    24    37    28    1
    25    38    42   ar
    26    38    29    1
    27    42    43    1
    28    22    20    1
    29    28    29   ar
    30    28    27   ar
    31    29    30   ar
    32    27    32    1
    33    27    26   ar
    34    30    26   ar
    35    30    31    1
    36    32    35    1
    37    32    33    1
    38    18    17   ar
    39    18    14   ar
    40    26    17    1
    41     4    14    1
    42     4     5   ar
    43    17    16   ar
    44    14    15   ar
    45     1     5   ar
    46     1     7    1
    47    16    15   ar
    48    16    25    1
    49    15    20    1
    50     5     6    1
    51    25    24    3
    52    20    23    1
    53    20    21    1
