@<TRIPOS>MOLECULE
mol_data/opt/cam/geoms/mol2/13id13id13id.out
 38 40 0 0 0
SMALL
GASTEIGER

@<TRIPOS>ATOM
      1 C           0.9184   -0.0624    1.2880 C.ar    1  LIG1        0.0064
      2 C           0.8666    0.9323    0.3515 C.ar    1  LIG1       -0.0151
      3 C          -0.4243    0.8320   -0.2614 C.ar    1  LIG1        0.0813
      4 C          -1.1120   -0.2162    0.3309 C.ar    1  LIG1        0.0810
      5 N          -0.2692   -0.7560    1.2626 N.ar    1  LIG1       -0.3582
      6 H          -0.5471   -1.4480    1.9399 H       1  LIG1        0.1654
      7 H           1.7090   -0.3327    1.9711 H       1  LIG1        0.0810
      8 C           1.9324    1.9220    0.0089 C.3     1  LIG1       -0.0371
      9 H           1.5847    2.9476    0.1614 H       1  LIG1        0.0278
     10 H           2.2332    1.8366   -1.0393 H       1  LIG1        0.0278
     11 H           2.8190    1.7706    0.6278 H       1  LIG1        0.0278
     12 N          -1.2870    2.2813   -2.2116 N.1     1  LIG1       -0.1908
     13 C          -0.9040    1.6277   -1.3357 C.1     1  LIG1        0.1016
     14 C          -2.4424   -0.7448    0.0853 C.ar    1  LIG1        0.0688
     15 C          -3.6606   -0.1109   -0.0208 C.ar    1  LIG1       -0.0057
     16 C          -4.6270   -1.1398   -0.2407 C.ar    1  LIG1        0.0819
     17 C          -3.9788   -2.3666   -0.2562 C.ar    1  LIG1        0.0815
     18 N          -2.6550   -2.1052   -0.0569 N.ar    1  LIG1       -0.3506
     19 H          -1.9342   -2.8081   -0.0169 H       1  LIG1        0.1660
     20 C          -3.9422    1.3532    0.0727 C.3     1  LIG1       -0.0364
     21 H          -4.9390    1.5281    0.4832 H       1  LIG1        0.0279
     22 H          -3.8946    1.8312   -0.9099 H       1  LIG1        0.0279
     23 H          -3.2108    1.8532    0.7113 H       1  LIG1        0.0279
     24 N          -7.1574   -0.7814   -0.5841 N.1     1  LIG1       -0.1908
     25 C          -6.0210   -0.9460   -0.4353 C.1     1  LIG1        0.1016
     26 C          -4.4827   -3.7139   -0.4571 C.ar    1  LIG1        0.0684
     27 C          -5.5371   -4.3794    0.1272 C.ar    1  LIG1       -0.0064
     28 C          -5.5382   -5.6934   -0.4393 C.ar    1  LIG1        0.0725
     29 C          -4.4972   -5.7794   -1.3389 C.ar    1  LIG1        0.0199
     30 N          -3.8554   -4.5859   -1.3334 N.ar    1  LIG1       -0.3581
     31 H          -3.1433   -4.3147   -1.9927 H       1  LIG1        0.1654
     32 H          -4.1858   -6.5990   -1.9672 H       1  LIG1        0.0820
     33 C          -6.4873   -3.8667    1.1599 C.3     1  LIG1       -0.0364
     34 H          -6.8253   -4.6773    1.8092 H       1  LIG1        0.0279
     35 H          -7.3700   -3.4157    0.6980 H       1  LIG1        0.0279
     36 H          -6.0190   -3.0985    1.7791 H       1  LIG1        0.0279
     37 N          -7.1685   -7.5952    0.1769 N.1     1  LIG1       -0.1908
     38 C          -6.4361   -6.7456   -0.1087 C.1     1  LIG1        0.1009
@<TRIPOS>BOND
     1    12    13    3
     2    31    30    1
     3    32    29    1
     4    29    30   ar
     5    29    28   ar
     6    13     3    1
     7    30    26   ar
     8    10     8    1
     9    22    20    1
    10    24    25    3
    11    26    17    1
    12    26    27   ar
    13    28    38    1
    14    28    27   ar
    15    25    16    1
    16     3     4   ar
    17     3     2   ar
    18    17    16   ar
    19    17    18   ar
    20    16    15   ar
    21    38    37    3
    22    18    19    1
    23    18    14   ar
    24    15    20    1
    25    15    14   ar
    26     8     9    1
    27     8     2    1
    28     8    11    1
    29    20    21    1
    30    20    23    1
    31    14     4    1
    32    27    33    1
    33     4     5   ar
    34     2     1   ar
    35    35    33    1
    36    33    36    1
    37    33    34    1
    38     5     1   ar
    39     5     6    1
    40     1     7    1
