@<TRIPOS>MOLECULE
mol_data/opt/cam/geoms/mol2/13id13id-13id-13id.out
 50 53 0 0 0
SMALL
GASTEIGER

@<TRIPOS>ATOM
      1 C           1.2305   -0.2558    0.3504 C.ar    1  LIG1        0.0064
      2 C           0.7697    1.0212    0.5018 C.ar    1  LIG1       -0.0151
      3 C          -0.6543    0.9399    0.3775 C.ar    1  LIG1        0.0813
      4 C          -1.0056   -0.3918    0.1555 C.ar    1  LIG1        0.0810
      5 N           0.1587   -1.0950    0.1423 N.ar    1  LIG1       -0.3582
      6 H           0.2178   -2.0938    0.0334 H       1  LIG1        0.1654
      7 H           2.2395   -0.6373    0.3733 H       1  LIG1        0.0810
      8 C           1.5694    2.2602    0.7422 C.3     1  LIG1       -0.0371
      9 H           1.2785    2.7466    1.6778 H       1  LIG1        0.0278
     10 H           1.4264    2.9893   -0.0607 H       1  LIG1        0.0278
     11 H           2.6348    2.0300    0.8003 H       1  LIG1        0.0278
     12 N          -2.4349    2.7939    0.5132 N.1     1  LIG1       -0.1908
     13 C          -1.5925    1.9978    0.4517 C.1     1  LIG1        0.1016
     14 C          -2.3071   -0.9905   -0.0408 C.ar    1  LIG1        0.0688
     15 C          -2.6894   -2.2314   -0.5120 C.ar    1  LIG1       -0.0057
     16 C          -4.1170   -2.2322   -0.5311 C.ar    1  LIG1        0.0819
     17 C          -4.5648   -1.0000   -0.0649 C.ar    1  LIG1        0.0815
     18 N          -3.4539   -0.2709    0.2229 N.ar    1  LIG1       -0.3506
     19 H          -3.4664    0.6432    0.6531 H       1  LIG1        0.1660
     20 C          -1.8176   -3.3603   -0.9638 C.3     1  LIG1       -0.0364
     21 H          -1.3360   -3.8711   -0.1213 H       1  LIG1        0.0279
     22 H          -1.0375   -3.0185   -1.6515 H       1  LIG1        0.0279
     23 H          -2.4091   -4.1116   -1.4901 H       1  LIG1        0.0279
     24 N          -5.5572   -4.1541   -1.4664 N.1     1  LIG1       -0.1908
     25 C          -4.9236   -3.2835   -1.0394 C.1     1  LIG1        0.1016
     26 C          -5.8833   -0.4249    0.0923 C.ar    1  LIG1        0.0688
     27 C          -7.0801   -0.9566    0.5173 C.ar    1  LIG1       -0.0057
     28 C          -8.0090    0.1270    0.5250 C.ar    1  LIG1        0.0819
     29 C          -7.3557    1.2894    0.1135 C.ar    1  LIG1        0.0815
     30 N          -6.0694    0.9311   -0.1350 N.ar    1  LIG1       -0.3506
     31 H          -5.3773    1.5482   -0.5309 H       1  LIG1        0.1660
     32 C          -7.3738   -2.3590    0.9404 C.3     1  LIG1       -0.0364
     33 H          -6.4985   -2.8224    1.4006 H       1  LIG1        0.0279
     34 H          -7.6609   -2.9859    0.0919 H       1  LIG1        0.0279
     35 H          -8.1914   -2.3770    1.6644 H       1  LIG1        0.0279
     36 N         -10.4897    0.0882    1.2155 N.1     1  LIG1       -0.1908
     37 C          -9.3706    0.0674    0.9110 C.1     1  LIG1        0.1016
     38 C          -7.8372    2.6421   -0.0526 C.ar    1  LIG1        0.0684
     39 C          -7.1801    3.7921   -0.4575 C.ar    1  LIG1       -0.0064
     40 C          -8.1554    4.8324   -0.4344 C.ar    1  LIG1        0.0725
     41 C          -9.3561    4.2887   -0.0217 C.ar    1  LIG1        0.0199
     42 N          -9.1536    2.9738    0.2038 N.ar    1  LIG1       -0.3581
     43 H          -9.8598    2.3234    0.5211 H       1  LIG1        0.1654
     44 H         -10.3189    4.7534    0.1208 H       1  LIG1        0.0820
     45 C          -5.7475    3.9627   -0.8574 C.3     1  LIG1       -0.0364
     46 H          -5.5477    5.0070   -1.1036 H       1  LIG1        0.0279
     47 H          -5.5015    3.3777   -1.7518 H       1  LIG1        0.0279
     48 H          -5.0465    3.6865   -0.0624 H       1  LIG1        0.0279
     49 N          -7.7189    7.2943   -1.0668 N.1     1  LIG1       -0.1908
     50 C          -7.9285    6.1925   -0.7795 C.1     1  LIG1        0.1009
@<TRIPOS>BOND
     1    47    45    1
     2    22    20    1
     3    23    20    1
     4    24    25    3
     5    46    45    1
     6    49    50    3
     7    25    16    1
     8    20    15    1
     9    20    21    1
    10    45    39    1
    11    45    48    1
    12    50    40    1
    13    16    15   ar
    14    16    17   ar
    15    31    30    1
    16    15    14   ar
    17    39    40   ar
    18    39    38   ar
    19    40    41   ar
    20    30    26   ar
    21    30    29   ar
    22    17    26    1
    23    17    18   ar
    24    10     8    1
    25    38    29    1
    26    38    42   ar
    27    14     4    1
    28    14    18   ar
    29    41    44    1
    30    41    42   ar
    31     6     5    1
    32    34    32    1
    33    26    27   ar
    34    29    28   ar
    35     5     4   ar
    36     5     1   ar
    37     4     3   ar
    38    42    43    1
    39    18    19    1
    40     1     7    1
    41     1     2   ar
    42     3    13    1
    43     3     2   ar
    44    13    12    3
    45     2     8    1
    46    27    28   ar
    47    27    32    1
    48    28    37    1
    49     8    11    1
    50     8     9    1
    51    37    36    3
    52    32    33    1
    53    32    35    1
