@<TRIPOS>MOLECULE
mol_data/opt/cam/geoms/mol2/13id13id-13id-13id-.out
 50 53 0 0 0
SMALL
GASTEIGER

@<TRIPOS>ATOM
      1 C           1.0578    0.1200   -0.2128 C.ar    1  LIG1        0.0064
      2 C           0.4338    1.3318   -0.2952 C.ar    1  LIG1       -0.0151
      3 C          -0.9701    1.0562   -0.2143 C.ar    1  LIG1        0.0813
      4 C          -1.1421   -0.3265   -0.0874 C.ar    1  LIG1        0.0810
      5 N           0.1033   -0.8667   -0.0879 N.ar    1  LIG1       -0.3582
      6 H           0.2924   -1.8547   -0.0406 H       1  LIG1        0.1654
      7 H           2.1090   -0.1223   -0.2325 H       1  LIG1        0.0810
      8 C           1.0673    2.6778   -0.4350 C.3     1  LIG1       -0.0371
      9 H           0.8130    3.3281    0.4070 H       1  LIG1        0.0278
     10 H           0.7352    3.1817   -1.3474 H       1  LIG1        0.0278
     11 H           2.1547    2.5927   -0.4760 H       1  LIG1        0.0278
     12 N          -2.9904    2.6528   -0.2773 N.1     1  LIG1       -0.1908
     13 C          -2.0407    1.9839   -0.2439 C.1     1  LIG1        0.1016
     14 C          -2.3649   -1.0858    0.0386 C.ar    1  LIG1        0.0688
     15 C          -2.6560   -2.3695    0.4613 C.ar    1  LIG1       -0.0057
     16 C          -4.0832   -2.4796    0.4643 C.ar    1  LIG1        0.0819
     17 C          -4.6165   -1.2651    0.0429 C.ar    1  LIG1        0.0815
     18 N          -3.5597   -0.4556   -0.2168 N.ar    1  LIG1       -0.3506
     19 H          -3.6494    0.4580   -0.6342 H       1  LIG1        0.1660
     20 C          -1.6999   -3.4393    0.8847 C.3     1  LIG1       -0.0364
     21 H          -0.9428   -3.0527    1.5745 H       1  LIG1        0.0279
     22 H          -1.1861   -3.8921    0.0288 H       1  LIG1        0.0279
     23 H          -2.2287   -4.2441    1.3986 H       1  LIG1        0.0279
     24 N          -5.3986   -4.5417    1.2773 N.1     1  LIG1       -0.1908
     25 C          -4.8188   -3.6095    0.9080 C.1     1  LIG1        0.1016
     26 C          -5.9351   -0.6828   -0.0814 C.ar    1  LIG1        0.0688
     27 C          -7.1559   -1.1313   -0.5270 C.ar    1  LIG1       -0.0057
     28 C          -8.0102    0.0190   -0.5723 C.ar    1  LIG1        0.0819
     29 C          -7.2892    1.1300   -0.1463 C.ar    1  LIG1        0.0815
     30 N          -6.0337    0.6850    0.1346 N.ar    1  LIG1       -0.3506
     31 H          -5.3584    1.2228    0.6587 H       1  LIG1        0.1660
     32 C          -7.5237   -2.5155   -0.9515 C.3     1  LIG1       -0.0364
     33 H          -7.8602   -3.1175   -0.1026 H       1  LIG1        0.0279
     34 H          -6.6696   -3.0325   -1.3942 H       1  LIG1        0.0279
     35 H          -8.3322   -2.4915   -1.6851 H       1  LIG1        0.0279
     36 N         -10.3978    0.0043   -1.5440 N.1     1  LIG1       -0.1908
     37 C          -9.3295    0.0236   -1.0974 C.1     1  LIG1        0.1016
     38 C          -7.5978    2.5383   -0.0128 C.ar    1  LIG1        0.0684
     39 C          -8.7500    3.2055    0.3507 C.ar    1  LIG1       -0.0064
     40 C          -8.4139    4.5945    0.3576 C.ar    1  LIG1        0.0725
     41 C          -7.0838    4.7223    0.0123 C.ar    1  LIG1        0.0199
     42 N          -6.5958    3.4803   -0.2031 N.ar    1  LIG1       -0.3581
     43 H          -5.6528    3.2832   -0.5114 H       1  LIG1        0.1654
     44 H          -6.4730    5.6051   -0.0921 H       1  LIG1        0.0820
     45 C         -10.0788    2.6299    0.7196 C.3     1  LIG1       -0.0364
     46 H          -9.9667    1.6737    1.2356 H       1  LIG1        0.0279
     47 H         -10.7017    2.4484   -0.1603 H       1  LIG1        0.0279
     48 H         -10.6179    3.3147    1.3774 H       1  LIG1        0.0279
     49 N         -10.0105    6.5246    0.9737 N.1     1  LIG1       -0.1908
     50 C          -9.2889    5.6641    0.6928 C.1     1  LIG1        0.1009
@<TRIPOS>BOND
     1    35    32    1
     2    36    37    3
     3    34    32    1
     4    10     8    1
     5    37    28    1
     6    32    27    1
     7    32    33    1
     8    19    18    1
     9    28    27   ar
    10    28    29   ar
    11    27    26   ar
    12    43    42    1
    13    11     8    1
    14     8     2    1
    15     8     9    1
    16     2     3   ar
    17     2     1   ar
    18    12    13    3
    19    13     3    1
    20     7     1    1
    21    18    14   ar
    22    18    17   ar
    23     3     4   ar
    24     1     5   ar
    25    42    38   ar
    26    42    41   ar
    27    47    45    1
    28    29    38    1
    29    29    30   ar
    30    44    41    1
    31     5     4   ar
    32     5     6    1
    33     4    14    1
    34    26    17    1
    35    26    30   ar
    36    38    39   ar
    37    41    40   ar
    38    22    20    1
    39    14    15   ar
    40    17    16   ar
    41    30    31    1
    42    39    40   ar
    43    39    45    1
    44    40    50    1
    45    15    16   ar
    46    15    20    1
    47    16    25    1
    48    50    49    3
    49    45    46    1
    50    45    48    1
    51    20    23    1
    52    20    21    1
    53    25    24    3
