@<TRIPOS>MOLECULE
mol_data/opt/cam/geoms/mol2/13id13id.out
 26 27 0 0 0
SMALL
GASTEIGER

@<TRIPOS>ATOM
      1 C           1.0970   -0.2629    0.6375 C.ar    1  LIG1        0.0064
      2 C           0.8327    0.9471    0.0593 C.ar    1  LIG1       -0.0151
      3 C          -0.5479    0.9109   -0.3229 C.ar    1  LIG1        0.0813
      4 C          -1.0734   -0.3183    0.0453 C.ar    1  LIG1        0.0810
      5 N          -0.0501   -1.0222    0.6162 N.ar    1  LIG1       -0.3582
      6 H          -0.1708   -1.9013    1.0928 H       1  LIG1        0.1654
      7 H           2.0132   -0.6453    1.0609 H       1  LIG1        0.0810
      8 C           1.7790    2.0828   -0.1583 C.3     1  LIG1       -0.0371
      9 H           1.4292    2.9916    0.3396 H       1  LIG1        0.0278
     10 H           1.8813    2.3178   -1.2217 H       1  LIG1        0.0278
     11 H           2.7708    1.8447    0.2314 H       1  LIG1        0.0278
     12 N          -1.8089    2.7772   -1.5777 N.1     1  LIG1       -0.1908
     13 C          -1.2482    1.9343   -1.0151 C.1     1  LIG1        0.1016
     14 C          -2.4058   -0.8759   -0.1064 C.ar    1  LIG1        0.0684
     15 C          -3.6462   -0.3434    0.1663 C.ar    1  LIG1       -0.0064
     16 C          -4.5950   -1.3654   -0.1557 C.ar    1  LIG1        0.0725
     17 C          -3.9065   -2.4711   -0.6069 C.ar    1  LIG1        0.0199
     18 N          -2.5854   -2.1721   -0.5623 N.ar    1  LIG1       -0.3581
     19 H          -1.8519   -2.7438   -0.9494 H       1  LIG1        0.1654
     20 H          -4.2709   -3.4272   -0.9484 H       1  LIG1        0.0820
     21 C          -3.9644    1.0111    0.7103 C.3     1  LIG1       -0.0364
     22 H          -4.8766    0.9805    1.3103 H       1  LIG1        0.0279
     23 H          -4.1146    1.7380   -0.0931 H       1  LIG1        0.0279
     24 H          -3.1504    1.3845    1.3354 H       1  LIG1        0.0279
     25 N          -7.1529   -1.1880    0.1277 N.1     1  LIG1       -0.1908
     26 C          -6.0063   -1.2737   -0.0063 C.1     1  LIG1        0.1009
@<TRIPOS>BOND
     1    12    13    3
     2    10     8    1
     3    13     3    1
     4    19    18    1
     5    20    17    1
     6    17    18   ar
     7    17    16   ar
     8    18    14   ar
     9     3     4   ar
    10     3     2   ar
    11     8     2    1
    12     8    11    1
    13     8     9    1
    14    16    26    1
    15    16    15   ar
    16    14     4    1
    17    14    15   ar
    18    23    21    1
    19    26    25    3
    20     4     5   ar
    21     2     1   ar
    22    15    21    1
    23     5     1   ar
    24     5     6    1
    25     1     7    1
    26    21    22    1
    27    21    24    1
