@<TRIPOS>MOLECULE
mol_data/opt/cam/geoms/mol2/13id13id-.out
 26 27 0 0 0
SMALL
GASTEIGER

@<TRIPOS>ATOM
      1 C           1.1882   -0.2928    0.0163 C.ar    1  LIG1        0.0064
      2 C           0.8094    1.0190   -0.0088 C.ar    1  LIG1       -0.0151
      3 C          -0.6224    1.0132   -0.0198 C.ar    1  LIG1        0.0813
      4 C          -1.0624   -0.3092   -0.0009 C.ar    1  LIG1        0.0810
      5 N           0.0595   -1.0805    0.0208 N.ar    1  LIG1       -0.3582
      6 H           0.0570   -2.0863    0.0377 H       1  LIG1        0.1654
      7 H           2.1735   -0.7322    0.0313 H       1  LIG1        0.0810
      8 C           1.6889    2.2267   -0.0223 C.3     1  LIG1       -0.0371
      9 H           1.5026    2.8652    0.8462 H       1  LIG1        0.0278
     10 H           1.5161    2.8357   -0.9144 H       1  LIG1        0.0278
     11 H           2.7425    1.9408   -0.0094 H       1  LIG1        0.0278
     12 N          -2.2294    3.0248   -0.0661 N.1     1  LIG1       -0.1908
     13 C          -1.4757    2.1427   -0.0454 C.1     1  LIG1        0.1016
     14 C          -2.4006   -0.8629   -0.0019 C.ar    1  LIG1        0.0684
     15 C          -2.8392   -2.1749    0.0169 C.ar    1  LIG1       -0.0064
     16 C          -4.2650   -2.1191    0.0048 C.ar    1  LIG1        0.0725
     17 C          -4.6419   -0.7914   -0.0206 C.ar    1  LIG1        0.0199
     18 N          -3.5146   -0.0477   -0.0245 N.ar    1  LIG1       -0.3581
     19 H          -3.4857    0.9631   -0.0413 H       1  LIG1        0.1654
     20 H          -5.6237   -0.3454   -0.0358 H       1  LIG1        0.0820
     21 C          -2.0281   -3.4325    0.0446 C.3     1  LIG1       -0.0364
     22 H          -1.3993   -3.4973    0.9401 H       1  LIG1        0.0279
     23 H          -1.3856   -3.5276   -0.8384 H       1  LIG1        0.0279
     24 H          -2.6839   -4.3049    0.0544 H       1  LIG1        0.0279
     25 N          -5.8222   -4.1745    0.0275 N.1     1  LIG1       -0.1908
     26 C          -5.1379   -3.2405    0.0170 C.1     1  LIG1        0.1009
@<TRIPOS>BOND
     1    10     8    1
     2    23    21    1
     3    12    13    3
     4    13     3    1
     5    19    18    1
     6    20    17    1
     7    18    17   ar
     8    18    14   ar
     9     8    11    1
    10     8     2    1
    11     8     9    1
    12    17    16   ar
    13     3     2   ar
    14     3     4   ar
    15     2     1   ar
    16    14     4    1
    17    14    15   ar
    18     4     5   ar
    19    16    15   ar
    20    16    26    1
    21     1     5   ar
    22     1     7    1
    23    15    21    1
    24    26    25    3
    25     5     6    1
    26    21    24    1
    27    21    22    1
