@<TRIPOS>MOLECULE
mol_data/opt/cam/geoms/mol2/13id13id13id-13id-.out
 50 53 0 0 0
SMALL
GASTEIGER

@<TRIPOS>ATOM
      1 C           1.0861    0.0400    1.1175 C.ar    1  LIG1        0.0064
      2 C           0.8808    1.0855    0.2609 C.ar    1  LIG1       -0.0151
      3 C          -0.4672    0.9561   -0.2058 C.ar    1  LIG1        0.0813
      4 C          -1.0337   -0.1602    0.3915 C.ar    1  LIG1        0.0810
      5 N          -0.0644   -0.7110    1.1830 N.ar    1  LIG1       -0.3582
      6 H          -0.2281   -1.4587    1.8379 H       1  LIG1        0.1654
      7 H           1.9630   -0.2306    1.6854 H       1  LIG1        0.0810
      8 C           1.8550    2.1466   -0.1367 C.3     1  LIG1       -0.0371
      9 H           1.4838    3.1425    0.1213 H       1  LIG1        0.0278
     10 H           2.0335    2.1388   -1.2158 H       1  LIG1        0.0278
     11 H           2.8140    2.0034    0.3649 H       1  LIG1        0.0278
     12 N          -1.6178    2.4701   -1.9470 N.1     1  LIG1       -0.1908
     13 C          -1.1032    1.7874   -1.1658 C.1     1  LIG1        0.1016
     14 C          -2.3566   -0.7427    0.2636 C.ar    1  LIG1        0.0688
     15 C          -3.6053   -0.1653    0.2935 C.ar    1  LIG1       -0.0057
     16 C          -4.5368   -1.2353    0.1335 C.ar    1  LIG1        0.0819
     17 C          -3.8340   -2.4341    0.0147 C.ar    1  LIG1        0.0815
     18 N          -2.5167   -2.1116    0.1064 N.ar    1  LIG1       -0.3506
     19 H          -1.7603   -2.7612   -0.0365 H       1  LIG1        0.1660
     20 C          -3.9476    1.2772    0.4747 C.3     1  LIG1       -0.0364
     21 H          -4.8995    1.3861    0.9997 H       1  LIG1        0.0279
     22 H          -4.0306    1.7914   -0.4869 H       1  LIG1        0.0279
     23 H          -3.1758    1.7925    1.0500 H       1  LIG1        0.0279
     24 N          -7.1104   -1.1823    0.0843 N.1     1  LIG1       -0.1908
     25 C          -5.9507   -1.1495    0.1052 C.1     1  LIG1        0.1016
     26 C          -4.3148   -3.7828   -0.1785 C.ar    1  LIG1        0.0688
     27 C          -3.6659   -4.9412   -0.5602 C.ar    1  LIG1       -0.0057
     28 C          -4.6645   -5.9581   -0.6266 C.ar    1  LIG1        0.0819
     29 C          -5.8891   -5.3979   -0.2763 C.ar    1  LIG1        0.0815
     30 N          -5.6511   -4.0859   -0.0128 N.ar    1  LIG1       -0.3506
     31 H          -6.3434   -3.4383    0.3373 H       1  LIG1        0.1660
     32 C          -2.2187   -5.1288   -0.8911 C.3     1  LIG1       -0.0364
     33 H          -1.5832   -5.0891    0.0017 H       1  LIG1        0.0279
     34 H          -1.8639   -4.3761   -1.6029 H       1  LIG1        0.0279
     35 H          -2.0567   -6.1066   -1.3481 H       1  LIG1        0.0279
     36 N          -4.2201   -8.3597   -1.4494 N.1     1  LIG1       -0.1908
     37 C          -4.4389   -7.2863   -1.0736 C.1     1  LIG1        0.1016
     38 C          -7.2293   -5.9426   -0.2011 C.ar    1  LIG1        0.0684
     39 C          -7.7029   -7.1606    0.2406 C.ar    1  LIG1       -0.0064
     40 C          -9.1259   -7.0957    0.1222 C.ar    1  LIG1        0.0725
     41 C          -9.4655   -5.8541   -0.3740 C.ar    1  LIG1        0.0199
     42 N          -8.3179   -5.1622   -0.5582 N.ar    1  LIG1       -0.3581
     43 H          -8.2603   -4.2457   -0.9758 H       1  LIG1        0.1654
     44 H         -10.4329   -5.4354   -0.6023 H       1  LIG1        0.0820
     45 C          -6.9267   -8.3160    0.7843 C.3     1  LIG1       -0.0364
     46 H          -6.0287   -7.9788    1.3068 H       1  LIG1        0.0279
     47 H          -6.6027   -8.9953   -0.0087 H       1  LIG1        0.0279
     48 H          -7.5386   -8.8874    1.4854 H       1  LIG1        0.0279
     49 N         -10.7703   -8.9680    0.7887 N.1     1  LIG1       -0.1908
     50 C         -10.0401   -8.1232    0.4839 C.1     1  LIG1        0.1009
@<TRIPOS>BOND
     1    12    13    3
     2    34    32    1
     3    36    37    3
     4    35    32    1
     5    10     8    1
     6    13     3    1
     7    37    28    1
     8    43    42    1
     9    32    27    1
    10    32    33    1
    11    28    27   ar
    12    28    29   ar
    13    44    41    1
    14    27    26   ar
    15    42    41   ar
    16    42    38   ar
    17    22    20    1
    18    41    40   ar
    19    29    38    1
    20    29    30   ar
    21     3     2   ar
    22     3     4   ar
    23    38    39   ar
    24    26    30   ar
    25    26    17    1
    26     8     9    1
    27     8     2    1
    28     8    11    1
    29    19    18    1
    30    30    31    1
    31    47    45    1
    32    17    18   ar
    33    17    16   ar
    34    24    25    3
    35    25    16    1
    36    18    14   ar
    37    40    39   ar
    38    40    50    1
    39    16    15   ar
    40    39    45    1
    41     2     1   ar
    42    14    15   ar
    43    14     4    1
    44    15    20    1
    45     4     5   ar
    46    20    21    1
    47    20    23    1
    48    50    49    3
    49    45    46    1
    50    45    48    1
    51     1     5   ar
    52     1     7    1
    53     5     6    1
