@<TRIPOS>MOLECULE
mol_data/opt/cam/geoms/mol2/13id13id-13id13id-.out
 50 53 0 0 0
SMALL
GASTEIGER

@<TRIPOS>ATOM
      1 C           1.3288   -0.2725    0.0019 C.ar    1  LIG1        0.0064
      2 C           0.9258    0.9893   -0.3307 C.ar    1  LIG1       -0.0151
      3 C          -0.5054    0.9544   -0.3359 C.ar    1  LIG1        0.0813
      4 C          -0.9209   -0.3343   -0.0034 C.ar    1  LIG1        0.0810
      5 N           0.2156   -1.0583    0.1948 N.ar    1  LIG1       -0.3582
      6 H           0.2332   -2.0240    0.4762 H       1  LIG1        0.1654
      7 H           2.3223   -0.6774    0.1169 H       1  LIG1        0.0810
      8 C           1.7829    2.1747   -0.6344 C.3     1  LIG1       -0.0371
      9 H           1.5808    2.9994    0.0552 H       1  LIG1        0.0278
     10 H           1.6032    2.5477   -1.6469 H       1  LIG1        0.0278
     11 H           2.8414    1.9203   -0.5531 H       1  LIG1        0.0278
     12 N          -2.1504    2.8654   -0.8577 N.1     1  LIG1       -0.1908
     13 C          -1.3805    2.0272   -0.6316 C.1     1  LIG1        0.1016
     14 C          -2.2480   -0.8941    0.1306 C.ar    1  LIG1        0.0688
     15 C          -2.6682   -2.1980    0.3046 C.ar    1  LIG1       -0.0057
     16 C          -4.0907   -2.1528    0.3638 C.ar    1  LIG1        0.0819
     17 C          -4.5032   -0.8270    0.2217 C.ar    1  LIG1        0.0815
     18 N          -3.3716   -0.0899    0.0860 N.ar    1  LIG1       -0.3506
     19 H          -3.3532    0.9045   -0.0931 H       1  LIG1        0.1660
     20 C          -1.8419   -3.4409    0.4122 C.3     1  LIG1       -0.0364
     21 H          -1.2688   -3.4753    1.3464 H       1  LIG1        0.0279
     22 H          -1.1445   -3.5397   -0.4262 H       1  LIG1        0.0279
     23 H          -2.4807   -4.3260    0.4042 H       1  LIG1        0.0279
     24 N          -5.7037   -4.1375    0.6657 N.1     1  LIG1       -0.1908
     25 C          -4.9574   -3.2586    0.5380 C.1     1  LIG1        0.1016
     26 C          -5.8259   -0.2479    0.2081 C.ar    1  LIG1        0.0688
     27 C          -6.2375    1.0657    0.3269 C.ar    1  LIG1       -0.0057
     28 C          -7.6590    1.0393    0.2585 C.ar    1  LIG1        0.0819
     29 C          -8.0800   -0.2837    0.1032 C.ar    1  LIG1        0.0815
     30 N          -6.9540   -1.0387    0.0742 N.ar    1  LIG1       -0.3506
     31 H          -6.9432   -2.0464    0.0110 H       1  LIG1        0.1660
     32 C          -5.4031    2.2930    0.5166 C.3     1  LIG1       -0.0364
     33 H          -6.0349    3.1459    0.7712 H       1  LIG1        0.0279
     34 H          -4.8440    2.5692   -0.3837 H       1  LIG1        0.0279
     35 H          -4.6819    2.1677    1.3298 H       1  LIG1        0.0279
     36 N          -9.2823    3.0310    0.4329 N.1     1  LIG1       -0.1908
     37 C          -8.5245    2.1565    0.3507 C.1     1  LIG1        0.1016
     38 C          -9.4082   -0.8426   -0.0128 C.ar    1  LIG1        0.0684
     39 C          -9.8277   -2.1348   -0.2809 C.ar    1  LIG1       -0.0064
     40 C         -11.2532   -2.0954   -0.2791 C.ar    1  LIG1        0.0725
     41 C         -11.6485   -0.7983   -0.0161 C.ar    1  LIG1        0.0199
     42 N         -10.5336   -0.0553    0.1424 N.ar    1  LIG1       -0.3581
     43 H         -10.5209    0.9375    0.3324 H       1  LIG1        0.1654
     44 H         -12.6368   -0.3739    0.0638 H       1  LIG1        0.0820
     45 C          -8.9977   -3.3515   -0.5456 C.3     1  LIG1       -0.0364
     46 H          -8.4034   -3.6573    0.3220 H       1  LIG1        0.0279
     47 H          -8.3117   -3.2008   -1.3859 H       1  LIG1        0.0279
     48 H          -9.6393   -4.1961   -0.8028 H       1  LIG1        0.0279
     49 N         -12.8002   -4.1127   -0.7136 N.1     1  LIG1       -0.1908
     50 C         -12.1165   -3.1996   -0.5158 C.1     1  LIG1        0.1009
@<TRIPOS>BOND
     1    10     8    1
     2    47    45    1
     3    12    13    3
     4    48    45    1
     5    49    50    3
     6     8    11    1
     7     8     2    1
     8     8     9    1
     9    13     3    1
    10    45    39    1
    11    45    46    1
    12    50    40    1
    13    22    20    1
    14    34    32    1
    15     3     2   ar
    16     3     4   ar
    17     2     1   ar
    18    39    40   ar
    19    39    38   ar
    20    40    41   ar
    21    19    18    1
    22    41    44    1
    23    41    42   ar
    24    38    29    1
    25    38    42   ar
    26     4    14    1
    27     4     5   ar
    28     1     7    1
    29     1     5   ar
    30    31    30    1
    31    30    29   ar
    32    30    26   ar
    33    18    14   ar
    34    18    17   ar
    35    29    28   ar
    36    14    15   ar
    37    42    43    1
    38     5     6    1
    39    26    17    1
    40    26    27   ar
    41    17    16   ar
    42    28    27   ar
    43    28    37    1
    44    15    16   ar
    45    15    20    1
    46    27    32    1
    47    37    36    3
    48    16    25    1
    49    23    20    1
    50    20    21    1
    51    32    33    1
    52    32    35    1
    53    25    24    3
