@<TRIPOS>MOLECULE
mol_data/opt/cam/geoms/mol2/13id12ef6fe-12hh-.out
 47 50 0 0 0
SMALL
GASTEIGER

@<TRIPOS>ATOM
      1 C           1.0211   -0.1428    1.1085 C.ar    1  LIG1        0.0064
      2 C           0.8460    1.0799    0.5177 C.ar    1  LIG1       -0.0151
      3 C          -0.4839    1.0848   -0.0094 C.ar    1  LIG1        0.0829
      4 C          -1.0707   -0.1401    0.2927 C.ar    1  LIG1        0.1013
      5 N          -0.1312   -0.8680    0.9654 N.ar    1  LIG1       -0.3569
      6 H          -0.2963   -1.7956    1.3220 H       1  LIG1        0.1655
      7 H           1.8801   -0.5515    1.6182 H       1  LIG1        0.0810
      8 C           1.8349    2.1953    0.4154 C.3     1  LIG1       -0.0371
      9 H           1.4753    3.0937    0.9253 H       1  LIG1        0.0278
     10 H           2.0170    2.4691   -0.6277 H       1  LIG1        0.0278
     11 H           2.7896    1.9121    0.8629 H       1  LIG1        0.0278
     12 N          -1.3954    3.0402   -1.4180 N.1     1  LIG1       -0.1908
     13 C          -1.0243    2.1481   -0.7800 C.1     1  LIG1        0.1016
     14 C          -2.3637   -0.7184    0.0249 C.ar    1  LIG1        0.1720
     15 C          -3.6315   -0.2323   -0.1611 C.ar    1  LIG1        0.1139
     16 C          -4.4663   -1.3868   -0.3462 C.ar    1  LIG1        0.1792
     17 C          -3.6853   -2.4957   -0.2242 C.ar    1  LIG1        0.1833
     18 O          -2.3834   -2.0843   -0.0084 O.2     1  LIG1       -0.4481
     19 C          -4.0739    1.1124   -0.1338 C.1     1  LIG1       -0.0621
     20 C          -4.4596    2.2508   -0.1024 C.1     1  LIG1       -0.1137
     21 H          -4.7745    3.2689   -0.0939 H       1  LIG1        0.1232
     22 O          -5.7910   -1.2958   -0.5864 O.3     1  LIG1       -0.5024
     23 H          -6.1042   -2.1206   -0.9800 H       1  LIG1        0.2923
     24 C          -3.0323   -4.8614   -0.8210 C.ar    1  LIG1        0.2241
     25 C          -3.9617   -3.9200   -0.3040 C.ar    1  LIG1        0.0834
     26 C          -5.1960   -4.4292    0.0691 C.ar    1  LIG1       -0.0282
     27 C          -5.4987   -5.7866   -0.0732 C.ar    1  LIG1        0.0546
     28 C          -4.4746   -6.6391   -0.5446 C.ar    1  LIG1        0.1270
     29 N          -3.2834   -6.1457   -0.9153 N.ar    1  LIG1       -0.2080
     30 H          -5.9521   -3.7681    0.4804 H       1  LIG1        0.0639
     31 O          -1.8093   -4.4930   -1.2370 O.3     1  LIG1       -0.4919
     32 H          -1.6769   -3.5478   -1.0769 H       1  LIG1        0.2938
     33 C          -6.8361   -6.2137    0.1798 C.1     1  LIG1       -0.0674
     34 C          -7.9837   -6.5209    0.3880 C.1     1  LIG1       -0.1138
     35 H          -9.0048   -6.7898    0.5340 H       1  LIG1        0.1232
     36 C          -4.6152   -8.0792   -0.6615 C.ar    1  LIG1        0.1766
     37 C          -5.2396   -9.0687    0.0672 C.ar    1  LIG1        0.0935
     38 C          -4.8311  -10.3144   -0.5179 C.ar    1  LIG1        0.0845
     39 C          -4.0004   -9.9968   -1.5425 C.ar    1  LIG1        0.1151
     40 O          -3.8556   -8.6657   -1.6501 O.2     1  LIG1       -0.4576
     41 H          -3.4784  -10.5975   -2.2718 H       1  LIG1        0.1049
     42 N          -6.0194   -9.0368    1.2034 N.pl3   1  LIG1       -0.3536
     43 H          -6.5999   -8.2159    1.3102 H       1  LIG1        0.1425
     44 H          -6.5412   -9.8994    1.3073 H       1  LIG1        0.1425
     45 N          -5.3117  -11.5567   -0.0467 N.pl3   1  LIG1       -0.3541
     46 H          -5.2436  -12.2856   -0.7461 H       1  LIG1        0.1425
     47 H          -4.8160  -11.8620    0.7852 H       1  LIG1        0.1425
@<TRIPOS>BOND
     1    41    39    1
     2    40    39   ar
     3    40    36   ar
     4    39    38   ar
     5    12    13    3
     6    31    32    1
     7    31    24    1
     8    23    22    1
     9    29    24   ar
    10    29    28   ar
    11    24    25   ar
    12    13     3    1
    13    46    45    1
    14    36    28    1
    15    36    37   ar
    16    10     8    1
    17    22    16    1
    18    28    27   ar
    19    38    45    1
    20    38    37   ar
    21    16    17   ar
    22    16    15   ar
    23    25    17    1
    24    25    26   ar
    25    17    18   ar
    26    15    19    1
    27    15    14   ar
    28    19    20    3
    29    20    21    1
    30    27    26   ar
    31    27    33    1
    32    45    47    1
    33     3     4   ar
    34     3     2   ar
    35    18    14   ar
    36    14     4    1
    37    37    42    1
    38    26    30    1
    39    33    34    3
    40     4     5   ar
    41    34    35    1
    42     8     2    1
    43     8    11    1
    44     8     9    1
    45     2     1   ar
    46     5     1   ar
    47     5     6    1
    48     1     7    1
    49    42    44    1
    50    42    43    1
