@<TRIPOS>MOLECULE
mol_data/opt/cam/geoms/mol2/13id13id13id13id.out
 50 53 0 0 0
SMALL
GASTEIGER

@<TRIPOS>ATOM
      1 C           0.5212    0.2773    2.0370 C.ar    1  LIG1        0.0064
      2 C           0.7917    0.9615    0.8844 C.ar    1  LIG1       -0.0151
      3 C          -0.3042    0.6965    0.0011 C.ar    1  LIG1        0.0813
      4 C          -1.2034   -0.1337    0.6526 C.ar    1  LIG1        0.0810
      5 N          -0.6733   -0.3877    1.8871 N.ar    1  LIG1       -0.3582
      6 H          -1.1689   -0.8558    2.6289 H       1  LIG1        0.1654
      7 H           1.0867    0.2105    2.9538 H       1  LIG1        0.0810
      8 C           1.9875    1.8049    0.5814 C.3     1  LIG1       -0.0371
      9 H           1.6980    2.8329    0.3457 H       1  LIG1        0.0278
     10 H           2.5385    1.4195   -0.2813 H       1  LIG1        0.0278
     11 H           2.6705    1.8332    1.4326 H       1  LIG1        0.0278
     12 N          -0.5277    1.5246   -2.4306 N.1     1  LIG1       -0.1908
     13 C          -0.4302    1.1513   -1.3387 C.1     1  LIG1        0.1016
     14 C          -2.4649   -0.7033    0.2111 C.ar    1  LIG1        0.0688
     15 C          -3.5617   -0.1158   -0.3800 C.ar    1  LIG1       -0.0057
     16 C          -4.5156   -1.1608   -0.5748 C.ar    1  LIG1        0.0819
     17 C          -3.9826   -2.3488   -0.0957 C.ar    1  LIG1        0.0815
     18 N          -2.7377   -2.0500    0.3759 N.ar    1  LIG1       -0.3506
     19 H          -2.1093   -2.7156    0.7975 H       1  LIG1        0.1660
     20 C          -3.7416    1.3197   -0.7524 C.3     1  LIG1       -0.0364
     21 H          -4.7934    1.6060   -0.6864 H       1  LIG1        0.0279
     22 H          -3.4045    1.5104   -1.7753 H       1  LIG1        0.0279
     23 H          -3.1626    1.9708   -0.0941 H       1  LIG1        0.0279
     24 N          -6.8375   -0.9073   -1.6678 N.1     1  LIG1       -0.1908
     25 C          -5.7937   -1.0241   -1.1809 C.1     1  LIG1        0.1016
     26 C          -4.5239   -3.6968   -0.0721 C.ar    1  LIG1        0.0688
     27 C          -5.7338   -4.1747    0.3796 C.ar    1  LIG1       -0.0057
     28 C          -5.7054   -5.5879    0.1730 C.ar    1  LIG1        0.0819
     29 C          -4.4855   -5.9333   -0.3913 C.ar    1  LIG1        0.0815
     30 N          -3.7826   -4.7729   -0.5301 N.ar    1  LIG1       -0.3506
     31 H          -2.8585   -4.7108   -0.9273 H       1  LIG1        0.1660
     32 C          -6.8641   -3.3956    0.9687 C.3     1  LIG1       -0.0364
     33 H          -7.4002   -3.9935    1.7088 H       1  LIG1        0.0279
     34 H          -7.5801   -3.0925    0.1995 H       1  LIG1        0.0279
     35 H          -6.5040   -2.4850    1.4521 H       1  LIG1        0.0279
     36 N          -7.6164   -7.2275    0.7291 N.1     1  LIG1       -0.1908
     37 C          -6.7580   -6.4942    0.4723 C.1     1  LIG1        0.1016
     38 C          -3.9544   -7.2174   -0.8137 C.ar    1  LIG1        0.0684
     39 C          -3.8949   -8.4277   -0.1596 C.ar    1  LIG1       -0.0064
     40 C          -3.2326   -9.3277   -1.0530 C.ar    1  LIG1        0.0725
     41 C          -2.9181   -8.6417   -2.2065 C.ar    1  LIG1        0.0199
     42 N          -3.3431   -7.3646   -2.0493 N.ar    1  LIG1       -0.3581
     43 H          -3.3717   -6.6759   -2.7844 H       1  LIG1        0.1654
     44 H          -2.4311   -8.9805   -3.1075 H       1  LIG1        0.0820
     45 C          -4.3905   -8.7568    1.2109 C.3     1  LIG1       -0.0364
     46 H          -3.7704   -9.5303    1.6694 H       1  LIG1        0.0279
     47 H          -5.4201   -9.1245    1.1830 H       1  LIG1        0.0279
     48 H          -4.3799   -7.8757    1.8563 H       1  LIG1        0.0279
     49 N          -2.6632  -11.7930   -0.5502 N.1     1  LIG1       -0.1908
     50 C          -2.9191  -10.6892   -0.7863 C.1     1  LIG1        0.1009
@<TRIPOS>BOND
     1    44    41    1
     2    43    42    1
     3    12    13    3
     4    41    42   ar
     5    41    40   ar
     6    42    38   ar
     7    22    20    1
     8    24    25    3
     9    13     3    1
    10    25    16    1
    11    40    50    1
    12    40    39   ar
    13    31    30    1
    14    38    29    1
    15    38    39   ar
    16    50    49    3
    17    20    21    1
    18    20    15    1
    19    20    23    1
    20    16    15   ar
    21    16    17   ar
    22    30    29   ar
    23    30    26   ar
    24    29    28   ar
    25    15    14   ar
    26    10     8    1
    27    39    45    1
    28    17    26    1
    29    17    18   ar
    30    26    27   ar
    31     3     4   ar
    32     3     2   ar
    33    28    27   ar
    34    28    37    1
    35    34    32    1
    36    14    18   ar
    37    14     4    1
    38     9     8    1
    39    18    19    1
    40    27    32    1
    41    37    36    3
    42     8     2    1
    43     8    11    1
    44     4     5   ar
    45     2     1   ar
    46    32    35    1
    47    32    33    1
    48    47    45    1
    49    45    46    1
    50    45    48    1
    51     5     1   ar
    52     5     6    1
    53     1     7    1
