@<TRIPOS>MOLECULE
mol_data/opt/cam/geoms/mol2/13id13id13id13id-.out
 50 53 0 0 0
SMALL
GASTEIGER

@<TRIPOS>ATOM
      1 C           0.5484    0.4728    1.9078 C.ar    1  LIG1        0.0064
      2 C           0.7503    1.1240    0.7228 C.ar    1  LIG1       -0.0151
      3 C          -0.3679    0.7900   -0.1077 C.ar    1  LIG1        0.0813
      4 C          -1.2115   -0.0470    0.6064 C.ar    1  LIG1        0.0810
      5 N          -0.6262   -0.2384    1.8274 N.ar    1  LIG1       -0.3582
      6 H          -1.0775   -0.6942    2.6042 H       1  LIG1        0.1654
      7 H           1.1503    0.4581    2.8035 H       1  LIG1        0.0810
      8 C           1.9030    1.9960    0.3435 C.3     1  LIG1       -0.0371
      9 H           1.5683    3.0037    0.0815 H       1  LIG1        0.0278
     10 H           2.4348    1.5973   -0.5252 H       1  LIG1        0.0278
     11 H           2.6159    2.0802    1.1661 H       1  LIG1        0.0278
     12 N          -0.7083    1.5269   -2.5551 N.1     1  LIG1       -0.1908
     13 C          -0.5587    1.1932   -1.4563 C.1     1  LIG1        0.1016
     14 C          -2.4668   -0.6770    0.2359 C.ar    1  LIG1        0.0688
     15 C          -3.6014   -0.1558   -0.3456 C.ar    1  LIG1       -0.0057
     16 C          -4.5256   -1.2393   -0.4566 C.ar    1  LIG1        0.0819
     17 C          -3.9380   -2.3839    0.0642 C.ar    1  LIG1        0.0815
     18 N          -2.6892   -2.0218    0.4774 N.ar    1  LIG1       -0.3506
     19 H          -2.0234   -2.6470    0.9033 H       1  LIG1        0.1660
     20 C          -3.8429    1.2524   -0.7819 C.3     1  LIG1       -0.0364
     21 H          -4.9006    1.5081   -0.6896 H       1  LIG1        0.0279
     22 H          -3.5505    1.4014   -1.8252 H       1  LIG1        0.0279
     23 H          -3.2621    1.9543   -0.1799 H       1  LIG1        0.0279
     24 N          -6.8826   -1.1128   -1.4945 N.1     1  LIG1       -0.1908
     25 C          -5.8226   -1.1726   -1.0325 C.1     1  LIG1        0.1016
     26 C          -4.4283   -3.7445    0.1767 C.ar    1  LIG1        0.0688
     27 C          -5.6282   -4.2380    0.6323 C.ar    1  LIG1       -0.0057
     28 C          -5.5305   -5.6596    0.5363 C.ar    1  LIG1        0.0819
     29 C          -4.2776   -5.9952    0.0270 C.ar    1  LIG1        0.0815
     30 N          -3.6208   -4.8191   -0.1689 N.ar    1  LIG1       -0.3506
     31 H          -2.7556   -4.7354   -0.6777 H       1  LIG1        0.1660
     32 C          -6.8005   -3.4743    1.1555 C.3     1  LIG1       -0.0364
     33 H          -7.3302   -4.0518    1.9165 H       1  LIG1        0.0279
     34 H          -7.5091   -3.2368    0.3571 H       1  LIG1        0.0279
     35 H          -6.4855   -2.5272    1.5982 H       1  LIG1        0.0279
     36 N          -7.2836   -7.4259    1.1996 N.1     1  LIG1       -0.1908
     37 C          -6.5193   -6.6018    0.9135 C.1     1  LIG1        0.1016
     38 C          -3.6901   -7.2823   -0.2726 C.ar    1  LIG1        0.0684
     39 C          -2.4228   -7.6165   -0.7177 C.ar    1  LIG1       -0.0064
     40 C          -2.4042   -9.0376   -0.8355 C.ar    1  LIG1        0.0725
     41 C          -3.6451   -9.5150   -0.4630 C.ar    1  LIG1        0.0199
     42 N          -4.4081   -8.4529   -0.1284 N.ar    1  LIG1       -0.3581
     43 H          -5.3651   -8.5044    0.1947 H       1  LIG1        0.1654
     44 H          -4.0179  -10.5260   -0.4176 H       1  LIG1        0.0820
     45 C          -1.2707   -6.7128   -1.0262 C.3     1  LIG1       -0.0364
     46 H          -1.0104   -6.0750   -0.1744 H       1  LIG1        0.0279
     47 H          -1.4695   -6.0708   -1.8929 H       1  LIG1        0.0279
     48 H          -0.3840   -7.3008   -1.2698 H       1  LIG1        0.0279
     49 N          -0.3692  -10.4252   -1.5991 N.1     1  LIG1       -0.1908
     50 C          -1.2936   -9.8184   -1.2562 C.1     1  LIG1        0.1009
@<TRIPOS>BOND
     1    12    13    3
     2    47    45    1
     3    22    20    1
     4    49    50    3
     5    24    25    3
     6    13     3    1
     7    48    45    1
     8    50    40    1
     9    25    16    1
    10    45    39    1
    11    45    46    1
    12    40    39   ar
    13    40    41   ar
    14    20    21    1
    15    20    15    1
    16    20    23    1
    17    39    38   ar
    18    31    30    1
    19    10     8    1
    20    41    44    1
    21    41    42   ar
    22    16    15   ar
    23    16    17   ar
    24    15    14   ar
    25    38    42   ar
    26    38    29    1
    27    30    29   ar
    28    30    26   ar
    29    42    43    1
    30     3     4   ar
    31     3     2   ar
    32    29    28   ar
    33    17    26    1
    34    17    18   ar
    35     9     8    1
    36    26    27   ar
    37    14    18   ar
    38    14     4    1
    39     8     2    1
    40     8    11    1
    41    34    32    1
    42    18    19    1
    43    28    27   ar
    44    28    37    1
    45     4     5   ar
    46    27    32    1
    47     2     1   ar
    48    37    36    3
    49    32    35    1
    50    32    33    1
    51     5     1   ar
    52     5     6    1
    53     1     7    1
