@<TRIPOS>MOLECULE
mol_data/opt/cam/geoms/mol2/13ie13ha6de12dh4ie-4fa12hi13he.out
 97 104 0 0 0
SMALL
GASTEIGER

@<TRIPOS>ATOM
      1 C           0.5597    0.8657   -1.3837 C.ar    1  LIG1        0.0063
      2 C           0.0106    2.1112   -1.2591 C.ar    1  LIG1       -0.0171
      3 C          -1.2615    1.9350   -0.6198 C.ar    1  LIG1        0.0543
      4 C          -1.4281    0.5773   -0.3694 C.ar    1  LIG1        0.0805
      5 N          -0.3121   -0.0539   -0.8539 N.ar    1  LIG1       -0.3582
      6 H          -0.1131   -1.0345   -0.7262 H       1  LIG1        0.1654
      7 H           1.5030    0.5596   -1.8096 H       1  LIG1        0.0810
      8 C           0.5904    3.4119   -1.7103 C.3     1  LIG1       -0.0371
      9 H           0.7172    4.1032   -0.8717 H       1  LIG1        0.0278
     10 H          -0.0597    3.9072   -2.4379 H       1  LIG1        0.0278
     11 H           1.5671    3.2649   -2.1766 H       1  LIG1        0.0278
     12 C          -2.1992    2.9672   -0.3596 C.1     1  LIG1       -0.0672
     13 C          -2.9829    3.8597   -0.1441 C.1     1  LIG1       -0.1138
     14 H          -3.6800    4.6504    0.0106 H       1  LIG1        0.1232
     15 C          -2.4975   -0.1833    0.2368 C.ar    1  LIG1        0.0854
     16 C          -3.3625    0.0759    1.2994 C.ar    1  LIG1        0.0523
     17 C          -4.1220   -1.0965    1.5044 C.ar    1  LIG1       -0.0149
     18 C          -3.7105   -2.0525    0.5855 C.ar    1  LIG1        0.0515
     19 N          -2.7208   -1.4803   -0.1660 N.ar    1  LIG1       -0.3514
     20 H          -2.3305   -1.8741   -1.0067 H       1  LIG1        0.1660
     21 N          -3.3892    1.2134    2.0970 N.pl3   1  LIG1       -0.3563
     22 H          -3.1598    2.0717    1.6108 H       1  LIG1        0.1424
     23 H          -4.2452    1.3113    2.6236 H       1  LIG1        0.1424
     24 H          -4.8467   -1.2434    2.2925 H       1  LIG1        0.0657
     25 C          -3.4636   -4.4427   -0.2458 C.ar    1  LIG1        0.1500
     26 C          -4.1726   -3.4170    0.4171 C.ar    1  LIG1        0.0354
     27 C          -5.3994   -3.8101    0.9633 C.ar    1  LIG1       -0.0323
     28 C          -5.8679   -5.1115    0.8452 C.ar    1  LIG1        0.0544
     29 C          -5.0821   -6.0346    0.1133 C.ar    1  LIG1        0.1241
     30 N          -3.9076   -5.6877   -0.3978 N.ar    1  LIG1       -0.2313
     31 H          -6.0041   -3.0858    1.4945 H       1  LIG1        0.0638
     32 N          -1.1339   -3.9311   -1.2804 N.1     1  LIG1       -0.1893
     33 C          -2.1636   -4.1942   -0.8227 C.1     1  LIG1        0.1198
     34 C          -7.0904   -5.4741    1.4858 C.1     1  LIG1       -0.0674
     35 C          -8.1177   -5.7442    2.0503 C.1     1  LIG1       -0.1138
     36 H          -9.0381   -6.0026    2.5226 H       1  LIG1        0.1232
     37 C          -5.4756   -7.4283   -0.1127 C.ar    1  LIG1        0.1742
     38 C          -6.6508   -8.0528   -0.4573 C.ar    1  LIG1        0.1202
     39 C          -6.3488   -9.4498   -0.6014 C.ar    1  LIG1        0.0893
     40 C          -5.0193   -9.5822   -0.3123 C.ar    1  LIG1        0.1579
     41 O          -4.4971   -8.3403   -0.0401 O.2     1  LIG1       -0.4500
     42 N          -8.9725   -7.1250   -1.0680 N.1     1  LIG1       -0.1907
     43 C          -7.9162   -7.4929   -0.7686 C.1     1  LIG1        0.1049
     44 N          -7.2606  -10.4296   -0.9689 N.pl3   1  LIG1       -0.3540
     45 H          -8.1029  -10.0600   -1.3901 H       1  LIG1        0.1425
     46 H          -6.8608  -11.1698   -1.5302 H       1  LIG1        0.1425
     47 C          -4.3526  -11.9178    0.3349 C.ar    1  LIG1       -0.0391
     48 C          -3.4221  -12.9462    0.2256 C.ar    1  LIG1       -0.0492
     49 C          -4.0852  -10.7094   -0.3357 C.ar    1  LIG1        0.0232
     50 C          -2.2287  -12.8278   -0.4859 C.ar    1  LIG1        0.0013
     51 H          -3.6224  -13.8818    0.7350 H       1  LIG1        0.0627
     52 C          -2.8917  -10.5672   -1.0402 C.ar    1  LIG1       -0.0348
     53 C          -1.9592  -11.6019   -1.1269 C.ar    1  LIG1        0.0332
     54 H          -2.6831   -9.6313   -1.5459 H       1  LIG1        0.0637
     55 C          -5.5634  -12.0934    1.2115 C.3     1  LIG1       -0.0390
     56 H          -5.5272  -13.0554    1.7259 H       1  LIG1        0.0278
     57 H          -6.5009  -12.0359    0.6520 H       1  LIG1        0.0278
     58 H          -5.6083  -11.3043    1.9681 H       1  LIG1        0.0278
     59 C          -0.7775  -11.3812   -1.9082 C.1     1  LIG1       -0.0690
     60 C           0.1937  -11.1490   -2.5808 C.1     1  LIG1       -0.1139
     61 H           1.0571  -10.9547   -3.1740 H       1  LIG1        0.1232
     62 C          -1.6644  -15.2576   -0.8554 C.ar    1  LIG1        0.1252
     63 C          -0.7561  -16.3096   -0.8577 C.ar    1  LIG1       -0.0089
     64 C          -1.2669  -13.9576   -0.5106 C.ar    1  LIG1        0.0248
     65 C           0.5840  -16.1030   -0.5108 C.ar    1  LIG1        0.0226
     66 H          -1.1076  -17.3128   -1.0823 H       1  LIG1        0.0661
     67 C           0.0715  -13.7740   -0.1545 C.ar    1  LIG1       -0.0498
     68 C           0.9859  -14.8125   -0.1473 C.ar    1  LIG1       -0.0502
     69 H           0.3981  -12.7788    0.1246 H       1  LIG1        0.0625
     70 O          -2.9712  -15.4626   -1.1875 O.3     1  LIG1       -0.5061
     71 H          -3.0958  -16.3942   -1.4032 H       1  LIG1        0.2922
     72 H           2.0166  -14.6326    0.1325 H       1  LIG1        0.0625
     73 C           1.5268  -17.2042   -0.5195 C.ar    1  LIG1        0.1566
     74 C           1.5449  -18.4315   -1.1244 C.ar    1  LIG1        0.0746
     75 C           2.7564  -19.0901   -0.7290 C.ar    1  LIG1        0.0181
     76 C           3.4159  -18.1969    0.0690 C.ar    1  LIG1        0.1583
     77 O           2.6890  -17.0528    0.1997 O.2     1  LIG1       -0.4511
     78 N           0.5654  -18.9951   -1.9464 N.pl3   1  LIG1       -0.3548
     79 H           0.1263  -18.3220   -2.5618 H       1  LIG1        0.1424
     80 H           0.9136  -19.7795   -2.4818 H       1  LIG1        0.1424
     81 C           3.1229  -20.4961   -1.0817 C.3     1  LIG1       -0.0343
     82 H           4.1150  -20.7574   -0.7118 H       1  LIG1        0.0279
     83 H           3.1238  -20.6511   -2.1681 H       1  LIG1        0.0279
     84 H           2.4040  -21.2046   -0.6564 H       1  LIG1        0.0279
     85 C           4.6563  -18.2139    0.8095 C.ar    1  LIG1        0.1046
     86 C           5.8748  -18.8300    0.5991 C.ar    1  LIG1        0.0688
     87 C           6.7323  -18.4587    1.6820 C.ar    1  LIG1        0.0633
     88 C           6.0084  -17.6152    2.5049 C.ar    1  LIG1        0.0195
     89 N           4.7751  -17.4699    1.9732 N.ar    1  LIG1       -0.3556
     90 H           4.0297  -16.9008    2.3389 H       1  LIG1        0.1655
     91 H           6.3049  -17.1190    3.4155 H       1  LIG1        0.0820
     92 N           6.2399  -19.6776   -0.4506 N.pl3   1  LIG1       -0.3553
     93 H           5.9228  -19.3495   -1.3546 H       1  LIG1        0.1424
     94 H           7.2401  -19.8378   -0.4650 H       1  LIG1        0.1424
     95 C           8.0814  -18.8744    1.8284 C.1     1  LIG1       -0.0663
     96 C           9.2248  -19.2493    1.9032 C.1     1  LIG1       -0.1138
     97 H          10.2351  -19.5753    1.9922 H       1  LIG1        0.1232
@<TRIPOS>BOND
     1    61    60    1
     2    60    59    3
     3    79    78    1
     4    80    78    1
     5    10     8    1
     6    11     8    1
     7    83    81    1
     8    78    74    1
     9    59    53    1
    10     7     1    1
    11     8     2    1
    12     8     9    1
    13    54    52    1
    14    46    44    1
    15    71    70    1
    16    45    44    1
    17     1     2   ar
    18     1     5   ar
    19    93    92    1
    20    32    33    3
    21     2     3   ar
    22    70    62    1
    23    53    52   ar
    24    53    50   ar
    25    74    75   ar
    26    74    73   ar
    27    66    63    1
    28    81    75    1
    29    81    82    1
    30    81    84    1
    31    42    43    3
    32    52    49   ar
    33    20    19    1
    34    44    39    1
    35    63    62   ar
    36    63    65   ar
    37    62    64   ar
    38     5     6    1
    39     5     4   ar
    40    33    25    1
    41    43    38    1
    42    75    76   ar
    43     3     4   ar
    44     3    12    1
    45    39    38   ar
    46    39    40   ar
    47    73    65    1
    48    73    77   ar
    49    65    68   ar
    50    64    50    1
    51    64    67   ar
    52    50    48   ar
    53    94    92    1
    54    38    37   ar
    55    92    86    1
    56    30    25   ar
    57    30    29   ar
    58     4    15    1
    59    12    13    3
    60    49    40    1
    61    49    47   ar
    62    40    41   ar
    63    25    26   ar
    64    19    15   ar
    65    19    18   ar
    66    67    68   ar
    67    67    69    1
    68    68    72    1
    69    13    14    1
    70    37    41   ar
    71    37    29    1
    72    76    77   ar
    73    76    85    1
    74    29    28   ar
    75    48    47   ar
    76    48    51    1
    77    15    16   ar
    78    47    55    1
    79    26    18    1
    80    26    27   ar
    81    18    17   ar
    82    86    85   ar
    83    86    87   ar
    84    57    55    1
    85    85    89   ar
    86    28    27   ar
    87    28    34    1
    88    27    31    1
    89    55    56    1
    90    55    58    1
    91    16    17   ar
    92    16    21    1
    93    34    35    3
    94    17    24    1
    95    22    21    1
    96    87    95    1
    97    87    88   ar
    98    95    96    3
    99    96    97    1
   100    89    90    1
   101    89    88   ar
   102    35    36    1
   103    21    23    1
   104    88    91    1
