@<TRIPOS>MOLECULE
mol_data/opt/cam/geoms/mol2/13ie13ie13ie-13ie-.out
 54 57 0 0 0
SMALL
GASTEIGER

@<TRIPOS>ATOM
      1 C           1.1268    0.0165    0.9235 C.ar    1  LIG1        0.0063
      2 C           0.8321    1.1285    0.1845 C.ar    1  LIG1       -0.0171
      3 C          -0.5577    1.0362   -0.1602 C.ar    1  LIG1        0.0542
      4 C          -1.0556   -0.1329    0.3967 C.ar    1  LIG1        0.0790
      5 N          -0.0095   -0.7477    1.0365 N.ar    1  LIG1       -0.3583
      6 H          -0.1145   -1.5457    1.6413 H       1  LIG1        0.1654
      7 H           2.0575   -0.2936    1.3740 H       1  LIG1        0.0810
      8 C           1.7617    2.2263   -0.2190 C.3     1  LIG1       -0.0371
      9 H           1.4162    3.1954    0.1528 H       1  LIG1        0.0278
     10 H           1.8309    2.3089   -1.3078 H       1  LIG1        0.0278
     11 H           2.7672    2.0535    0.1712 H       1  LIG1        0.0278
     12 C          -1.2662    1.9525   -0.9828 C.1     1  LIG1       -0.0672
     13 C          -1.8381    2.7447   -1.6884 C.1     1  LIG1       -0.1138
     14 H          -2.3459    3.4382   -2.3176 H       1  LIG1        0.1232
     15 C          -2.3774   -0.7312    0.3639 C.ar    1  LIG1        0.0687
     16 C          -3.6257   -0.1997    0.5889 C.ar    1  LIG1       -0.0077
     17 C          -4.5602   -1.2748    0.4518 C.ar    1  LIG1        0.0549
     18 C          -3.8485   -2.4350    0.1524 C.ar    1  LIG1        0.0795
     19 N          -2.5290   -2.0860    0.1199 N.ar    1  LIG1       -0.3506
     20 H          -1.7928   -2.6830   -0.2186 H       1  LIG1        0.1660
     21 C          -3.9655    1.2087    0.9488 C.3     1  LIG1       -0.0365
     22 H          -4.7982    1.2350    1.6562 H       1  LIG1        0.0279
     23 H          -4.2571    1.7880    0.0678 H       1  LIG1        0.0279
     24 H          -3.1084    1.7154    1.3959 H       1  LIG1        0.0279
     25 C          -5.9652   -1.1703    0.6288 C.1     1  LIG1       -0.0672
     26 C          -7.1592   -1.0751    0.7824 C.1     1  LIG1       -0.1138
     27 H          -8.2084   -0.9670    0.9346 H       1  LIG1        0.1232
     28 C          -4.3041   -3.7834   -0.0960 C.ar    1  LIG1        0.0687
     29 C          -3.6136   -4.9557   -0.3474 C.ar    1  LIG1       -0.0077
     30 C          -4.5917   -5.9837   -0.5137 C.ar    1  LIG1        0.0549
     31 C          -5.8468   -5.4095   -0.3475 C.ar    1  LIG1        0.0795
     32 N          -5.6479   -4.0804   -0.1088 N.ar    1  LIG1       -0.3506
     33 H          -6.3651   -3.4194    0.1581 H       1  LIG1        0.1660
     34 C          -2.1351   -5.1582   -0.4547 C.3     1  LIG1       -0.0365
     35 H          -1.6087   -4.8452    0.4542 H       1  LIG1        0.0279
     36 H          -1.7012   -4.6172   -1.3049 H       1  LIG1        0.0279
     37 H          -1.9160   -6.2162   -0.6082 H       1  LIG1        0.0279
     38 C          -4.3150   -7.3346   -0.8554 C.1     1  LIG1       -0.0672
     39 C          -4.0465   -8.4716   -1.1514 C.1     1  LIG1       -0.1138
     40 H          -3.8241   -9.4781   -1.4205 H       1  LIG1        0.1232
     41 C          -7.1841   -5.9675   -0.4291 C.ar    1  LIG1        0.0682
     42 C          -7.7349   -7.1123    0.1038 C.ar    1  LIG1       -0.0084
     43 C          -9.1145   -7.1226   -0.2845 C.ar    1  LIG1        0.0455
     44 C          -9.3491   -5.9863   -1.0296 C.ar    1  LIG1        0.0179
     45 N          -8.1855   -5.2877   -1.1006 N.ar    1  LIG1       -0.3581
     46 H          -8.0297   -4.4757   -1.6753 H       1  LIG1        0.1654
     47 H         -10.2549   -5.6405   -1.5023 H       1  LIG1        0.0819
     48 C          -7.0656   -8.1362    0.9603 C.3     1  LIG1       -0.0365
     49 H          -6.1978   -7.7155    1.4722 H       1  LIG1        0.0279
     50 H          -6.7102   -8.9852    0.3689 H       1  LIG1        0.0279
     51 H          -7.7630   -8.5214    1.7081 H       1  LIG1        0.0279
     52 C         -10.0748   -8.1128    0.0615 C.1     1  LIG1       -0.0679
     53 C         -10.8754   -8.9598    0.3664 C.1     1  LIG1       -0.1139
     54 H         -11.5866   -9.7073    0.6308 H       1  LIG1        0.1232
@<TRIPOS>BOND
     1    14    13    1
     2    13    12    3
     3    46    45    1
     4    47    44    1
     5    40    39    1
     6    10     8    1
     7    36    34    1
     8    39    38    3
     9    45    44   ar
    10    45    41   ar
    11    44    43   ar
    12    12     3    1
    13    38    30    1
    14    37    34    1
    15    30    31   ar
    16    30    29   ar
    17    34    29    1
    18    34    35    1
    19    41    31    1
    20    41    42   ar
    21    31    32   ar
    22    29    28   ar
    23    43    52    1
    24    43    42   ar
    25     8     9    1
    26     8    11    1
    27     8     2    1
    28    20    19    1
    29     3     2   ar
    30     3     4   ar
    31    32    28   ar
    32    32    33    1
    33    28    18    1
    34    52    53    3
    35    23    21    1
    36    42    48    1
    37    19    18   ar
    38    19    15   ar
    39    18    17   ar
    40     2     1   ar
    41    15     4    1
    42    15    16   ar
    43    53    54    1
    44    50    48    1
    45     4     5   ar
    46    17    16   ar
    47    17    25    1
    48    16    21    1
    49    25    26    3
    50    26    27    1
    51     1     5   ar
    52     1     7    1
    53    21    24    1
    54    21    22    1
    55    48    49    1
    56    48    51    1
    57     5     6    1
