@<TRIPOS>MOLECULE
mol_data/opt/cam/geoms/mol2/13ie13ie-4ie13ie.out
 56 59 0 0 0
SMALL
GASTEIGER

@<TRIPOS>ATOM
      1 C           1.3754   -0.4605   -0.1995 C.ar    1  LIG1        0.0063
      2 C           0.9923    0.7574   -0.6863 C.ar    1  LIG1       -0.0171
      3 C          -0.4399    0.7859   -0.6286 C.ar    1  LIG1        0.0542
      4 C          -0.8717   -0.4301   -0.1017 C.ar    1  LIG1        0.0790
      5 N           0.2498   -1.1681    0.1487 N.ar    1  LIG1       -0.3583
      6 H           0.2437   -2.0933    0.5420 H       1  LIG1        0.1654
      7 H           2.3609   -0.8819   -0.0729 H       1  LIG1        0.0810
      8 C           1.8711    1.8566   -1.1872 C.3     1  LIG1       -0.0371
      9 H           1.7311    2.7742   -0.6078 H       1  LIG1        0.0278
     10 H           1.6495    2.0999   -2.2308 H       1  LIG1        0.0278
     11 H           2.9247    1.5760   -1.1235 H       1  LIG1        0.0278
     12 C          -1.2594    1.8660   -1.0481 C.1     1  LIG1       -0.0672
     13 C          -1.9481    2.7896   -1.4117 C.1     1  LIG1       -0.1138
     14 H          -2.5319    3.6126   -1.7545 H       1  LIG1        0.1232
     15 C          -2.2052   -0.9188    0.1717 C.ar    1  LIG1        0.0687
     16 C          -2.6610   -2.1291    0.6639 C.ar    1  LIG1       -0.0077
     17 C          -4.0844   -2.0392    0.7174 C.ar    1  LIG1        0.0534
     18 C          -4.4544   -0.7760    0.2627 C.ar    1  LIG1        0.0631
     19 N          -3.3020   -0.1228   -0.0543 N.ar    1  LIG1       -0.3518
     20 H          -3.2423    0.7912   -0.4800 H       1  LIG1        0.1660
     21 C          -1.8615   -3.3230    1.0815 C.3     1  LIG1       -0.0365
     22 H          -1.1944   -3.1021    1.9235 H       1  LIG1        0.0279
     23 H          -1.2555   -3.7228    0.2598 H       1  LIG1        0.0279
     24 H          -2.5300   -4.1224    1.4057 H       1  LIG1        0.0279
     25 C          -4.9523   -3.0618    1.1871 C.1     1  LIG1       -0.0673
     26 C          -5.6635   -3.9490    1.5870 C.1     1  LIG1       -0.1138
     27 H          -6.3050   -4.7209    1.9441 H       1  LIG1        0.1232
     28 C          -6.0824    1.1490    0.4631 C.ar    1  LIG1       -0.0406
     29 C          -7.3718    1.6237    0.2505 C.ar    1  LIG1       -0.0479
     30 C          -5.7846   -0.1774    0.0941 C.ar    1  LIG1        0.0036
     31 C          -8.4057    0.8510   -0.2849 C.ar    1  LIG1        0.0142
     32 H          -7.5823    2.6546    0.5069 H       1  LIG1        0.0627
     33 C          -6.7996   -0.9608   -0.4506 C.ar    1  LIG1       -0.0363
     34 C          -8.0957   -0.4804   -0.6411 C.ar    1  LIG1        0.0344
     35 H          -6.5819   -1.9832   -0.7336 H       1  LIG1        0.0637
     36 C          -5.0665    2.0653    1.0966 C.3     1  LIG1       -0.0391
     37 H          -5.5668    2.8892    1.6089 H       1  LIG1        0.0278
     38 H          -4.3868    2.5118    0.3621 H       1  LIG1        0.0278
     39 H          -4.4480    1.5351    1.8241 H       1  LIG1        0.0278
     40 C          -9.0567   -1.3882   -1.1971 C.1     1  LIG1       -0.0690
     41 C          -9.8264   -2.1796   -1.6812 C.1     1  LIG1       -0.1139
     42 H         -10.5103   -2.8928   -2.0806 H       1  LIG1        0.1232
     43 C          -9.7342    1.4489   -0.4492 C.ar    1  LIG1        0.0518
     44 C         -10.3764    2.4343    0.2831 C.ar    1  LIG1       -0.0098
     45 C         -11.6461    2.6506   -0.3378 C.ar    1  LIG1        0.0454
     46 C         -11.7316    1.7941   -1.4171 C.ar    1  LIG1        0.0179
     47 N         -10.5820    1.0824   -1.4743 N.ar    1  LIG1       -0.3593
     48 H         -10.3930    0.3265   -2.1133 H       1  LIG1        0.1654
     49 H         -12.5297    1.6512   -2.1286 H       1  LIG1        0.0819
     50 C          -9.9165    3.1422    1.5186 C.3     1  LIG1       -0.0365
     51 H         -10.7808    3.4647    2.1035 H       1  LIG1        0.0279
     52 H          -9.3349    4.0426    1.2894 H       1  LIG1        0.0279
     53 H          -9.2971    2.4991    2.1480 H       1  LIG1        0.0279
     54 C         -12.6449    3.5677    0.0899 C.1     1  LIG1       -0.0679
     55 C         -13.4812    4.3485    0.4678 C.1     1  LIG1       -0.1139
     56 H         -14.2251    5.0368    0.7954 H       1  LIG1        0.1232
@<TRIPOS>BOND
     1    10     8    1
     2    49    46    1
     3    48    47    1
     4    42    41    1
     5    14    13    1
     6    41    40    3
     7    47    46   ar
     8    47    43   ar
     9    46    45   ar
    10    13    12    3
    11    40    34    1
    12     8    11    1
    13     8     2    1
    14     8     9    1
    15    12     3    1
    16    35    33    1
    17     2     3   ar
    18     2     1   ar
    19    34    33   ar
    20    34    31   ar
    21     3     4   ar
    22    20    19    1
    23    33    30   ar
    24    43    31    1
    25    43    44   ar
    26    45    54    1
    27    45    44   ar
    28    31    29   ar
    29     1     7    1
    30     1     5   ar
    31     4     5   ar
    32     4    15    1
    33    19    15   ar
    34    19    18   ar
    35    54    55    3
    36    30    18    1
    37    30    28   ar
    38     5     6    1
    39    15    16   ar
    40    29    28   ar
    41    29    32    1
    42    23    21    1
    43    18    17   ar
    44    44    50    1
    45    38    36    1
    46    28    36    1
    47    55    56    1
    48    16    17   ar
    49    16    21    1
    50    17    25    1
    51    21    24    1
    52    21    22    1
    53    36    37    1
    54    36    39    1
    55    25    26    3
    56    52    50    1
    57    50    51    1
    58    50    53    1
    59    26    27    1
