@<TRIPOS>MOLECULE
mol_data/opt/cam/geoms/mol2/13ie13ie-13ie.out
 41 43 0 0 0
SMALL
GASTEIGER

@<TRIPOS>ATOM
      1 C           1.2597   -0.3411   -0.0195 C.ar    1  LIG1        0.0063
      2 C           0.8723    0.9690   -0.0156 C.ar    1  LIG1       -0.0171
      3 C          -0.5613    0.9693   -0.0069 C.ar    1  LIG1        0.0542
      4 C          -0.9910   -0.3562   -0.0058 C.ar    1  LIG1        0.0790
      5 N           0.1353   -1.1307   -0.0134 N.ar    1  LIG1       -0.3583
      6 H           0.1334   -2.1356   -0.0160 H       1  LIG1        0.1654
      7 H           2.2473   -0.7764   -0.0260 H       1  LIG1        0.0810
      8 C           1.7474    2.1795   -0.0195 C.3     1  LIG1       -0.0371
      9 H           1.5691    2.8026    0.8621 H       1  LIG1        0.0278
     10 H           1.5579    2.8051   -0.8969 H       1  LIG1        0.0278
     11 H           2.8033    1.9000   -0.0266 H       1  LIG1        0.0278
     12 C          -1.3763    2.1309   -0.0004 C.1     1  LIG1       -0.0672
     13 C          -2.0447    3.1364    0.0049 C.1     1  LIG1       -0.1138
     14 H          -2.6222    4.0318    0.0096 H       1  LIG1        0.1232
     15 C          -2.3209   -0.9254    0.0013 C.ar    1  LIG1        0.0687
     16 C          -2.7482   -2.2393    0.0083 C.ar    1  LIG1       -0.0077
     17 C          -4.1751   -2.2069    0.0128 C.ar    1  LIG1        0.0549
     18 C          -4.5778   -0.8705    0.0085 C.ar    1  LIG1        0.0795
     19 N          -3.4408   -0.1211    0.0015 N.ar    1  LIG1       -0.3506
     20 H          -3.3988    0.8882   -0.0012 H       1  LIG1        0.1660
     21 C          -1.9251   -3.4889    0.0113 C.3     1  LIG1       -0.0365
     22 H          -1.2795   -3.5573    0.8949 H       1  LIG1        0.0279
     23 H          -1.2949   -3.5721   -0.8822 H       1  LIG1        0.0279
     24 H          -2.5757   -4.3651    0.0240 H       1  LIG1        0.0279
     25 C          -5.0177   -3.3492    0.0204 C.1     1  LIG1       -0.0672
     26 C          -5.7232   -4.3295    0.0272 C.1     1  LIG1       -0.1138
     27 H          -6.3309   -5.2049    0.0327 H       1  LIG1        0.1232
     28 C          -5.9051   -0.2943    0.0103 C.ar    1  LIG1        0.0682
     29 C          -6.3416    1.0196    0.0024 C.ar    1  LIG1       -0.0084
     30 C          -7.7701    0.9769    0.0091 C.ar    1  LIG1        0.0455
     31 C          -8.1464   -0.3520    0.0207 C.ar    1  LIG1        0.0179
     32 N          -7.0202   -1.1039    0.0214 N.ar    1  LIG1       -0.3581
     33 H          -6.9757   -2.1128    0.0280 H       1  LIG1        0.1654
     34 H          -9.1299   -0.7945    0.0283 H       1  LIG1        0.0819
     35 C          -5.5223    2.2707   -0.0107 C.3     1  LIG1       -0.0365
     36 H          -6.1800    3.1420   -0.0186 H       1  LIG1        0.0279
     37 H          -4.8818    2.3371   -0.8970 H       1  LIG1        0.0279
     38 H          -4.8803    2.3544    0.8731 H       1  LIG1        0.0279
     39 C          -8.6432    2.0990    0.0045 C.1     1  LIG1       -0.0679
     40 C          -9.3679    3.0617    0.0004 C.1     1  LIG1       -0.1139
     41 H         -10.0169    3.9063   -0.0032 H       1  LIG1        0.1232
@<TRIPOS>BOND
     1    37    35    1
     2    10     8    1
     3    23    21    1
     4    11     8    1
     5     7     1    1
     6     1     2   ar
     7     1     5   ar
     8     8     2    1
     9     8     9    1
    10    36    35    1
    11     6     5    1
    12     2     3   ar
    13     5     4   ar
    14    35    29    1
    15    35    38    1
    16     3     4   ar
    17     3    12    1
    18     4    15    1
    19    41    40    1
    20    20    19    1
    21    12    13    3
    22    40    39    3
    23    15    19   ar
    24    15    16   ar
    25    19    18   ar
    26    29    30   ar
    27    29    28   ar
    28    39    30    1
    29    13    14    1
    30    16    21    1
    31    16    17   ar
    32    18    28    1
    33    18    17   ar
    34    30    31   ar
    35    28    32   ar
    36    21    24    1
    37    21    22    1
    38    17    25    1
    39    25    26    3
    40    31    32   ar
    41    31    34    1
    42    32    33    1
    43    26    27    1
