@<TRIPOS>MOLECULE
mol_data/opt/cam/geoms/mol2/13ie13ie13ie13ie-.out
 54 57 0 0 0
SMALL
GASTEIGER

@<TRIPOS>ATOM
      1 C           0.3826    0.4679    2.2083 C.ar    1  LIG1        0.0063
      2 C           0.6213    1.1517    1.0485 C.ar    1  LIG1       -0.0171
      3 C          -0.4663    0.8496    0.1628 C.ar    1  LIG1        0.0542
      4 C          -1.3313   -0.0054    0.8291 C.ar    1  LIG1        0.0790
      5 N          -0.7868   -0.2397    2.0665 N.ar    1  LIG1       -0.3583
      6 H          -1.2725   -0.7098    2.8127 H       1  LIG1        0.1654
      7 H           0.9555    0.4258    3.1223 H       1  LIG1        0.0810
      8 C           1.7884    2.0290    0.7320 C.3     1  LIG1       -0.0371
      9 H           1.4653    3.0439    0.4821 H       1  LIG1        0.0278
     10 H           2.3479    1.6516   -0.1292 H       1  LIG1        0.0278
     11 H           2.4748    2.0919    1.5794 H       1  LIG1        0.0278
     12 C          -0.5915    1.3028   -1.1780 C.1     1  LIG1       -0.0672
     13 C          -0.6685    1.6986   -2.3136 C.1     1  LIG1       -0.1138
     14 H          -0.7395    2.0411   -3.3198 H       1  LIG1        0.1232
     15 C          -2.5741   -0.6334    0.4140 C.ar    1  LIG1        0.0687
     16 C          -3.7106   -0.1113   -0.1621 C.ar    1  LIG1       -0.0077
     17 C          -4.6305   -1.1962   -0.3223 C.ar    1  LIG1        0.0549
     18 C          -4.0314   -2.3460    0.1748 C.ar    1  LIG1        0.0795
     19 N          -2.7863   -1.9846    0.6138 N.ar    1  LIG1       -0.3506
     20 H          -2.1184   -2.6170    1.0241 H       1  LIG1        0.1660
     21 C          -3.9634    1.3089   -0.5467 C.3     1  LIG1       -0.0365
     22 H          -5.0069    1.5760   -0.3627 H       1  LIG1        0.0279
     23 H          -3.7596    1.4781   -1.6082 H       1  LIG1        0.0279
     24 H          -3.3203    1.9882    0.0162 H       1  LIG1        0.0279
     25 C          -5.9156   -1.1064   -0.9218 C.1     1  LIG1       -0.0672
     26 C          -6.9998   -1.0012   -1.4372 C.1     1  LIG1       -0.1138
     27 H          -7.9542   -0.9152   -1.9024 H       1  LIG1        0.1232
     28 C          -4.4897   -3.7213    0.2462 C.ar    1  LIG1        0.0687
     29 C          -5.6689   -4.2680    0.6940 C.ar    1  LIG1       -0.0077
     30 C          -5.5406   -5.6874    0.5600 C.ar    1  LIG1        0.0549
     31 C          -4.2789   -5.9630    0.0378 C.ar    1  LIG1        0.0795
     32 N          -3.6532   -4.7609   -0.1282 N.ar    1  LIG1       -0.3506
     33 H          -2.7978   -4.6375   -0.6443 H       1  LIG1        0.1660
     34 C          -6.8519   -3.5509    1.2550 C.3     1  LIG1       -0.0365
     35 H          -7.2858   -4.1136    2.0855 H       1  LIG1        0.0279
     36 H          -7.6323   -3.4164    0.5004 H       1  LIG1        0.0279
     37 H          -6.5747   -2.5569    1.6102 H       1  LIG1        0.0279
     38 C          -6.5279   -6.6397    0.9266 C.1     1  LIG1       -0.0672
     39 C          -7.3726   -7.4442    1.2383 C.1     1  LIG1       -0.1138
     40 H          -8.1326   -8.1343    1.5244 H       1  LIG1        0.1232
     41 C          -3.6501   -7.2193   -0.3043 C.ar    1  LIG1        0.0682
     42 C          -2.3779   -7.5136   -0.7649 C.ar    1  LIG1       -0.0084
     43 C          -2.3208   -8.9322   -0.9304 C.ar    1  LIG1        0.0455
     44 C          -3.5514   -9.4426   -0.5662 C.ar    1  LIG1        0.0179
     45 N          -4.3398   -8.4058   -0.1941 N.ar    1  LIG1       -0.3581
     46 H          -5.2928   -8.4652    0.1360 H       1  LIG1        0.1654
     47 H          -3.9020  -10.4624   -0.5505 H       1  LIG1        0.0819
     48 C          -1.2491   -6.5728   -1.0473 C.3     1  LIG1       -0.0365
     49 H          -1.0035   -5.9496   -0.1800 H       1  LIG1        0.0279
     50 H          -1.4603   -5.9097   -1.8957 H       1  LIG1        0.0279
     51 H          -0.3517   -7.1379   -1.3053 H       1  LIG1        0.0279
     52 C          -1.1986   -9.6787   -1.3830 C.1     1  LIG1       -0.0679
     53 C          -0.2360  -10.2931   -1.7673 C.1     1  LIG1       -0.1139
     54 H           0.6086  -10.8459   -2.1076 H       1  LIG1        0.1232
@<TRIPOS>BOND
     1    14    13    1
     2    13    12    3
     3    54    53    1
     4    27    26    1
     5    50    48    1
     6    53    52    3
     7    23    21    1
     8    26    25    3
     9    52    43    1
    10    51    48    1
    11    12     3    1
    12    48    42    1
    13    48    49    1
    14    43    42   ar
    15    43    44   ar
    16    25    17    1
    17    42    41   ar
    18    33    32    1
    19    44    47    1
    20    44    45   ar
    21    21    22    1
    22    21    16    1
    23    21    24    1
    24    17    16   ar
    25    17    18   ar
    26    41    45   ar
    27    41    31    1
    28    45    46    1
    29    16    15   ar
    30    10     8    1
    31    32    31   ar
    32    32    28   ar
    33    31    30   ar
    34     3     4   ar
    35     3     2   ar
    36    18    28    1
    37    18    19   ar
    38    28    29   ar
    39    15    19   ar
    40    15     4    1
    41     9     8    1
    42    36    34    1
    43    30    29   ar
    44    30    38    1
    45    19    20    1
    46    29    34    1
    47     8     2    1
    48     8    11    1
    49     4     5   ar
    50    38    39    3
    51     2     1   ar
    52    39    40    1
    53    34    37    1
    54    34    35    1
    55     5     1   ar
    56     5     6    1
    57     1     7    1
