@<TRIPOS>MOLECULE
mol_data/opt/cam/geoms/mol2/13ie6if-4dd4il.out
 57 60 0 0 0
SMALL
GASTEIGER

@<TRIPOS>ATOM
      1 C           1.2788    0.0004   -0.9142 C.ar    1  LIG1        0.0063
      2 C           0.9933    1.0811   -0.1244 C.ar    1  LIG1       -0.0172
      3 C          -0.3801    0.9530    0.2586 C.ar    1  LIG1        0.0528
      4 C          -0.8778   -0.2136   -0.3131 C.ar    1  LIG1        0.0641
      5 N           0.1545   -0.7763   -1.0136 N.ar    1  LIG1       -0.3594
      6 H           0.0695   -1.5980   -1.5872 H       1  LIG1        0.1654
      7 H           2.1960   -0.2768   -1.4115 H       1  LIG1        0.0810
      8 C           1.9168    2.1834    0.2806 C.3     1  LIG1       -0.0371
      9 H           2.0403    2.2203    1.3671 H       1  LIG1        0.0278
     10 H           1.5303    3.1585   -0.0299 H       1  LIG1        0.0278
     11 H           2.9045    2.0528   -0.1669 H       1  LIG1        0.0278
     12 C          -1.0764    1.8596    1.1029 C.1     1  LIG1       -0.0673
     13 C          -1.6385    2.6503    1.8179 C.1     1  LIG1       -0.1138
     14 H          -2.1406    3.3427    2.4531 H       1  LIG1        0.1232
     15 C          -2.4682   -2.1849   -0.1695 C.ar    1  LIG1        0.0483
     16 C          -2.2233   -0.7948   -0.2641 C.ar    1  LIG1        0.0240
     17 C          -3.3234    0.0538   -0.2816 C.ar    1  LIG1       -0.0072
     18 C          -4.6119   -0.4623   -0.2390 C.ar    1  LIG1        0.1434
     19 C          -4.7635   -1.8517   -0.2150 C.ar    1  LIG1        0.1138
     20 N          -3.7053   -2.6647   -0.1475 N.ar    1  LIG1       -0.2475
     21 H          -3.1964    1.1285   -0.3168 H       1  LIG1        0.0662
     22 C          -1.3749   -3.2163   -0.0584 C.3     1  LIG1       -0.0217
     23 H          -0.5384   -2.8646    0.5485 H       1  LIG1        0.0293
     24 H          -0.9824   -3.5056   -1.0409 H       1  LIG1        0.0293
     25 H          -1.7933   -4.1175    0.3895 H       1  LIG1        0.0293
     26 O          -5.6322    0.4281   -0.2065 O.3     1  LIG1       -0.5046
     27 H          -6.4777   -0.0265   -0.1152 H       1  LIG1        0.2922
     28 C          -7.1130   -2.2965   -1.1101 C.ar    1  LIG1        0.0617
     29 C          -8.3345   -2.9712   -1.0174 C.ar    1  LIG1       -0.0347
     30 C          -6.0901   -2.5245   -0.1721 C.ar    1  LIG1        0.0225
     31 C          -8.5798   -3.8978   -0.0133 C.ar    1  LIG1        0.0011
     32 H          -9.0954   -2.7861   -1.7667 H       1  LIG1        0.0637
     33 C          -6.3274   -3.4718    0.8196 C.ar    1  LIG1       -0.0332
     34 C          -7.5441   -4.1454    0.9067 C.ar    1  LIG1        0.0602
     35 H          -5.5399   -3.6861    1.5317 H       1  LIG1        0.0637
     36 N          -6.7983   -0.7217   -3.1467 N.1     1  LIG1       -0.1908
     37 C          -6.9193   -1.4174   -2.2310 C.1     1  LIG1        0.0998
     38 N          -7.8297   -5.8304    2.8575 N.1     1  LIG1       -0.1908
     39 C          -7.7227   -5.0876    1.9780 C.1     1  LIG1        0.0998
     40 C         -11.0754   -3.9393    0.3538 C.ar    1  LIG1       -0.0425
     41 C         -12.2483   -4.6837    0.3771 C.ar    1  LIG1       -0.0548
     42 C          -9.8816   -4.6199    0.0479 C.ar    1  LIG1       -0.0103
     43 C         -12.2746   -6.0491    0.1082 C.ar    1  LIG1       -0.0197
     44 H         -13.1809   -4.1834    0.6208 H       1  LIG1        0.0622
     45 C          -9.8935   -5.9833   -0.2128 C.ar    1  LIG1       -0.0120
     46 C         -11.0859   -6.7066   -0.1879 C.ar    1  LIG1        0.1207
     47 H          -8.9773   -6.5144   -0.4458 H       1  LIG1        0.0660
     48 H         -13.2171   -6.5804    0.1402 H       1  LIG1        0.0654
     49 C         -11.1017   -2.4662    0.6742 C.3     1  LIG1       -0.0391
     50 H         -12.0752   -2.1810    1.0777 H       1  LIG1        0.0278
     51 H         -10.9206   -1.8450   -0.2087 H       1  LIG1        0.0278
     52 H         -10.3432   -2.1993    1.4155 H       1  LIG1        0.0278
     53 O         -10.9783   -8.0303   -0.4668 O.3     1  LIG1       -0.4951
     54 C         -12.1510   -8.8150   -0.4253 C.3     1  LIG1        0.0788
     55 H         -11.8434   -9.8334   -0.6607 H       1  LIG1        0.0660
     56 H         -12.6112   -8.7989    0.5694 H       1  LIG1        0.0660
     57 H         -12.8867   -8.4813   -1.1665 H       1  LIG1        0.0660
@<TRIPOS>BOND
     1    36    37    3
     2    37    28    1
     3    32    29    1
     4     6     5    1
     5     7     1    1
     6    57    54    1
     7    28    29   ar
     8    28    30   ar
     9    24    22    1
    10    29    31   ar
    11     5     1   ar
    12     5     4   ar
    13     1     2   ar
    14    55    54    1
    15    53    54    1
    16    53    46    1
    17    47    45    1
    18    54    56    1
    19    21    17    1
    20     4    16    1
    21     4     3   ar
    22    17    16   ar
    23    17    18   ar
    24    16    15   ar
    25    18    19   ar
    26    18    26    1
    27    19    30    1
    28    19    20   ar
    29    45    46   ar
    30    45    42   ar
    31    51    49    1
    32    26    27    1
    33    46    43   ar
    34    30    33   ar
    35    15    20   ar
    36    15    22    1
    37    11     8    1
    38     2     3   ar
    39     2     8    1
    40    22    25    1
    41    22    23    1
    42    10     8    1
    43    31    42    1
    44    31    34   ar
    45    42    40   ar
    46    43    48    1
    47    43    41   ar
    48     3    12    1
    49     8     9    1
    50    40    41   ar
    51    40    49    1
    52    41    44    1
    53    49    50    1
    54    49    52    1
    55    33    34   ar
    56    33    35    1
    57    34    39    1
    58    12    13    3
    59    13    14    1
    60    39    38    3
