@<TRIPOS>MOLECULE
mol_data/opt/cam/geoms/mol2/13ie13ie13ie.out
 41 43 0 0 0
SMALL
GASTEIGER

@<TRIPOS>ATOM
      1 C           0.8919   -0.1328    1.3553 C.ar    1  LIG1        0.0063
      2 C           0.8243    0.9269    0.4937 C.ar    1  LIG1       -0.0171
      3 C          -0.4826    0.8923   -0.0974 C.ar    1  LIG1        0.0542
      4 C          -1.1631   -0.1899    0.4398 C.ar    1  LIG1        0.0790
      5 N          -0.3022   -0.8113    1.3090 N.ar    1  LIG1       -0.3583
      6 H          -0.5788   -1.5402    1.9461 H       1  LIG1        0.1654
      7 H           1.6974   -0.4593    1.9956 H       1  LIG1        0.0810
      8 C           1.8937    1.9261    0.1931 C.3     1  LIG1       -0.0371
      9 H           1.5630    2.9427    0.4254 H       1  LIG1        0.0278
     10 H           2.1635    1.9133   -0.8672 H       1  LIG1        0.0278
     11 H           2.7963    1.7233    0.7739 H       1  LIG1        0.0278
     12 C          -0.9609    1.7792   -1.0995 C.1     1  LIG1       -0.0672
     13 C          -1.3373    2.5432   -1.9520 C.1     1  LIG1       -0.1138
     14 H          -1.6749    3.2125   -2.7088 H       1  LIG1        0.1232
     15 C          -2.5017   -0.7019    0.1993 C.ar    1  LIG1        0.0687
     16 C          -3.7286   -0.0766    0.1923 C.ar    1  LIG1       -0.0077
     17 C          -4.7072   -1.0871   -0.0727 C.ar    1  LIG1        0.0549
     18 C          -4.0480   -2.3012   -0.2069 C.ar    1  LIG1        0.0795
     19 N          -2.7137   -2.0467   -0.0402 N.ar    1  LIG1       -0.3506
     20 H          -1.9890   -2.7445   -0.0850 H       1  LIG1        0.1660
     21 C          -4.0117    1.3709    0.4242 C.3     1  LIG1       -0.0365
     22 H          -4.9524    1.4950    0.9660 H       1  LIG1        0.0279
     23 H          -4.0969    1.9181   -0.5193 H       1  LIG1        0.0279
     24 H          -3.2096    1.8409    0.9968 H       1  LIG1        0.0279
     25 C          -6.1055   -0.8698   -0.2046 C.1     1  LIG1       -0.0672
     26 C          -7.2867   -0.6575   -0.3127 C.1     1  LIG1       -0.1138
     27 H          -8.3306   -0.4743   -0.4192 H       1  LIG1        0.1232
     28 C          -4.5367   -3.6382   -0.4985 C.ar    1  LIG1        0.0682
     29 C          -5.5449   -4.3834    0.0702 C.ar    1  LIG1       -0.0084
     30 C          -5.5527   -5.6482   -0.6049 C.ar    1  LIG1        0.0455
     31 C          -4.5510   -5.6238   -1.5516 C.ar    1  LIG1        0.0179
     32 N          -3.9308   -4.4160   -1.4715 N.ar    1  LIG1       -0.3581
     33 H          -3.2623   -4.0654   -2.1379 H       1  LIG1        0.1654
     34 H          -4.2480   -6.3775   -2.2614 H       1  LIG1        0.0819
     35 C          -6.4453   -3.9881    1.1940 C.3     1  LIG1       -0.0365
     36 H          -6.6557   -4.8460    1.8373 H       1  LIG1        0.0279
     37 H          -7.4019   -3.6073    0.8243 H       1  LIG1        0.0279
     38 H          -5.9967   -3.1962    1.7973 H       1  LIG1        0.0279
     39 C          -6.4197   -6.7410   -0.3278 C.1     1  LIG1       -0.0679
     40 C          -7.1605   -7.6574   -0.0773 C.1     1  LIG1       -0.1139
     41 H          -7.8161   -8.4691    0.1369 H       1  LIG1        0.1232
@<TRIPOS>BOND
     1    14    13    1
     2    34    31    1
     3    33    32    1
     4    13    12    3
     5    31    32   ar
     6    31    30   ar
     7    32    28   ar
     8    12     3    1
     9    10     8    1
    10    30    39    1
    11    30    29   ar
    12    23    21    1
    13    28    18    1
    14    28    29   ar
    15    27    26    1
    16    39    40    3
    17    26    25    3
    18    18    17   ar
    19    18    19   ar
    20    25    17    1
    21     3     4   ar
    22     3     2   ar
    23    20    19    1
    24    40    41    1
    25    17    16   ar
    26    19    15   ar
    27    29    35    1
    28    16    15   ar
    29    16    21    1
    30     8     9    1
    31     8     2    1
    32     8    11    1
    33    15     4    1
    34    21    22    1
    35    21    24    1
    36     4     5   ar
    37     2     1   ar
    38    37    35    1
    39    35    38    1
    40    35    36    1
    41     5     1   ar
    42     5     6    1
    43     1     7    1
