@<TRIPOS>MOLECULE
mol_data/opt/cam/geoms/mol2/13ie13ie.out
 28 29 0 0 0
SMALL
GASTEIGER

@<TRIPOS>ATOM
      1 C           1.0796   -0.3014    0.6513 C.ar    1  LIG1        0.0063
      2 C           0.8165    0.9564    0.1844 C.ar    1  LIG1       -0.0171
      3 C          -0.5661    0.9713   -0.1993 C.ar    1  LIG1        0.0542
      4 C          -1.0918   -0.2856    0.0600 C.ar    1  LIG1        0.0790
      5 N          -0.0691   -1.0503    0.5608 N.ar    1  LIG1       -0.3583
      6 H          -0.2006   -1.9633    0.9641 H       1  LIG1        0.1654
      7 H           1.9954   -0.7241    1.0360 H       1  LIG1        0.0810
      8 C           1.7690    2.1014    0.0653 C.3     1  LIG1       -0.0371
      9 H           1.4261    2.9643    0.6438 H       1  LIG1        0.0278
     10 H           1.8657    2.4323   -0.9731 H       1  LIG1        0.0278
     11 H           2.7626    1.8259    0.4259 H       1  LIG1        0.0278
     12 C          -1.2463    2.0669   -0.7957 C.1     1  LIG1       -0.0672
     13 C          -1.7951    3.0113   -1.3048 C.1     1  LIG1       -0.1138
     14 H          -2.2850    3.8399   -1.7610 H       1  LIG1        0.1232
     15 C          -2.4223   -0.8354   -0.1363 C.ar    1  LIG1        0.0682
     16 C          -3.6666   -0.3571    0.2079 C.ar    1  LIG1       -0.0084
     17 C          -4.6173   -1.3451   -0.2109 C.ar    1  LIG1        0.0455
     18 C          -3.9166   -2.3830   -0.7874 C.ar    1  LIG1        0.0179
     19 N          -2.5929   -2.0771   -0.7245 N.ar    1  LIG1       -0.3581
     20 H          -1.8586   -2.5853   -1.1893 H       1  LIG1        0.1654
     21 H          -4.2724   -3.3018   -1.2264 H       1  LIG1        0.0819
     22 C          -3.9876    0.9207    0.9107 C.3     1  LIG1       -0.0365
     23 H          -4.8433    0.7873    1.5770 H       1  LIG1        0.0279
     24 H          -4.2383    1.7152    0.2015 H       1  LIG1        0.0279
     25 H          -3.1356    1.2716    1.4966 H       1  LIG1        0.0279
     26 C          -6.0273   -1.2788   -0.0371 C.1     1  LIG1       -0.0679
     27 C          -7.2194   -1.2068    0.1210 C.1     1  LIG1       -0.1139
     28 H          -8.2743   -1.1464    0.2554 H       1  LIG1        0.1232
@<TRIPOS>BOND
     1    14    13    1
     2    13    12    3
     3    21    18    1
     4    20    19    1
     5    10     8    1
     6    12     3    1
     7    18    19   ar
     8    18    17   ar
     9    19    15   ar
    10    17    26    1
    11    17    16   ar
    12     3     4   ar
    13     3     2   ar
    14    15     4    1
    15    15    16   ar
    16    26    27    3
    17     4     5   ar
    18     8     2    1
    19     8    11    1
    20     8     9    1
    21    27    28    1
    22     2     1   ar
    23    24    22    1
    24    16    22    1
    25     5     1   ar
    26     5     6    1
    27     1     7    1
    28    22    25    1
    29    22    23    1
