@<TRIPOS>MOLECULE
mol_data/opt/cam/geoms/mol2/13ie13ai-13di-13ei-6la-12ae-4fd-4ei-.out
 100 107 0 0 0
SMALL
GASTEIGER

@<TRIPOS>ATOM
      1 C           1.9958   -1.5627   -1.0148 C.ar    1  LIG1        0.0063
      2 C           1.8866   -0.1988   -0.9912 C.ar    1  LIG1       -0.0171
      3 C           0.5707    0.1052   -0.5090 C.ar    1  LIG1        0.0542
      4 C          -0.0742   -1.0972   -0.2561 C.ar    1  LIG1        0.0787
      5 N           0.8037   -2.0979   -0.5875 N.ar    1  LIG1       -0.3583
      6 H           0.6573   -3.0691   -0.3694 H       1  LIG1        0.1654
      7 H           2.8320   -2.1943   -1.2819 H       1  LIG1        0.0810
      8 C           2.9225    0.7999   -1.3934 C.3     1  LIG1       -0.0371
      9 H           3.1407    1.4948   -0.5770 H       1  LIG1        0.0278
     10 H           2.5882    1.4019   -2.2441 H       1  LIG1        0.0278
     11 H           3.8537    0.3036   -1.6750 H       1  LIG1        0.0278
     12 C           0.0264    1.4058   -0.3387 C.1     1  LIG1       -0.0672
     13 C          -0.4112    2.5200   -0.1977 C.1     1  LIG1       -0.1138
     14 H          -0.8061    3.5022   -0.0796 H       1  LIG1        0.1232
     15 C          -1.3903   -1.3809    0.2749 C.ar    1  LIG1        0.0648
     16 C          -2.1714   -0.6930    1.1707 C.ar    1  LIG1       -0.0314
     17 C          -3.3642   -1.4338    1.3970 C.ar    1  LIG1       -0.0231
     18 C          -3.2858   -2.5666    0.6116 C.ar    1  LIG1        0.0676
     19 N          -2.0552   -2.5510   -0.0436 N.ar    1  LIG1       -0.3516
     20 H          -1.9222   -2.9998   -0.9386 H       1  LIG1        0.1660
     21 H          -1.8933    0.2314    1.6549 H       1  LIG1        0.0642
     22 C          -4.4364   -1.0745    2.3771 C.3     1  LIG1       -0.0376
     23 H          -4.8497   -1.9625    2.8614 H       1  LIG1        0.0278
     24 H          -5.2728   -0.5589    1.8977 H       1  LIG1        0.0278
     25 H          -4.0364   -0.4189    3.1539 H       1  LIG1        0.0278
     26 C          -4.1251   -3.7395    0.5030 C.ar    1  LIG1        0.0815
     27 C          -5.4965   -3.9665    0.5879 C.ar    1  LIG1        0.0819
     28 C          -5.7440   -5.3688    0.4209 C.ar    1  LIG1       -0.0057
     29 C          -4.5186   -5.9584    0.2119 C.ar    1  LIG1        0.0688
     30 N          -3.5614   -4.9573    0.2692 N.ar    1  LIG1       -0.3506
     31 H          -2.5720   -5.1024    0.1517 H       1  LIG1        0.1660
     32 N          -7.3505   -2.1981    0.8677 N.1     1  LIG1       -0.1908
     33 C          -6.5062   -2.9826    0.7479 C.1     1  LIG1        0.1016
     34 C          -7.0839   -6.0253    0.4896 C.3     1  LIG1       -0.0364
     35 H          -6.9900   -7.0865    0.7228 H       1  LIG1        0.0279
     36 H          -7.6176   -5.9484   -0.4622 H       1  LIG1        0.0279
     37 H          -7.7042   -5.5513    1.2544 H       1  LIG1        0.0279
     38 C          -4.0561   -7.3149   -0.0128 C.ar    1  LIG1        0.0795
     39 C          -4.5265   -8.3971   -0.7529 C.ar    1  LIG1        0.0548
     40 C          -3.5051   -9.3977   -0.7649 C.ar    1  LIG1       -0.0090
     41 C          -2.4336   -8.8936   -0.0389 C.ar    1  LIG1        0.0562
     42 N          -2.8095   -7.6497    0.4130 N.ar    1  LIG1       -0.3517
     43 H          -2.2196   -7.1046    1.0213 H       1  LIG1        0.1660
     44 C          -5.7501   -8.4712   -1.4709 C.1     1  LIG1       -0.0672
     45 C          -6.7743   -8.5615   -2.0998 C.1     1  LIG1       -0.1138
     46 H          -7.6821   -8.6277   -2.6535 H       1  LIG1        0.1232
     47 C          -3.6136  -10.6892   -1.5117 C.3     1  LIG1       -0.0365
     48 H          -3.6882  -11.5523   -0.8411 H       1  LIG1        0.0279
     49 H          -2.7546  -10.8536   -2.1695 H       1  LIG1        0.0279
     50 H          -4.5124  -10.6817   -2.1308 H       1  LIG1        0.0279
     51 C          -0.0037   -8.5293    0.5718 C.ar    1  LIG1        0.2245
     52 C          -1.0693   -9.3739    0.1575 C.ar    1  LIG1        0.0601
     53 C          -0.6776  -10.6819   -0.1328 C.ar    1  LIG1       -0.0454
     54 C           0.6588  -11.0657   -0.1123 C.ar    1  LIG1       -0.0318
     55 C           1.6141  -10.1111    0.2065 C.ar    1  LIG1        0.1099
     56 N           1.2575   -8.8719    0.5762 N.ar    1  LIG1       -0.2092
     57 H          -1.4297  -11.4102   -0.4042 H       1  LIG1        0.0626
     58 O          -0.2976   -7.2665    0.9902 O.3     1  LIG1       -0.4792
     59 C           0.7949   -6.4578    1.4264 C.3     1  LIG1        0.0804
     60 H           0.3489   -5.5141    1.7418 H       1  LIG1        0.0660
     61 H           1.3191   -6.9256    2.2611 H       1  LIG1        0.0660
     62 H           1.5097   -6.2982    0.6169 H       1  LIG1        0.0660
     63 H           0.9451  -12.0759   -0.3795 H       1  LIG1        0.0640
     64 C           3.0516  -10.3421    0.1040 C.ar    1  LIG1        0.1551
     65 C           3.8499  -11.4186   -0.1254 C.ar    1  LIG1        0.0018
     66 C           5.1960  -10.9285   -0.2122 C.ar    1  LIG1        0.0711
     67 C           5.1155   -9.5667   -0.0181 C.ar    1  LIG1        0.1546
     68 O           3.8195   -9.2262    0.1788 O.2     1  LIG1       -0.4519
     69 H           3.5478  -12.4484   -0.2390 H       1  LIG1        0.0668
     70 C           6.3210  -11.7337   -0.5371 C.1     1  LIG1       -0.0658
     71 C           7.2242  -12.4683   -0.8416 C.1     1  LIG1       -0.1138
     72 H           8.0325  -13.1089   -1.1089 H       1  LIG1        0.1232
     73 C           7.3630   -8.4371    0.2915 C.ar    1  LIG1        0.1282
     74 C           8.1364   -7.2812    0.2136 C.ar    1  LIG1       -0.0105
     75 C           6.0075   -8.4106   -0.0725 C.ar    1  LIG1        0.0611
     76 C           7.6028   -6.0603   -0.1813 C.ar    1  LIG1        0.0041
     77 H           9.1840   -7.3314    0.4924 H       1  LIG1        0.0661
     78 C           5.4698   -7.1851   -0.4580 C.ar    1  LIG1       -0.0295
     79 C           6.2350   -6.0221   -0.5127 C.ar    1  LIG1        0.0604
     80 H           4.4187   -7.1378   -0.7118 H       1  LIG1        0.0639
     81 O           7.8719   -9.6044    0.7310 O.3     1  LIG1       -0.5060
     82 H           8.8059   -9.4996    0.9494 H       1  LIG1        0.2922
     83 N           4.9457   -3.8743   -1.1754 N.1     1  LIG1       -0.1908
     84 C           5.5583   -4.8105   -0.8792 C.1     1  LIG1        0.0998
     85 C           9.2593   -4.4257    0.8154 C.ar    1  LIG1        0.0324
     86 C          10.0576   -3.2892    0.6592 C.ar    1  LIG1       -0.0455
     87 C           8.4645   -4.8537   -0.2684 C.ar    1  LIG1       -0.0009
     88 C          10.0757   -2.5865   -0.5351 C.ar    1  LIG1       -0.0576
     89 H          10.6606   -2.9579    1.4970 H       1  LIG1        0.0630
     90 C           8.5010   -4.1289   -1.4567 C.ar    1  LIG1       -0.0499
     91 C           9.2952   -2.9940   -1.6137 C.ar    1  LIG1       -0.0498
     92 H           7.8949   -4.4646   -2.2924 H       1  LIG1        0.0627
     93 H          10.7032   -1.7056   -0.6283 H       1  LIG1        0.0621
     94 C           9.2561   -5.0912    2.0848 C.1     1  LIG1       -0.0691
     95 C           9.2837   -5.6139    3.1693 C.1     1  LIG1       -0.1139
     96 H           9.2926   -6.0716    4.1318 H       1  LIG1        0.1232
     97 C           9.2971   -2.2423   -2.9169 C.3     1  LIG1       -0.0397
     98 H           8.2923   -1.8886   -3.1657 H       1  LIG1        0.0278
     99 H           9.6296   -2.8803   -3.7413 H       1  LIG1        0.0278
    100 H           9.9589   -1.3751   -2.8755 H       1  LIG1        0.0278
@<TRIPOS>BOND
     1    99    97    1
     2    98    97    1
     3    97   100    1
     4    97    91    1
     5    46    45    1
     6    92    90    1
     7    10     8    1
     8    49    47    1
     9    50    47    1
    10    45    44    3
    11    11     8    1
    12    91    90   ar
    13    91    88   ar
    14    47    48    1
    15    47    40    1
    16    44    39    1
    17    90    87   ar
    18     8     2    1
    19     8     9    1
    20     7     1    1
    21    83    84    3
    22    72    71    1
    23     1     2   ar
    24     1     5   ar
    25     2     3   ar
    26    20    19    1
    27    84    79    1
    28    71    70    3
    29    40    39   ar
    30    40    41   ar
    31    39    38   ar
    32    80    78    1
    33    93    88    1
    34     5     6    1
    35     5     4   ar
    36    70    66    1
    37    88    86   ar
    38    79    78   ar
    39    79    76   ar
    40     3    12    1
    41     3     4   ar
    42    36    34    1
    43    78    75   ar
    44    57    53    1
    45    63    54    1
    46    12    13    3
    47    87    76    1
    48    87    85   ar
    49     4    15    1
    50    69    65    1
    51    66    65   ar
    52    66    67   ar
    53    13    14    1
    54    76    74   ar
    55    53    54   ar
    56    53    52   ar
    57    65    64   ar
    58    54    55   ar
    59    75    67    1
    60    75    73   ar
    61    19    15   ar
    62    19    18   ar
    63    41    52    1
    64    41    42   ar
    65    67    68   ar
    66    38    29    1
    67    38    42   ar
    68    64    68   ar
    69    64    55    1
    70    31    30    1
    71    52    51   ar
    72    55    56   ar
    73    29    30   ar
    74    29    28   ar
    75    74    73   ar
    76    74    77    1
    77    30    26   ar
    78    15    16   ar
    79    73    81    1
    80    42    43    1
    81    28    34    1
    82    28    27   ar
    83    34    35    1
    84    34    37    1
    85    26    27   ar
    86    26    18    1
    87    51    56   ar
    88    51    58    1
    89    27    33    1
    90    18    17   ar
    91    62    59    1
    92    86    85   ar
    93    86    89    1
    94    81    82    1
    95    33    32    3
    96    85    94    1
    97    58    59    1
    98    16    17   ar
    99    16    21    1
   100    17    22    1
   101    59    60    1
   102    59    61    1
   103    24    22    1
   104    94    95    3
   105    22    23    1
   106    22    25    1
   107    95    96    1
