@<TRIPOS>MOLECULE
mol_data/opt/cam/geoms/mol2/13ie13ie13ie-13ie.out
 54 57 0 0 0
SMALL
GASTEIGER

@<TRIPOS>ATOM
      1 C           1.1915   -0.0289    0.7345 C.ar    1  LIG1        0.0063
      2 C           0.8977    1.0473   -0.0561 C.ar    1  LIG1       -0.0171
      3 C          -0.5062    0.9749   -0.3437 C.ar    1  LIG1        0.0542
      4 C          -1.0129   -0.1463    0.2976 C.ar    1  LIG1        0.0790
      5 N           0.0408   -0.7533    0.9326 N.ar    1  LIG1       -0.3583
      6 H          -0.0625   -1.5116    1.5867 H       1  LIG1        0.1654
      7 H           2.1305   -0.3391    1.1675 H       1  LIG1        0.0810
      8 C           1.8390    2.0940   -0.5564 C.3     1  LIG1       -0.0371
      9 H           1.5344    3.0917   -0.2267 H       1  LIG1        0.0278
     10 H           1.8663    2.1144   -1.6500 H       1  LIG1        0.0278
     11 H           2.8545    1.9145   -0.1963 H       1  LIG1        0.0278
     12 C          -1.2211    1.8625   -1.1919 C.1     1  LIG1       -0.0672
     13 C          -1.7985    2.6286   -1.9214 C.1     1  LIG1       -0.1138
     14 H          -2.3122    3.2983   -2.5712 H       1  LIG1        0.1232
     15 C          -2.3496   -0.7088    0.3481 C.ar    1  LIG1        0.0687
     16 C          -3.5753   -0.1315    0.5818 C.ar    1  LIG1       -0.0077
     17 C          -4.5408   -1.1878    0.5453 C.ar    1  LIG1        0.0549
     18 C          -3.8699   -2.3827    0.2956 C.ar    1  LIG1        0.0795
     19 N          -2.5426   -2.0720    0.1977 N.ar    1  LIG1       -0.3506
     20 H          -1.8395   -2.7015   -0.1516 H       1  LIG1        0.1660
     21 C          -3.8679    1.3042    0.8665 C.3     1  LIG1       -0.0365
     22 H          -4.6708    1.3946    1.6025 H       1  LIG1        0.0279
     23 H          -4.1822    1.8354   -0.0368 H       1  LIG1        0.0279
     24 H          -2.9820    1.8155    1.2473 H       1  LIG1        0.0279
     25 C          -5.9342   -1.0272    0.7631 C.1     1  LIG1       -0.0672
     26 C          -7.1155   -0.8638    0.9503 C.1     1  LIG1       -0.1138
     27 H          -8.1548   -0.7021    1.1212 H       1  LIG1        0.1232
     28 C          -4.3582   -3.7337    0.1417 C.ar    1  LIG1        0.0687
     29 C          -3.6854   -4.9348    0.0204 C.ar    1  LIG1       -0.0077
     30 C          -4.6789   -5.9500   -0.1126 C.ar    1  LIG1        0.0549
     31 C          -5.9327   -5.3374   -0.0665 C.ar    1  LIG1        0.0795
     32 N          -5.7094   -4.0030    0.0858 N.ar    1  LIG1       -0.3506
     33 H          -6.4211   -3.2936    0.1866 H       1  LIG1        0.1660
     34 C          -2.2097   -5.1805    0.0275 C.3     1  LIG1       -0.0365
     35 H          -1.7209   -4.7111    0.8878 H       1  LIG1        0.0279
     36 H          -1.7211   -4.8151   -0.8847 H       1  LIG1        0.0279
     37 H          -2.0089   -6.2520    0.0824 H       1  LIG1        0.0279
     38 C          -4.4155   -7.3371   -0.2595 C.1     1  LIG1       -0.0672
     39 C          -4.1777   -8.5152   -0.3790 C.1     1  LIG1       -0.1138
     40 H          -3.9505   -9.5501   -0.4921 H       1  LIG1        0.1232
     41 C          -7.2577   -5.9112   -0.1529 C.ar    1  LIG1        0.0682
     42 C          -8.5140   -5.3303   -0.1858 C.ar    1  LIG1       -0.0084
     43 C          -9.4573   -6.3997   -0.2796 C.ar    1  LIG1        0.0455
     44 C          -8.7442   -7.5824   -0.3023 C.ar    1  LIG1        0.0179
     45 N          -7.4273   -7.2769   -0.2250 N.ar    1  LIG1       -0.3581
     46 H          -6.6604   -7.9339   -0.2310 H       1  LIG1        0.1654
     47 H          -9.0923   -8.6010   -0.3687 H       1  LIG1        0.0819
     48 C          -8.8673   -3.8779   -0.1382 C.3     1  LIG1       -0.0365
     49 H          -9.9452   -3.7557   -0.2599 H       1  LIG1        0.0279
     50 H          -8.3802   -3.3065   -0.9357 H       1  LIG1        0.0279
     51 H          -8.5938   -3.4176    0.8180 H       1  LIG1        0.0279
     52 C         -10.8716   -6.2680   -0.3423 C.1     1  LIG1       -0.0679
     53 C         -12.0683   -6.1370   -0.3948 C.1     1  LIG1       -0.1139
     54 H         -13.1272   -6.0315   -0.4421 H       1  LIG1        0.1232
@<TRIPOS>BOND
     1    14    13    1
     2    13    12    3
     3    10     8    1
     4    12     3    1
     5    50    48    1
     6    36    34    1
     7     8     9    1
     8     8    11    1
     9     8     2    1
    10    40    39    1
    11    54    53    1
    12    53    52    3
    13    39    38    3
    14    47    44    1
    15     3     2   ar
    16     3     4   ar
    17    52    43    1
    18    44    43   ar
    19    44    45   ar
    20    43    42   ar
    21    49    48    1
    22    38    30    1
    23    46    45    1
    24    45    41   ar
    25    42    41   ar
    26    42    48    1
    27    41    31    1
    28    20    19    1
    29    48    51    1
    30    30    31   ar
    31    30    29   ar
    32    31    32   ar
    33     2     1   ar
    34    23    21    1
    35    29    34    1
    36    29    28   ar
    37    34    37    1
    38    34    35    1
    39    32    28   ar
    40    32    33    1
    41    28    18    1
    42    19    18   ar
    43    19    15   ar
    44    18    17   ar
    45     4    15    1
    46     4     5   ar
    47    15    16   ar
    48    17    16   ar
    49    17    25    1
    50    16    21    1
    51     1     5   ar
    52     1     7    1
    53    25    26    3
    54    21    24    1
    55    21    22    1
    56     5     6    1
    57    26    27    1
