@<TRIPOS>MOLECULE
mol_data/opt/cam/geoms/mol2/13ie13ie-13ie13ie-.out
 54 57 0 0 0
SMALL
GASTEIGER

@<TRIPOS>ATOM
      1 C           1.3198   -0.2588   -0.0206 C.ar    1  LIG1        0.0063
      2 C           0.9082    1.0021   -0.3484 C.ar    1  LIG1       -0.0171
      3 C          -0.5252    0.9741   -0.3525 C.ar    1  LIG1        0.0542
      4 C          -0.9295   -0.3177   -0.0219 C.ar    1  LIG1        0.0790
      5 N           0.2103   -1.0463    0.1718 N.ar    1  LIG1       -0.3583
      6 H           0.2256   -2.0104    0.4560 H       1  LIG1        0.1654
      7 H           2.3154   -0.6606    0.0896 H       1  LIG1        0.0810
      8 C           1.7614    2.1899   -0.6528 C.3     1  LIG1       -0.0371
      9 H           1.5577    3.0138    0.0378 H       1  LIG1        0.0278
     10 H           1.5752    2.5659   -1.6634 H       1  LIG1        0.0278
     11 H           2.8220    1.9407   -0.5764 H       1  LIG1        0.0278
     12 C          -1.3655    2.0767   -0.6560 C.1     1  LIG1       -0.0672
     13 C          -2.0608    3.0287   -0.9173 C.1     1  LIG1       -0.1138
     14 H          -2.6545    3.8787   -1.1629 H       1  LIG1        0.1232
     15 C          -2.2498   -0.8898    0.1226 C.ar    1  LIG1        0.0687
     16 C          -2.6647   -2.1968    0.2944 C.ar    1  LIG1       -0.0077
     17 C          -4.0891   -2.1676    0.3791 C.ar    1  LIG1        0.0549
     18 C          -4.5020   -0.8408    0.2538 C.ar    1  LIG1        0.0795
     19 N          -3.3733   -0.0926    0.1035 N.ar    1  LIG1       -0.3506
     20 H          -3.3451    0.9000   -0.0811 H       1  LIG1        0.1660
     21 C          -1.8292   -3.4350    0.3792 C.3     1  LIG1       -0.0365
     22 H          -1.2475   -3.4824    1.3084 H       1  LIG1        0.0279
     23 H          -1.1354   -3.5202   -0.4642 H       1  LIG1        0.0279
     24 H          -2.4687   -4.3194    0.3642 H       1  LIG1        0.0279
     25 C          -4.9213   -3.3020    0.5661 C.1     1  LIG1       -0.0672
     26 C          -5.6076   -4.2835    0.7189 C.1     1  LIG1       -0.1138
     27 H          -6.2020   -5.1548    0.8709 H       1  LIG1        0.1232
     28 C          -5.8265   -0.2627    0.2644 C.ar    1  LIG1        0.0687
     29 C          -6.2499    1.0435    0.4181 C.ar    1  LIG1       -0.0077
     30 C          -7.6746    1.0231    0.3452 C.ar    1  LIG1        0.0549
     31 C          -8.0801   -0.2991    0.1534 C.ar    1  LIG1        0.0795
     32 N          -6.9472   -1.0517    0.1063 N.ar    1  LIG1       -0.3506
     33 H          -6.9142   -2.0577    0.0326 H       1  LIG1        0.1660
     34 C          -5.4196    2.2676    0.6364 C.3     1  LIG1       -0.0365
     35 H          -6.0475    3.0883    0.9885 H       1  LIG1        0.0279
     36 H          -4.9334    2.6089   -0.2849 H       1  LIG1        0.0279
     37 H          -4.6374    2.1025    1.3830 H       1  LIG1        0.0279
     38 C          -8.5173    2.1596    0.4613 C.1     1  LIG1       -0.0672
     39 C          -9.2258    3.1317    0.5689 C.1     1  LIG1       -0.1138
     40 H          -9.8339    4.0025    0.6552 H       1  LIG1        0.1232
     41 C          -9.4053   -0.8624    0.0181 C.ar    1  LIG1        0.0682
     42 C          -9.8349   -2.1407   -0.2952 C.ar    1  LIG1       -0.0084
     43 C         -11.2638   -2.1052   -0.2887 C.ar    1  LIG1        0.0455
     44 C         -11.6464   -0.8151    0.0228 C.ar    1  LIG1        0.0179
     45 N         -10.5238   -0.0800    0.2059 N.ar    1  LIG1       -0.3581
     46 H         -10.4831    0.9048    0.4264 H       1  LIG1        0.1654
     47 H         -12.6321   -0.3885    0.1211 H       1  LIG1        0.0819
     48 C          -9.0082   -3.3495   -0.5981 C.3     1  LIG1       -0.0365
     49 H          -8.4492   -3.6995    0.2774 H       1  LIG1        0.0279
     50 H          -8.2877   -3.1664   -1.4025 H       1  LIG1        0.0279
     51 H          -9.6542   -4.1696   -0.9169 H       1  LIG1        0.0279
     52 C         -12.1315   -3.1982   -0.5608 C.1     1  LIG1       -0.0679
     53 C         -12.8510   -4.1360   -0.7949 C.1     1  LIG1       -0.1139
     54 H         -13.4956   -4.9586   -1.0008 H       1  LIG1        0.1232
@<TRIPOS>BOND
     1    10     8    1
     2    50    48    1
     3    14    13    1
     4    54    53    1
     5    13    12    3
     6    51    48    1
     7    53    52    3
     8    12     3    1
     9     8    11    1
    10     8     2    1
    11     8     9    1
    12    48    42    1
    13    48    49    1
    14    52    43    1
    15    23    21    1
    16     3     2   ar
    17     3     4   ar
    18     2     1   ar
    19    42    43   ar
    20    42    41   ar
    21    43    44   ar
    22    36    34    1
    23    20    19    1
    24     4    15    1
    25     4     5   ar
    26     1     7    1
    27     1     5   ar
    28    41    31    1
    29    41    45   ar
    30    44    47    1
    31    44    45   ar
    32    33    32    1
    33    19    15   ar
    34    19    18   ar
    35    32    31   ar
    36    32    28   ar
    37    15    16   ar
    38    31    30   ar
    39     5     6    1
    40    45    46    1
    41    18    28    1
    42    18    17   ar
    43    28    29   ar
    44    16    17   ar
    45    16    21    1
    46    30    29   ar
    47    30    38    1
    48    24    21    1
    49    17    25    1
    50    21    22    1
    51    29    34    1
    52    38    39    3
    53    25    26    3
    54    39    40    1
    55    34    35    1
    56    34    37    1
    57    26    27    1
