@<TRIPOS>MOLECULE
mol_data/opt/cam/geoms/mol2/13ie13ie-13ie-13ie.out
 54 57 0 0 0
SMALL
GASTEIGER

@<TRIPOS>ATOM
      1 C           1.2565   -0.2957    0.2359 C.ar    1  LIG1        0.0063
      2 C           0.8123    0.9247    0.6610 C.ar    1  LIG1       -0.0171
      3 C          -0.6196    0.8760    0.6109 C.ar    1  LIG1        0.0542
      4 C          -0.9891   -0.3871    0.1514 C.ar    1  LIG1        0.0790
      5 N           0.1682   -1.0778   -0.0686 N.ar    1  LIG1       -0.3583
      6 H           0.2083   -2.0269   -0.3979 H       1  LIG1        0.1654
      7 H           2.2622   -0.6713    0.1253 H       1  LIG1        0.0810
      8 C           1.6344    2.0931    1.0973 C.3     1  LIG1       -0.0371
      9 H           1.4040    2.3794    2.1279 H       1  LIG1        0.0278
     10 H           1.4444    2.9702    0.4713 H       1  LIG1        0.0278
     11 H           2.7010    1.8648    1.0416 H       1  LIG1        0.0278
     12 C          -1.4930    1.9340    0.9760 C.1     1  LIG1       -0.0672
     13 C          -2.2285    2.8379    1.2946 C.1     1  LIG1       -0.1138
     14 H          -2.8517    3.6500    1.5918 H       1  LIG1        0.1232
     15 C          -2.2973   -0.9567   -0.0828 C.ar    1  LIG1        0.0687
     16 C          -2.6958   -2.1863   -0.5751 C.ar    1  LIG1       -0.0077
     17 C          -4.1252   -2.1838   -0.5868 C.ar    1  LIG1        0.0549
     18 C          -4.5532   -0.9572   -0.0907 C.ar    1  LIG1        0.0795
     19 N          -3.4326   -0.2322    0.1962 N.ar    1  LIG1       -0.3506
     20 H          -3.4186    0.6672    0.6578 H       1  LIG1        0.1660
     21 C          -1.8391   -3.3197   -1.0444 C.3     1  LIG1       -0.0365
     22 H          -1.2343   -3.7455   -0.2345 H       1  LIG1        0.0279
     23 H          -1.1645   -3.0198   -1.8549 H       1  LIG1        0.0279
     24 H          -2.4669   -4.1247   -1.4305 H       1  LIG1        0.0279
     25 C          -4.9435   -3.2276   -1.0953 C.1     1  LIG1       -0.0672
     26 C          -5.6080   -4.1284   -1.5424 C.1     1  LIG1       -0.1138
     27 H          -6.2058   -4.9147   -1.9415 H       1  LIG1        0.1232
     28 C          -5.8712   -0.3836    0.0933 C.ar    1  LIG1        0.0687
     29 C          -7.0410   -0.8948    0.6068 C.ar    1  LIG1       -0.0077
     30 C          -7.9967    0.1702    0.5866 C.ar    1  LIG1        0.0549
     31 C          -7.3744    1.3046    0.0685 C.ar    1  LIG1        0.0795
     32 N          -6.0876    0.9497   -0.2109 N.ar    1  LIG1       -0.3506
     33 H          -5.4372    1.5248   -0.7204 H       1  LIG1        0.1660
     34 C          -7.2840   -2.2679    1.1402 C.3     1  LIG1       -0.0365
     35 H          -6.3507   -2.7359    1.4584 H       1  LIG1        0.0279
     36 H          -7.7292   -2.9209    0.3837 H       1  LIG1        0.0279
     37 H          -7.9669   -2.2321    1.9926 H       1  LIG1        0.0279
     38 C          -9.3367    0.0817    1.0476 C.1     1  LIG1       -0.0672
     39 C         -10.4760    0.0002    1.4391 C.1     1  LIG1       -0.1138
     40 H         -11.4759   -0.0965    1.7946 H       1  LIG1        0.1232
     41 C          -7.8791    2.6382   -0.1694 C.ar    1  LIG1        0.0682
     42 C          -7.2534    3.7874   -0.6229 C.ar    1  LIG1       -0.0084
     43 C          -8.2515    4.8103   -0.6549 C.ar    1  LIG1        0.0455
     44 C          -9.4367    4.2483   -0.2223 C.ar    1  LIG1        0.0179
     45 N          -9.2006    2.9454    0.0642 N.ar    1  LIG1       -0.3581
     46 H          -9.8714    2.2776    0.4176 H       1  LIG1        0.1654
     47 H         -10.4123    4.6924   -0.1042 H       1  LIG1        0.0819
     48 C          -5.8215    3.9756   -1.0148 C.3     1  LIG1       -0.0365
     49 H          -5.6321    5.0284   -1.2321 H       1  LIG1        0.0279
     50 H          -5.5594    3.4136   -1.9199 H       1  LIG1        0.0279
     51 H          -5.1285    3.6768   -0.2197 H       1  LIG1        0.0279
     52 C          -8.0556    6.1605   -1.0550 C.1     1  LIG1       -0.0679
     53 C          -7.8685    7.3008   -1.3964 C.1     1  LIG1       -0.1139
     54 H          -7.7144    8.3109   -1.6977 H       1  LIG1        0.1232
@<TRIPOS>BOND
     1    27    26    1
     2    50    48    1
     3    23    21    1
     4    54    53    1
     5    26    25    3
     6    24    21    1
     7    53    52    3
     8    49    48    1
     9    25    17    1
    10    52    43    1
    11    21    16    1
    12    21    22    1
    13    48    42    1
    14    48    51    1
    15    33    32    1
    16    43    42   ar
    17    43    44   ar
    18    42    41   ar
    19    17    16   ar
    20    17    18   ar
    21    16    15   ar
    22     6     5    1
    23    44    47    1
    24    44    45   ar
    25    32    31   ar
    26    32    28   ar
    27    41    45   ar
    28    41    31    1
    29    18    28    1
    30    18    19   ar
    31    15     4    1
    32    15    19   ar
    33     5     4   ar
    34     5     1   ar
    35    45    46    1
    36    31    30   ar
    37    28    29   ar
    38     7     1    1
    39     4     3   ar
    40    19    20    1
    41     1     2   ar
    42    36    34    1
    43    10     8    1
    44    30    29   ar
    45    30    38    1
    46    29    34    1
    47     3     2   ar
    48     3    12    1
    49     2     8    1
    50    12    13    3
    51    11     8    1
    52    38    39    3
    53     8     9    1
    54    34    35    1
    55    34    37    1
    56    13    14    1
    57    39    40    1
