@<TRIPOS>MOLECULE
mol_data/opt/cam/geoms/mol2/13ie13ie-13ie-13ie-.out
 54 57 0 0 0
SMALL
GASTEIGER

@<TRIPOS>ATOM
      1 C           1.1971   -0.1039    0.4789 C.ar    1  LIG1        0.0063
      2 C           0.6843    1.1254    0.7841 C.ar    1  LIG1       -0.0171
      3 C          -0.7379    1.0200    0.6381 C.ar    1  LIG1        0.0542
      4 C          -1.0324   -0.2844    0.2454 C.ar    1  LIG1        0.0790
      5 N           0.1594   -0.9450    0.1555 N.ar    1  LIG1       -0.3583
      6 H           0.2534   -1.9136   -0.0971 H       1  LIG1        0.1654
      7 H           2.2197   -0.4487    0.4656 H       1  LIG1        0.0810
      8 C           1.4346    2.3512    1.1917 C.3     1  LIG1       -0.0371
      9 H           1.1165    2.7031    2.1776 H       1  LIG1        0.0278
     10 H           1.2675    3.1732    0.4890 H       1  LIG1        0.0278
     11 H           2.5087    2.1577    1.2336 H       1  LIG1        0.0278
     12 C          -1.6702    2.0669    0.8624 C.1     1  LIG1       -0.0672
     13 C          -2.4589    2.9602    1.0594 C.1     1  LIG1       -0.1138
     14 H          -3.1328    3.7649    1.2452 H       1  LIG1        0.1232
     15 C          -2.3016   -0.9182   -0.0357 C.ar    1  LIG1        0.0687
     16 C          -2.6208   -2.1902   -0.4755 C.ar    1  LIG1       -0.0077
     17 C          -4.0454   -2.2475   -0.5746 C.ar    1  LIG1        0.0549
     18 C          -4.5506   -1.0132   -0.1829 C.ar    1  LIG1        0.0795
     19 N          -3.4790   -0.2260    0.1275 N.ar    1  LIG1       -0.3506
     20 H          -3.5266    0.6977    0.5360 H       1  LIG1        0.1660
     21 C          -1.6940   -3.3134   -0.8196 C.3     1  LIG1       -0.0365
     22 H          -1.1395   -3.6765    0.0544 H       1  LIG1        0.0279
     23 H          -0.9694   -3.0297   -1.5917 H       1  LIG1        0.0279
     24 H          -2.2641   -4.1590   -1.2084 H       1  LIG1        0.0279
     25 C          -4.7919   -3.3532   -1.0629 C.1     1  LIG1       -0.0672
     26 C          -5.3950   -4.3055   -1.4895 C.1     1  LIG1       -0.1138
     27 H          -5.9397   -5.1389   -1.8686 H       1  LIG1        0.1232
     28 C          -5.9049   -0.4959   -0.1187 C.ar    1  LIG1        0.0687
     29 C          -7.0690   -1.0262    0.3929 C.ar    1  LIG1       -0.0077
     30 C          -8.0880   -0.0374    0.2125 C.ar    1  LIG1        0.0549
     31 C          -7.5109    1.0724   -0.3894 C.ar    1  LIG1        0.0795
     32 N          -6.1901    0.7740   -0.5843 N.ar    1  LIG1       -0.3506
     33 H          -5.5151    1.4037   -0.9881 H       1  LIG1        0.1660
     34 C          -7.2585   -2.3594    1.0381 C.3     1  LIG1       -0.0365
     35 H          -6.3181   -2.7377    1.4435 H       1  LIG1        0.0279
     36 H          -7.6244   -3.1036    0.3246 H       1  LIG1        0.0279
     37 H          -7.9887   -2.2892    1.8478 H       1  LIG1        0.0279
     38 C          -9.4566   -0.1884    0.5636 C.1     1  LIG1       -0.0672
     39 C         -10.6118   -0.3441    0.8690 C.1     1  LIG1       -0.1138
     40 H         -11.6362   -0.4790    1.1282 H       1  LIG1        0.1232
     41 C          -8.0731    2.3423   -0.8160 C.ar    1  LIG1        0.0682
     42 C          -8.8659    3.2550   -0.1572 C.ar    1  LIG1       -0.0084
     43 C          -9.0824    4.3428   -1.0655 C.ar    1  LIG1        0.0455
     44 C          -8.4128    4.0519   -2.2348 C.ar    1  LIG1        0.0179
     45 N          -7.7923    2.8526   -2.0725 N.ar    1  LIG1       -0.3581
     46 H          -7.3499    2.3272   -2.8087 H       1  LIG1        0.1654
     47 H          -8.3405    4.6147   -3.1523 H       1  LIG1        0.0819
     48 C          -9.3826    3.1701    1.2413 C.3     1  LIG1       -0.0365
     49 H          -8.7654    2.5056    1.8493 H       1  LIG1        0.0279
     50 H         -10.4022    2.7744    1.2673 H       1  LIG1        0.0279
     51 H          -9.3986    4.1596    1.7048 H       1  LIG1        0.0279
     52 C          -9.8299    5.5226   -0.7972 C.1     1  LIG1       -0.0679
     53 C         -10.4643    6.5167   -0.5513 C.1     1  LIG1       -0.1139
     54 H         -11.0277    7.3958   -0.3404 H       1  LIG1        0.1232
@<TRIPOS>BOND
     1    47    44    1
     2    46    45    1
     3    44    45   ar
     4    44    43   ar
     5    45    41   ar
     6    27    26    1
     7    23    21    1
     8    26    25    3
     9    24    21    1
    10    43    52    1
    11    43    42   ar
    12    25    17    1
    13    33    32    1
    14    21    16    1
    15    21    22    1
    16    41    31    1
    17    41    42   ar
    18    52    53    3
    19    32    31   ar
    20    32    28   ar
    21    17    16   ar
    22    17    18   ar
    23    53    54    1
    24    16    15   ar
    25    31    30   ar
    26    18    28    1
    27    18    19   ar
    28    42    48    1
    29    28    29   ar
    30     6     5    1
    31    15    19   ar
    32    15     4    1
    33    19    20    1
    34     5     4   ar
    35     5     1   ar
    36    30    29   ar
    37    30    38    1
    38     4     3   ar
    39    36    34    1
    40    29    34    1
    41     7     1    1
    42     1     2   ar
    43    10     8    1
    44    38    39    3
    45     3     2   ar
    46     3    12    1
    47     2     8    1
    48    12    13    3
    49    39    40    1
    50    34    35    1
    51    34    37    1
    52    13    14    1
    53     8    11    1
    54     8     9    1
    55    48    50    1
    56    48    51    1
    57    48    49    1
