@<TRIPOS>MOLECULE
mol_data/opt/cam/geoms/mol2/13ie13ie-.out
 28 29 0 0 0
SMALL
GASTEIGER

@<TRIPOS>ATOM
      1 C           1.1889   -0.2852    0.0158 C.ar    1  LIG1        0.0063
      2 C           0.7952    1.0229   -0.0030 C.ar    1  LIG1       -0.0171
      3 C          -0.6386    1.0158   -0.0123 C.ar    1  LIG1        0.0542
      4 C          -1.0608   -0.3120    0.0014 C.ar    1  LIG1        0.0790
      5 N           0.0678   -1.0806    0.0184 N.ar    1  LIG1       -0.3583
      6 H           0.0685   -2.0858    0.0306 H       1  LIG1        0.1654
      7 H           2.1786   -0.7155    0.0277 H       1  LIG1        0.0810
      8 C           1.6649    2.2374   -0.0124 C.3     1  LIG1       -0.0371
      9 H           1.4727    2.8720    0.8581 H       1  LIG1        0.0278
     10 H           1.4846    2.8500   -0.9010 H       1  LIG1        0.0278
     11 H           2.7220    1.9628   -0.0018 H       1  LIG1        0.0278
     12 C          -1.4676    2.1678   -0.0320 C.1     1  LIG1       -0.0672
     13 C          -2.1661    3.1529   -0.0491 C.1     1  LIG1       -0.1138
     14 H          -2.7609    4.0368   -0.0641 H       1  LIG1        0.1232
     15 C          -2.3915   -0.8818   -0.0003 C.ar    1  LIG1        0.0682
     16 C          -2.8296   -2.1947    0.0136 C.ar    1  LIG1       -0.0084
     17 C          -4.2587   -2.1498    0.0033 C.ar    1  LIG1        0.0455
     18 C          -4.6321   -0.8206   -0.0163 C.ar    1  LIG1        0.0179
     19 N          -3.5035   -0.0707   -0.0183 N.ar    1  LIG1       -0.3581
     20 H          -3.4538    0.9384   -0.0307 H       1  LIG1        0.1654
     21 H          -5.6146   -0.3760   -0.0287 H       1  LIG1        0.0819
     22 C          -2.0136   -3.4490    0.0354 C.3     1  LIG1       -0.0365
     23 H          -1.3814   -3.5182    0.9288 H       1  LIG1        0.0279
     24 H          -1.3703   -3.5418   -0.8480 H       1  LIG1        0.0279
     25 H          -2.6726   -4.3191    0.0427 H       1  LIG1        0.0279
     26 C          -5.1322   -3.2715    0.0119 C.1     1  LIG1       -0.0679
     27 C          -5.8550   -4.2356    0.0193 C.1     1  LIG1       -0.1139
     28 H          -6.5033   -5.0808    0.0255 H       1  LIG1        0.1232
@<TRIPOS>BOND
     1    10     8    1
     2    24    22    1
     3    14    13    1
     4    13    12    3
     5    12     3    1
     6    20    19    1
     7    21    18    1
     8    19    18   ar
     9    19    15   ar
    10    18    17   ar
    11     8     2    1
    12     8    11    1
    13     8     9    1
    14     3     2   ar
    15     3     4   ar
    16     2     1   ar
    17    15     4    1
    18    15    16   ar
    19     4     5   ar
    20    17    26    1
    21    17    16   ar
    22    26    27    3
    23    16    22    1
    24     1     5   ar
    25     1     7    1
    26     5     6    1
    27    27    28    1
    28    22    25    1
    29    22    23    1
