@<TRIPOS>MOLECULE
mol_data/opt/cam/geoms/mol2/13ie13ie13ie13ie.out
 54 57 0 0 0
SMALL
GASTEIGER

@<TRIPOS>ATOM
      1 C           0.4333    0.1684    2.2475 C.ar    1  LIG1        0.0063
      2 C           0.6982    0.9172    1.1344 C.ar    1  LIG1       -0.0171
      3 C          -0.4050    0.7235    0.2378 C.ar    1  LIG1        0.0542
      4 C          -1.3049   -0.1349    0.8512 C.ar    1  LIG1        0.0790
      5 N          -0.7670   -0.4755    2.0667 N.ar    1  LIG1       -0.3583
      6 H          -1.2705   -0.9722    2.7833 H       1  LIG1        0.1654
      7 H           1.0070    0.0398    3.1529 H       1  LIG1        0.0810
      8 C           1.9019    1.7619    0.8704 C.3     1  LIG1       -0.0371
      9 H           1.6236    2.8056    0.6969 H       1  LIG1        0.0278
     10 H           2.4384    1.4227   -0.0208 H       1  LIG1        0.0278
     11 H           2.5955    1.7328    1.7137 H       1  LIG1        0.0278
     12 C          -0.5152    1.2711   -1.0687 C.1     1  LIG1       -0.0672
     13 C          -0.5790    1.7453   -2.1747 C.1     1  LIG1       -0.1138
     14 H          -0.6388    2.1594   -3.1544 H       1  LIG1        0.1232
     15 C          -2.5759   -0.6777    0.4022 C.ar    1  LIG1        0.0687
     16 C          -3.6911   -0.0667   -0.1265 C.ar    1  LIG1       -0.0077
     17 C          -4.6578   -1.0967   -0.3565 C.ar    1  LIG1        0.0549
     18 C          -4.1072   -2.3039    0.0508 C.ar    1  LIG1        0.0795
     19 N          -2.8454   -2.0294    0.5049 N.ar    1  LIG1       -0.3506
     20 H          -2.2065   -2.7154    0.8731 H       1  LIG1        0.1660
     21 C          -3.8827    1.3874   -0.4059 C.3     1  LIG1       -0.0365
     22 H          -4.9150    1.6835   -0.2041 H       1  LIG1        0.0279
     23 H          -3.6668    1.6257   -1.4515 H       1  LIG1        0.0279
     24 H          -3.2146    1.9957    0.2069 H       1  LIG1        0.0279
     25 C          -5.9442   -0.9113   -0.9315 C.1     1  LIG1       -0.0672
     26 C          -7.0289   -0.7279   -1.4230 C.1     1  LIG1       -0.1138
     27 H          -7.9861   -0.5720   -1.8638 H       1  LIG1        0.1232
     28 C          -4.6301   -3.6596    0.0229 C.ar    1  LIG1        0.0687
     29 C          -5.8135   -4.1885    0.4874 C.ar    1  LIG1       -0.0077
     30 C          -5.7741   -5.5936    0.2168 C.ar    1  LIG1        0.0549
     31 C          -4.5616   -5.8810   -0.3947 C.ar    1  LIG1        0.0795
     32 N          -3.8831   -4.6975   -0.5029 N.ar    1  LIG1       -0.3506
     33 H          -2.9723   -4.5987   -0.9213 H       1  LIG1        0.1660
     34 C          -6.9328   -3.4611    1.1559 C.3     1  LIG1       -0.0365
     35 H          -7.3724   -4.0758    1.9452 H       1  LIG1        0.0279
     36 H          -7.7281   -3.2135    0.4467 H       1  LIG1        0.0279
     37 H          -6.5863   -2.5217    1.5909 H       1  LIG1        0.0279
     38 C          -6.8144   -6.5192    0.5003 C.1     1  LIG1       -0.0672
     39 C          -7.7128   -7.2823    0.7501 C.1     1  LIG1       -0.1138
     40 H          -8.5078   -7.9599    0.9590 H       1  LIG1        0.1232
     41 C          -4.0057   -7.1247   -0.9002 C.ar    1  LIG1        0.0682
     42 C          -3.8715   -8.3648   -0.3177 C.ar    1  LIG1       -0.0084
     43 C          -3.2158   -9.2020   -1.2792 C.ar    1  LIG1        0.0455
     44 C          -2.9753   -8.4405   -2.4027 C.ar    1  LIG1        0.0179
     45 N          -3.4380   -7.1843   -2.1621 N.ar    1  LIG1       -0.3581
     46 H          -3.5294   -6.4608   -2.8566 H       1  LIG1        0.1654
     47 H          -2.5112   -8.7104   -3.3383 H       1  LIG1        0.0819
     48 C          -4.2871   -8.7749    1.0566 C.3     1  LIG1       -0.0365
     49 H          -3.5667   -9.4782    1.4815 H       1  LIG1        0.0279
     50 H          -5.2650   -9.2654    1.0482 H       1  LIG1        0.0279
     51 H          -4.3681   -7.9099    1.7179 H       1  LIG1        0.0279
     52 C          -2.8536  -10.5649   -1.0947 C.1     1  LIG1       -0.0679
     53 C          -2.5518  -11.7178   -0.9194 C.1     1  LIG1       -0.1139
     54 H          -2.2864  -12.7387   -0.7714 H       1  LIG1        0.1232
@<TRIPOS>BOND
     1    47    44    1
     2    14    13    1
     3    46    45    1
     4    44    45   ar
     5    44    43   ar
     6    13    12    3
     7    45    41   ar
     8    27    26    1
     9    23    21    1
    10    26    25    3
    11    43    52    1
    12    43    42   ar
    13    52    53    3
    14    12     3    1
    15    25    17    1
    16    33    32    1
    17    53    54    1
    18    41    31    1
    19    41    42   ar
    20    32    31   ar
    21    32    28   ar
    22    21    22    1
    23    21    16    1
    24    21    24    1
    25    31    30   ar
    26    17    16   ar
    27    17    18   ar
    28    42    48    1
    29    16    15   ar
    30    10     8    1
    31    28    18    1
    32    28    29   ar
    33    18    19   ar
    34    30    29   ar
    35    30    38    1
    36     3     4   ar
    37     3     2   ar
    38    15    19   ar
    39    15     4    1
    40    36    34    1
    41    29    34    1
    42    38    39    3
    43    19    20    1
    44     9     8    1
    45    39    40    1
    46     4     5   ar
    47     8     2    1
    48     8    11    1
    49    50    48    1
    50    48    49    1
    51    48    51    1
    52     2     1   ar
    53    34    37    1
    54    34    35    1
    55     5     1   ar
    56     5     6    1
    57     1     7    1
