@<TRIPOS>MOLECULE
mol_data/opt/cam/geoms/mol2/13if13if.out
 26 27 0 0 0
SMALL
GASTEIGER

@<TRIPOS>ATOM
      1 C           1.0980   -0.2285    0.7224 C.ar    1  LIG1        0.0087
      2 C           0.8114    0.9363    0.0530 C.ar    1  LIG1        0.0090
      3 C          -0.5549    0.8396   -0.3257 C.ar    1  LIG1        0.1463
      4 C          -1.0641   -0.3602    0.1182 C.ar    1  LIG1        0.1055
      5 N          -0.0165   -1.0221    0.7403 N.ar    1  LIG1       -0.3563
      6 H          -0.1393   -1.8327    1.3233 H       1  LIG1        0.1655
      7 H           2.0212   -0.5491    1.1818 H       1  LIG1        0.0811
      8 C           1.7280    2.0756   -0.2553 C.3     1  LIG1       -0.0348
      9 H           1.3584    3.0123    0.1726 H       1  LIG1        0.0279
     10 H           1.8208    2.2339   -1.3343 H       1  LIG1        0.0279
     11 H           2.7283    1.8942    0.1453 H       1  LIG1        0.0279
     12 O          -1.1977    1.7994   -1.0475 O.3     1  LIG1       -0.5043
     13 H          -2.0758    1.4652   -1.2736 H       1  LIG1        0.2922
     14 C          -2.3901   -0.9252   -0.0507 C.ar    1  LIG1        0.0730
     15 C          -3.6355   -0.3569    0.1495 C.ar    1  LIG1        0.0178
     16 C          -4.5879   -1.3479   -0.2165 C.ar    1  LIG1        0.1376
     17 C          -3.9241   -2.4791   -0.6141 C.ar    1  LIG1        0.0445
     18 N          -2.5753   -2.2151   -0.4898 N.ar    1  LIG1       -0.3561
     19 H          -1.8407   -2.7748   -0.8887 H       1  LIG1        0.1655
     20 H          -4.2901   -3.4384   -0.9460 H       1  LIG1        0.0844
     21 C          -3.9564    0.9896    0.7171 C.3     1  LIG1       -0.0342
     22 H          -4.6702    0.9019    1.5413 H       1  LIG1        0.0279
     23 H          -4.4176    1.6521   -0.0237 H       1  LIG1        0.0279
     24 H          -3.0561    1.4794    1.0941 H       1  LIG1        0.0279
     25 O          -5.9300   -1.1231   -0.1170 O.3     1  LIG1       -0.5050
     26 H          -6.4045   -1.9230   -0.3684 H       1  LIG1        0.2922
@<TRIPOS>BOND
     1    10     8    1
     2    13    12    1
     3    12     3    1
     4    20    17    1
     5    19    18    1
     6    17    18   ar
     7    17    16   ar
     8    18    14   ar
     9    26    25    1
    10     3     2   ar
    11     3     4   ar
    12     8     2    1
    13     8    11    1
    14     8     9    1
    15    16    25    1
    16    16    15   ar
    17    14     4    1
    18    14    15   ar
    19    23    21    1
    20     2     1   ar
    21     4     5   ar
    22    15    21    1
    23    21    24    1
    24    21    22    1
    25     1     5   ar
    26     1     7    1
    27     5     6    1
