@<TRIPOS>MOLECULE
mol_data/opt/cam/geoms/mol2/13if13if13if13if-.out
 50 53 0 0 0
SMALL
GASTEIGER

@<TRIPOS>ATOM
      1 C           0.6715    0.6896    1.6043 C.ar    1  LIG1        0.0087
      2 C           0.7469    1.2984    0.3757 C.ar    1  LIG1        0.0090
      3 C          -0.4172    0.8910   -0.3307 C.ar    1  LIG1        0.1463
      4 C          -1.1665    0.0599    0.4713 C.ar    1  LIG1        0.1055
      5 N          -0.4592   -0.0799    1.6571 N.ar    1  LIG1       -0.3563
      6 H          -0.8605   -0.4508    2.5020 H       1  LIG1        0.1655
      7 H           1.3491    0.7469    2.4432 H       1  LIG1        0.0811
      8 C           1.8268    2.1863   -0.1522 C.3     1  LIG1       -0.0348
      9 H           1.4332    3.1669   -0.4362 H       1  LIG1        0.0279
     10 H           2.2944    1.7606   -1.0455 H       1  LIG1        0.0279
     11 H           2.6084    2.3408    0.5954 H       1  LIG1        0.0279
     12 O          -0.6768    1.2656   -1.6139 O.3     1  LIG1       -0.5043
     13 H          -1.4663    0.7941   -1.9106 H       1  LIG1        0.2922
     14 C          -2.4083   -0.6346    0.1861 C.ar    1  LIG1        0.0735
     15 C          -3.5964   -0.1606   -0.3491 C.ar    1  LIG1        0.0185
     16 C          -4.4671   -1.2763   -0.4307 C.ar    1  LIG1        0.1470
     17 C          -3.8253   -2.3936    0.0605 C.ar    1  LIG1        0.1060
     18 N          -2.5556   -1.9795    0.4241 N.ar    1  LIG1       -0.3486
     19 H          -1.8406   -2.5752    0.8062 H       1  LIG1        0.1661
     20 C          -3.9409    1.2459   -0.7248 C.3     1  LIG1       -0.0342
     21 H          -4.8760    1.5559   -0.2498 H       1  LIG1        0.0279
     22 H          -4.0883    1.3602   -1.8044 H       1  LIG1        0.0279
     23 H          -3.1550    1.9377   -0.4147 H       1  LIG1        0.0279
     24 O          -5.7315   -1.1959   -0.9285 O.3     1  LIG1       -0.5043
     25 H          -6.0945   -2.0899   -0.9763 H       1  LIG1        0.2922
     26 C          -4.2943   -3.7608    0.1664 C.ar    1  LIG1        0.0735
     27 C          -5.4931   -4.2581    0.6481 C.ar    1  LIG1        0.0185
     28 C          -5.4331   -5.6656    0.4765 C.ar    1  LIG1        0.1470
     29 C          -4.2235   -6.0064   -0.0875 C.ar    1  LIG1        0.1060
     30 N          -3.5202   -4.8252   -0.2452 N.ar    1  LIG1       -0.3486
     31 H          -2.7363   -4.7307   -0.8704 H       1  LIG1        0.1661
     32 C          -6.6010   -3.5079    1.3166 C.3     1  LIG1       -0.0342
     33 H          -6.9091   -4.0181    2.2333 H       1  LIG1        0.0279
     34 H          -7.4952   -3.4350    0.6873 H       1  LIG1        0.0279
     35 H          -6.2872   -2.4941    1.5734 H       1  LIG1        0.0279
     36 O          -6.4320   -6.5123    0.8677 O.3     1  LIG1       -0.5043
     37 H          -6.0492   -7.3897    1.0023 H       1  LIG1        0.2922
     38 C          -3.7218   -7.3151   -0.4522 C.ar    1  LIG1        0.0730
     39 C          -2.4596   -7.8775   -0.3926 C.ar    1  LIG1        0.0178
     40 C          -2.5926   -9.2098   -0.8808 C.ar    1  LIG1        0.1376
     41 C          -3.9016   -9.4342   -1.2101 C.ar    1  LIG1        0.0445
     42 N          -4.5914   -8.2754   -0.9181 N.ar    1  LIG1       -0.3561
     43 H          -5.5166   -8.0601   -1.2530 H       1  LIG1        0.1655
     44 H          -4.3861  -10.3145   -1.5989 H       1  LIG1        0.0844
     45 C          -1.2021   -7.2645    0.1399 C.3     1  LIG1       -0.0342
     46 H          -1.4217   -6.3555    0.7041 H       1  LIG1        0.0279
     47 H          -0.4908   -6.9972   -0.6515 H       1  LIG1        0.0279
     48 H          -0.6834   -7.9465    0.8241 H       1  LIG1        0.0279
     49 O          -1.6053  -10.1456   -0.9733 O.3     1  LIG1       -0.5050
     50 H          -0.7628   -9.7267   -0.7672 H       1  LIG1        0.2922
@<TRIPOS>BOND
     1    13    12    1
     2    22    20    1
     3    12     3    1
     4    44    41    1
     5    43    42    1
     6    41    42   ar
     7    41    40   ar
     8    10     8    1
     9    25    24    1
    10    49    40    1
    11    49    50    1
    12    24    16    1
    13    42    38   ar
    14    40    39   ar
    15    31    30    1
    16    20    23    1
    17    20    15    1
    18    20    21    1
    19    47    45    1
    20    38    39   ar
    21    38    29    1
    22     9     8    1
    23    16    15   ar
    24    16    17   ar
    25    39    45    1
    26    15    14   ar
    27     3     2   ar
    28     3     4   ar
    29    30    29   ar
    30    30    26   ar
    31     8     2    1
    32     8    11    1
    33    29    28   ar
    34    17    26    1
    35    17    18   ar
    36    45    46    1
    37    45    48    1
    38    26    27   ar
    39    14    18   ar
    40    14     4    1
    41     2     1   ar
    42    18    19    1
    43     4     5   ar
    44    28    27   ar
    45    28    36    1
    46    27    32    1
    47    34    32    1
    48    36    37    1
    49    32    35    1
    50    32    33    1
    51     1     5   ar
    52     1     7    1
    53     5     6    1
