@<TRIPOS>MOLECULE
mol_data/opt/cam/geoms/mol2/13if13if-13if-13if.out
 50 53 0 0 0
SMALL
GASTEIGER

@<TRIPOS>ATOM
      1 C           1.3680   -0.4343    0.1639 C.ar    1  LIG1        0.0087
      2 C           0.9435    0.7510    0.7183 C.ar    1  LIG1        0.0090
      3 C          -0.4735    0.7127    0.6658 C.ar    1  LIG1        0.1463
      4 C          -0.8803   -0.4720    0.0886 C.ar    1  LIG1        0.1055
      5 N           0.2744   -1.1595   -0.2164 N.ar    1  LIG1       -0.3563
      6 H           0.2962   -2.0654   -0.6508 H       1  LIG1        0.1655
      7 H           2.3698   -0.8060    0.0110 H       1  LIG1        0.0811
      8 C           1.7806    1.8636    1.2654 C.3     1  LIG1       -0.0348
      9 H           1.6021    2.0307    2.3348 H       1  LIG1        0.0279
     10 H           1.5858    2.8102    0.7497 H       1  LIG1        0.0279
     11 H           2.8440    1.6427    1.1524 H       1  LIG1        0.0279
     12 O          -1.3542    1.6873    1.0776 O.3     1  LIG1       -0.5043
     13 H          -0.9352    2.2178    1.7643 H       1  LIG1        0.2922
     14 C          -2.2152   -0.9603   -0.1652 C.ar    1  LIG1        0.0735
     15 C          -2.6805   -2.1509   -0.7077 C.ar    1  LIG1        0.0185
     16 C          -4.0922   -2.0682   -0.6690 C.ar    1  LIG1        0.1470
     17 C          -4.4678   -0.8644   -0.1093 C.ar    1  LIG1        0.1060
     18 N          -3.2950   -0.1904    0.1719 N.ar    1  LIG1       -0.3486
     19 H          -3.2082    0.6773    0.6802 H       1  LIG1        0.1661
     20 C          -1.8994   -3.3023   -1.2593 C.3     1  LIG1       -0.0342
     21 H          -1.2895   -3.8009   -0.4959 H       1  LIG1        0.0279
     22 H          -1.2369   -3.0012   -2.0799 H       1  LIG1        0.0279
     23 H          -2.5846   -4.0512   -1.6609 H       1  LIG1        0.0279
     24 O          -4.9151   -3.0493   -1.1451 O.3     1  LIG1       -0.5043
     25 H          -5.7907   -2.6621   -1.2775 H       1  LIG1        0.2922
     26 C          -5.7866   -0.3004    0.0976 C.ar    1  LIG1        0.0735
     27 C          -6.9413   -0.8625    0.6223 C.ar    1  LIG1        0.0185
     28 C          -7.9291    0.1529    0.5683 C.ar    1  LIG1        0.1470
     29 C          -7.3863    1.3013    0.0334 C.ar    1  LIG1        0.1060
     30 N          -6.0706    1.0013   -0.2449 N.ar    1  LIG1       -0.3486
     31 H          -5.4517    1.5903   -0.7765 H       1  LIG1        0.1661
     32 C          -7.1217   -2.2190    1.2318 C.3     1  LIG1       -0.0342
     33 H          -6.3007   -2.8881    0.9704 H       1  LIG1        0.0279
     34 H          -8.0507   -2.6890    0.8893 H       1  LIG1        0.0279
     35 H          -7.1644   -2.1733    2.3270 H       1  LIG1        0.0279
     36 O          -9.2452    0.0541    0.9597 O.3     1  LIG1       -0.5043
     37 H          -9.3122   -0.5940    1.6697 H       1  LIG1        0.2922
     38 C          -8.0000    2.5855   -0.2113 C.ar    1  LIG1        0.0730
     39 C          -7.4890    3.7755   -0.7096 C.ar    1  LIG1        0.0178
     40 C          -8.5709    4.6920   -0.7144 C.ar    1  LIG1        0.1376
     41 C          -9.6929    4.0634   -0.2318 C.ar    1  LIG1        0.0445
     42 N          -9.3253    2.7733    0.0691 N.ar    1  LIG1       -0.3561
     43 H          -9.9072    2.0482    0.4590 H       1  LIG1        0.1655
     44 H         -10.7006    4.4200   -0.0860 H       1  LIG1        0.0844
     45 C          -6.0957    4.0870   -1.1593 C.3     1  LIG1       -0.0342
     46 H          -6.0219    5.1443   -1.4201 H       1  LIG1        0.0279
     47 H          -5.8034    3.5184   -2.0513 H       1  LIG1        0.0279
     48 H          -5.3517    3.8935   -0.3777 H       1  LIG1        0.0279
     49 O          -8.4271    5.9803   -1.1492 O.3     1  LIG1       -0.5050
     50 H          -9.2703    6.4363   -1.0588 H       1  LIG1        0.2922
@<TRIPOS>BOND
     1    22    20    1
     2    47    45    1
     3    23    20    1
     4    46    45    1
     5    25    24    1
     6    20    15    1
     7    20    21    1
     8    45    39    1
     9    45    48    1
    10    49    50    1
    11    49    40    1
    12    24    16    1
    13    31    30    1
    14    40    39   ar
    15    40    41   ar
    16    39    38   ar
    17    15    16   ar
    18    15    14   ar
    19    16    17   ar
    20     6     5    1
    21    30    29   ar
    22    30    26   ar
    23    41    44    1
    24    41    42   ar
    25     5     4   ar
    26     5     1   ar
    27    38    29    1
    28    38    42   ar
    29    14     4    1
    30    14    18   ar
    31    17    26    1
    32    17    18   ar
    33     7     1    1
    34    29    28   ar
    35    42    43    1
    36     4     3   ar
    37    26    27   ar
    38     1     2   ar
    39    18    19    1
    40    28    27   ar
    41    28    36    1
    42    27    32    1
    43     3     2   ar
    44     3    12    1
    45     2     8    1
    46    10     8    1
    47    34    32    1
    48    36    37    1
    49    33    32    1
    50    12    13    1
    51    11     8    1
    52    32    35    1
    53     8     9    1
