@<TRIPOS>MOLECULE
mol_data/opt/cam/geoms/mol2/13if4ah-12al-13ef6fl-4ia-6ha-6hf-.out
 98 105 0 0 0
SMALL
GASTEIGER

@<TRIPOS>ATOM
      1 C           1.0849    0.3090    1.6177 C.ar    1  LIG1        0.0087
      2 C           0.6409    1.5853    1.3663 C.ar    1  LIG1        0.0089
      3 C          -0.7335    1.4576    1.0393 C.ar    1  LIG1        0.1449
      4 C          -1.0950    0.1244    1.0954 C.ar    1  LIG1        0.0888
      5 N           0.0576   -0.5690    1.4227 N.ar    1  LIG1       -0.3575
      6 H           0.0667   -1.5359    1.7000 H       1  LIG1        0.1655
      7 H           2.0638   -0.0328    1.9193 H       1  LIG1        0.0811
      8 C           1.4192    2.8605    1.3989 C.3     1  LIG1       -0.0348
      9 H           1.0305    3.5489    2.1554 H       1  LIG1        0.0279
     10 H           1.3681    3.3814    0.4380 H       1  LIG1        0.0279
     11 H           2.4713    2.6721    1.6251 H       1  LIG1        0.0279
     12 O          -1.5059    2.5259    0.6891 O.3     1  LIG1       -0.5044
     13 H          -2.2857    2.2033    0.2207 H       1  LIG1        0.2922
     14 C          -3.5788    0.1544    1.0503 C.ar    1  LIG1       -0.0517
     15 C          -4.7750   -0.4737    0.7777 C.ar    1  LIG1       -0.0487
     16 C          -2.3678   -0.5227    0.8194 C.ar    1  LIG1        0.0036
     17 C          -4.8493   -1.7811    0.2774 C.ar    1  LIG1        0.0380
     18 H          -5.6998    0.0537    0.9860 H       1  LIG1        0.0625
     19 C          -2.4256   -1.8214    0.3215 C.ar    1  LIG1       -0.0311
     20 C          -3.6339   -2.4756    0.0519 C.ar    1  LIG1        0.0360
     21 H          -1.5021   -2.3483    0.0980 H       1  LIG1        0.0643
     22 H          -3.5751    1.1392    1.5036 H       1  LIG1        0.0624
     23 N          -3.5884   -3.7799   -0.3999 N.pl3   1  LIG1       -0.3574
     24 H          -4.3957   -4.1280   -0.8890 H       1  LIG1        0.1423
     25 H          -2.7044   -4.0841   -0.7769 H       1  LIG1        0.1423
     26 C          -6.1679   -2.3437    0.0235 C.ar    1  LIG1        0.1412
     27 C          -7.4226   -1.7962    0.0245 C.ar    1  LIG1        0.0268
     28 C          -8.3337   -2.8535   -0.2639 C.ar    1  LIG1        0.1677
     29 C          -7.5919   -3.9918   -0.4498 C.ar    1  LIG1        0.1944
     30 O          -6.2660   -3.6682   -0.2659 O.2     1  LIG1       -0.4495
     31 H          -7.6698   -0.7631    0.2060 H       1  LIG1        0.0692
     32 O          -9.6743   -2.8128   -0.3331 O.3     1  LIG1       -0.4912
     33 C         -10.2827   -1.5545   -0.1200 C.3     1  LIG1        0.0790
     34 H         -11.3556   -1.7166   -0.2149 H       1  LIG1        0.0660
     35 H         -10.0623   -1.1685    0.8819 H       1  LIG1        0.0660
     36 H          -9.9599   -0.8229   -0.8693 H       1  LIG1        0.0660
     37 C          -7.8343   -5.3836   -0.7037 C.ar    1  LIG1        0.1054
     38 C          -8.9394   -6.1074   -1.1434 C.ar    1  LIG1        0.0950
     39 C          -8.5410   -7.4790   -1.1497 C.ar    1  LIG1        0.1583
     40 C          -7.2340   -7.5733   -0.7361 C.ar    1  LIG1        0.0955
     41 N          -6.8016   -6.2661   -0.5089 N.ar    1  LIG1       -0.3476
     42 H          -6.0025   -6.0324    0.0631 H       1  LIG1        0.1661
     43 C         -10.1980   -5.6339   -1.5926 C.1     1  LIG1       -0.0637
     44 C         -11.2745   -5.2783   -1.9977 C.1     1  LIG1       -0.1137
     45 H         -12.2248   -4.9578   -2.3558 H       1  LIG1        0.1232
     46 O          -9.3594   -8.4782   -1.5601 O.3     1  LIG1       -0.5035
     47 H          -8.8233   -9.2592   -1.7476 H       1  LIG1        0.2923
     48 C          -5.0143   -8.6988   -1.0272 C.ar    1  LIG1        0.2225
     49 C          -6.3585   -8.7325   -0.6118 C.ar    1  LIG1        0.0667
     50 C          -6.8245   -9.9477   -0.1051 C.ar    1  LIG1       -0.0035
     51 C          -5.9675  -11.0381   -0.0059 C.ar    1  LIG1        0.1468
     52 C          -4.6240  -10.8718   -0.3793 C.ar    1  LIG1        0.1165
     53 N          -4.1932   -9.7192   -0.8986 N.ar    1  LIG1       -0.2088
     54 H          -7.8520  -10.0116    0.2328 H       1  LIG1        0.0663
     55 O          -4.4708   -7.5840   -1.5837 O.3     1  LIG1       -0.4919
     56 H          -5.1889   -6.9833   -1.8284 H       1  LIG1        0.2937
     57 O          -6.3486  -12.2713    0.4244 O.3     1  LIG1       -0.4929
     58 C          -7.7006  -12.4627    0.7820 C.3     1  LIG1        0.0789
     59 H          -7.7935  -13.5098    1.0682 H       1  LIG1        0.0660
     60 H          -7.9902  -11.8310    1.6300 H       1  LIG1        0.0660
     61 H          -8.3730  -12.2609   -0.0604 H       1  LIG1        0.0660
     62 C          -3.3035  -12.6437    0.8876 C.ar    1  LIG1       -0.0406
     63 C          -2.3367  -13.6464    0.8433 C.ar    1  LIG1       -0.0504
     64 C          -3.6249  -11.9735   -0.3033 C.ar    1  LIG1        0.0070
     65 C          -1.6733  -14.0040   -0.3316 C.ar    1  LIG1       -0.0143
     66 H          -2.0917  -14.1723    1.7618 H       1  LIG1        0.0626
     67 C          -2.9427  -12.3026   -1.4757 C.ar    1  LIG1       -0.0516
     68 C          -1.9877  -13.3052   -1.5014 C.ar    1  LIG1       -0.0533
     69 H          -3.1650  -11.7429   -2.3777 H       1  LIG1        0.0624
     70 C          -3.9404  -12.3009    2.2085 C.3     1  LIG1       -0.0391
     71 H          -3.3005  -12.6133    3.0365 H       1  LIG1        0.0278
     72 H          -4.9081  -12.7963    2.3170 H       1  LIG1        0.0278
     73 H          -4.1152  -11.2264    2.3024 H       1  LIG1        0.0278
     74 H          -1.4659  -13.5331   -2.4247 H       1  LIG1        0.0624
     75 C          -0.5802  -16.1109   -1.2505 C.ar    1  LIG1        0.1246
     76 C          -0.6321  -15.0600   -0.3051 C.ar    1  LIG1        0.0217
     77 C           0.3518  -15.0730    0.6737 C.ar    1  LIG1       -0.0487
     78 C           1.3240  -16.0623    0.7079 C.ar    1  LIG1       -0.0349
     79 C           1.2898  -17.0625   -0.2616 C.ar    1  LIG1        0.0765
     80 N           0.3484  -17.0663   -1.2183 N.ar    1  LIG1       -0.2317
     81 H           0.3685  -14.2734    1.4078 H       1  LIG1        0.0625
     82 N          -1.4897  -16.2029   -2.2816 N.pl3   1  LIG1       -0.3426
     83 H          -1.5380  -17.1183   -2.7026 H       1  LIG1        0.1437
     84 H          -2.3747  -15.7365   -2.1541 H       1  LIG1        0.1437
     85 H           2.1091  -16.0363    1.4519 H       1  LIG1        0.0639
     86 C           2.7113  -18.8282   -1.4447 C.ar    1  LIG1        0.1256
     87 C           2.2825  -18.1648   -0.2609 C.ar    1  LIG1        0.0434
     88 C           2.8412  -18.5870    0.9388 C.ar    1  LIG1       -0.0062
     89 C           3.7926  -19.5978    0.9610 C.ar    1  LIG1        0.1356
     90 C           4.1502  -20.1685   -0.2491 C.ar    1  LIG1        0.0711
     91 N           3.6236  -19.8017   -1.4137 N.ar    1  LIG1       -0.2364
     92 H           2.5290  -18.1495    1.8801 H       1  LIG1        0.0662
     93 H           4.8895  -20.9700   -0.2826 H       1  LIG1        0.0867
     94 N           2.2515  -18.4718   -2.6859 N.pl3   1  LIG1       -0.3426
     95 H           2.4842  -19.1328   -3.4103 H       1  LIG1        0.1437
     96 H           1.3370  -18.0411   -2.7016 H       1  LIG1        0.1437
     97 O           4.3127  -19.9821    2.1662 O.3     1  LIG1       -0.5052
     98 H           4.9442  -20.6963    2.0216 H       1  LIG1        0.2922
@<TRIPOS>BOND
     1    95    94    1
     2    83    82    1
     3    96    94    1
     4    94    86    1
     5    74    68    1
     6    69    67    1
     7    45    44    1
     8    82    84    1
     9    82    75    1
    10    44    43    3
    11    56    55    1
    12    47    46    1
    13    43    38    1
    14    55    48    1
    15    46    39    1
    16    68    67   ar
    17    68    65   ar
    18    67    64   ar
    19    86    91   ar
    20    86    87   ar
    21    91    90   ar
    22    75    80   ar
    23    75    76   ar
    24    80    79   ar
    25    39    38   ar
    26    39    40   ar
    27    38    37   ar
    28    48    53   ar
    29    48    49   ar
    30    53    52   ar
    31    24    23    1
    32    36    33    1
    33    25    23    1
    34    40    49    1
    35    40    41   ar
    36    37    41   ar
    37    37    29    1
    38    49    50   ar
    39    41    42    1
    40    29    30   ar
    41    29    28   ar
    42    23    20    1
    43    52    64    1
    44    52    51   ar
    45    32    28    1
    46    32    33    1
    47    65    76    1
    48    65    63   ar
    49    76    77   ar
    50    64    62   ar
    51    93    90    1
    52    30    26   ar
    53    28    27   ar
    54    79    87    1
    55    79    78   ar
    56    87    88   ar
    57    90    89   ar
    58    34    33    1
    59    33    35    1
    60    50    51   ar
    61    50    54    1
    62    61    58    1
    63    51    57    1
    64    26    27   ar
    65    26    17    1
    66    27    31    1
    67    20    17   ar
    68    20    19   ar
    69    21    19    1
    70    13    12    1
    71    17    15   ar
    72    19    16   ar
    73    57    58    1
    74    10     8    1
    75    77    78   ar
    76    77    81    1
    77    12     3    1
    78    78    85    1
    79    15    18    1
    80    15    14   ar
    81    58    59    1
    82    58    60    1
    83    16    14   ar
    84    16     4    1
    85    63    62   ar
    86    63    66    1
    87    62    70    1
    88    88    89   ar
    89    88    92    1
    90    89    97    1
    91     3     4   ar
    92     3     2   ar
    93    14    22    1
    94     4     5   ar
    95     2     8    1
    96     2     1   ar
    97     8    11    1
    98     8     9    1
    99     5     1   ar
   100     5     6    1
   101     1     7    1
   102    98    97    1
   103    70    73    1
   104    70    72    1
   105    70    71    1
