@<TRIPOS>MOLECULE
mol_data/opt/cam/geoms/mol2/13if13if-13if.out
 38 40 0 0 0
SMALL
GASTEIGER

@<TRIPOS>ATOM
      1 C           1.2523   -0.3132   -0.0580 C.ar    1  LIG1        0.0087
      2 C           0.8062    0.9855    0.0088 C.ar    1  LIG1        0.0090
      3 C          -0.6101    0.9036    0.0426 C.ar    1  LIG1        0.1463
      4 C          -0.9958   -0.4198   -0.0052 C.ar    1  LIG1        0.1055
      5 N           0.1703   -1.1503   -0.0716 N.ar    1  LIG1       -0.3563
      6 H           0.2100   -2.1516   -0.1436 H       1  LIG1        0.1655
      7 H           2.2599   -0.6977   -0.1013 H       1  LIG1        0.0811
      8 C           1.6209    2.2394    0.0368 C.3     1  LIG1       -0.0348
      9 H           1.4984    2.7935    0.9755 H       1  LIG1        0.0279
     10 H           1.3454    2.9163   -0.7787 H       1  LIG1        0.0279
     11 H           2.6850    2.0164   -0.0648 H       1  LIG1        0.0279
     12 O          -1.5069    1.9495    0.0635 O.3     1  LIG1       -0.5043
     13 H          -1.1521    2.6576    0.6129 H       1  LIG1        0.2922
     14 C          -2.3216   -0.9921    0.0051 C.ar    1  LIG1        0.0735
     15 C          -2.7707   -2.3045    0.0252 C.ar    1  LIG1        0.0185
     16 C          -4.1846   -2.2262    0.0307 C.ar    1  LIG1        0.1470
     17 C          -4.5760   -0.9015    0.0243 C.ar    1  LIG1        0.1060
     18 N          -3.4181   -0.1675    0.0092 N.ar    1  LIG1       -0.3486
     19 H          -3.3416    0.8386    0.0280 H       1  LIG1        0.1661
     20 C          -1.9736   -3.5706    0.0603 C.3     1  LIG1       -0.0342
     21 H          -1.2430   -3.5750    0.8772 H       1  LIG1        0.0279
     22 H          -1.4345   -3.7636   -0.8758 H       1  LIG1        0.0279
     23 H          -2.6384   -4.4209    0.2314 H       1  LIG1        0.0279
     24 O          -5.0644   -3.2939    0.0923 O.3     1  LIG1       -0.5043
     25 H          -4.9904   -3.7992   -0.7265 H       1  LIG1        0.2922
     26 C          -5.9035   -0.3317    0.0433 C.ar    1  LIG1        0.0730
     27 C          -6.3516    0.9764   -0.0675 C.ar    1  LIG1        0.0178
     28 C          -7.7653    0.9116    0.0229 C.ar    1  LIG1        0.1376
     29 C          -8.1454   -0.3992    0.1811 C.ar    1  LIG1        0.0445
     30 N          -6.9920   -1.1469    0.1904 N.ar    1  LIG1       -0.3561
     31 H          -6.9065   -2.1455    0.3001 H       1  LIG1        0.1655
     32 H          -9.1204   -0.8489    0.2869 H       1  LIG1        0.0844
     33 C          -5.5545    2.2297   -0.2530 C.3     1  LIG1       -0.0342
     34 H          -6.2271    3.0693   -0.4382 H       1  LIG1        0.0279
     35 H          -4.8696    2.1639   -1.1056 H       1  LIG1        0.0279
     36 H          -4.9590    2.4841    0.6324 H       1  LIG1        0.0279
     37 O          -8.5488    2.0302   -0.0499 O.3     1  LIG1       -0.5050
     38 H          -9.4736    1.7665   -0.0011 H       1  LIG1        0.2922
@<TRIPOS>BOND
     1    35    33    1
     2    22    20    1
     3    10     8    1
     4    25    24    1
     5    34    33    1
     6    33    27    1
     7    33    36    1
     8     6     5    1
     9     7     1    1
    10     5     1   ar
    11     5     4   ar
    12    27    28   ar
    13    27    26   ar
    14    11     8    1
    15     1     2   ar
    16    37    38    1
    17    37    28    1
    18     4    14    1
    19     4     3   ar
    20    14    18   ar
    21    14    15   ar
    22     2     8    1
    23     2     3   ar
    24    18    17   ar
    25    18    19    1
    26    28    29   ar
    27    17    16   ar
    28    17    26    1
    29    15    16   ar
    30    15    20    1
    31    16    24    1
    32     8     9    1
    33     3    12    1
    34    26    30   ar
    35    20    23    1
    36    20    21    1
    37    12    13    1
    38    29    30   ar
    39    29    32    1
    40    30    31    1
