@<TRIPOS>MOLECULE
mol_data/opt/cam/geoms/mol2/13if13if13if-13if-.out
 50 53 0 0 0
SMALL
GASTEIGER

@<TRIPOS>ATOM
      1 C           1.1791    0.1236    0.8535 C.ar    1  LIG1        0.0087
      2 C           0.8441    1.1648    0.0219 C.ar    1  LIG1        0.0090
      3 C          -0.5222    0.9687   -0.3118 C.ar    1  LIG1        0.1463
      4 C          -0.9867   -0.1638    0.3192 C.ar    1  LIG1        0.1055
      5 N           0.0913   -0.6903    1.0134 N.ar    1  LIG1       -0.3563
      6 H           0.0104   -1.4206    1.7005 H       1  LIG1        0.1655
      7 H           2.1199   -0.0981    1.3348 H       1  LIG1        0.0811
      8 C           1.7188    2.2712   -0.4722 C.3     1  LIG1       -0.0348
      9 H           1.3430    3.2499   -0.1585 H       1  LIG1        0.0279
     10 H           1.7662    2.2841   -1.5653 H       1  LIG1        0.0279
     11 H           2.7376    2.1652   -0.0921 H       1  LIG1        0.0279
     12 O          -1.2136    1.7927   -1.1517 O.3     1  LIG1       -0.5043
     13 H          -2.0288    1.3412   -1.4081 H       1  LIG1        0.2922
     14 C          -2.2946   -0.7897    0.2726 C.ar    1  LIG1        0.0735
     15 C          -3.5613   -0.2443    0.4163 C.ar    1  LIG1        0.0185
     16 C          -4.4702   -1.3208    0.2613 C.ar    1  LIG1        0.1470
     17 C          -3.7723   -2.4886    0.0370 C.ar    1  LIG1        0.1060
     18 N          -2.4389   -2.1401    0.0528 N.ar    1  LIG1       -0.3486
     19 H          -1.6890   -2.7457   -0.2357 H       1  LIG1        0.1661
     20 C          -3.9295    1.1659    0.7621 C.3     1  LIG1       -0.0342
     21 H          -4.2676    1.2576    1.8014 H       1  LIG1        0.0279
     22 H          -4.7388    1.5355    0.1225 H       1  LIG1        0.0279
     23 H          -3.0809    1.8405    0.6395 H       1  LIG1        0.0279
     24 O          -5.8440   -1.2634    0.3050 O.3     1  LIG1       -0.5043
     25 H          -6.1099   -0.5330    0.8750 H       1  LIG1        0.2922
     26 C          -4.2629   -3.8301   -0.1659 C.ar    1  LIG1        0.0735
     27 C          -3.6032   -5.0405   -0.3362 C.ar    1  LIG1        0.0185
     28 C          -4.6170   -6.0202   -0.4547 C.ar    1  LIG1        0.1470
     29 C          -5.8535   -5.4166   -0.3509 C.ar    1  LIG1        0.1060
     30 N          -5.6110   -4.0656   -0.1951 N.ar    1  LIG1       -0.3486
     31 H          -6.2933   -3.3559    0.0269 H       1  LIG1        0.1661
     32 C          -2.1324   -5.3086   -0.4080 C.3     1  LIG1       -0.0342
     33 H          -1.6062   -4.9984    0.5025 H       1  LIG1        0.0279
     34 H          -1.6560   -4.8094   -1.2610 H       1  LIG1        0.0279
     35 H          -1.9603   -6.3794   -0.5314 H       1  LIG1        0.0279
     36 O          -4.3603   -7.3427   -0.6674 O.3     1  LIG1       -0.5043
     37 H          -5.1938   -7.7701   -0.9050 H       1  LIG1        0.2922
     38 C          -7.1777   -5.9983   -0.4529 C.ar    1  LIG1        0.0730
     39 C          -7.7061   -7.1316    0.1460 C.ar    1  LIG1        0.0178
     40 C          -9.0402   -7.2537   -0.3367 C.ar    1  LIG1        0.1376
     41 C          -9.2984   -6.2153   -1.1910 C.ar    1  LIG1        0.0445
     42 N          -8.1547   -5.4493   -1.2448 N.ar    1  LIG1       -0.3561
     43 H          -7.9899   -4.7004   -1.8958 H       1  LIG1        0.1655
     44 H         -10.1920   -5.9630   -1.7376 H       1  LIG1        0.0844
     45 C          -7.0606   -8.0088    1.1744 C.3     1  LIG1       -0.0342
     46 H          -6.1041   -7.5908    1.4936 H       1  LIG1        0.0279
     47 H          -6.8658   -9.0243    0.8074 H       1  LIG1        0.0279
     48 H          -7.6877   -8.1051    2.0690 H       1  LIG1        0.0279
     49 O          -9.9468   -8.2157    0.0037 O.3     1  LIG1       -0.5050
     50 H          -9.5268   -8.8262    0.6192 H       1  LIG1        0.2922
@<TRIPOS>BOND
     1    43    42    1
     2    44    41    1
     3    10     8    1
     4    13    12    1
     5    34    32    1
     6    42    41   ar
     7    42    38   ar
     8    41    40   ar
     9    12     3    1
    10    37    36    1
    11    36    28    1
    12    35    32    1
    13     8     9    1
    14     8    11    1
    15     8     2    1
    16    28    29   ar
    17    28    27   ar
    18    38    29    1
    19    38    39   ar
    20    32    27    1
    21    32    33    1
    22    29    30   ar
    23    40    49    1
    24    40    39   ar
    25    27    26   ar
    26     3     2   ar
    27     3     4   ar
    28    19    18    1
    29    30    26   ar
    30    30    31    1
    31    26    17    1
    32    49    50    1
    33     2     1   ar
    34    17    18   ar
    35    17    16   ar
    36    18    14   ar
    37    22    20    1
    38    39    45    1
    39    16    24    1
    40    16    15   ar
    41    14     4    1
    42    14    15   ar
    43    24    25    1
    44     4     5   ar
    45    15    20    1
    46    23    20    1
    47    20    21    1
    48    47    45    1
    49     1     5   ar
    50     1     7    1
    51     5     6    1
    52    45    46    1
    53    45    48    1
