@<TRIPOS>MOLECULE
mol_data/opt/cam/geoms/mol2/13if13if-.out
 26 27 0 0 0
SMALL
GASTEIGER

@<TRIPOS>ATOM
      1 C           1.1801   -0.2027   -0.5363 C.ar    1  LIG1        0.0087
      2 C           0.7758    1.0173   -0.0478 C.ar    1  LIG1        0.0090
      3 C          -0.6258    0.9104    0.1443 C.ar    1  LIG1        0.1463
      4 C          -1.0411   -0.3511   -0.2278 C.ar    1  LIG1        0.1055
      5 N           0.0939   -1.0287   -0.6279 N.ar    1  LIG1       -0.3563
      6 H           0.0847   -1.9382   -1.0560 H       1  LIG1        0.1655
      7 H           2.1667   -0.5418   -0.8143 H       1  LIG1        0.0811
      8 C           1.6160    2.2172    0.2486 C.3     1  LIG1       -0.0348
      9 H           1.4994    2.5368    1.2885 H       1  LIG1        0.0279
     10 H           1.3371    3.0692   -0.3791 H       1  LIG1        0.0279
     11 H           2.6743    2.0071    0.0769 H       1  LIG1        0.0279
     12 O          -1.4044    1.9264    0.6309 O.3     1  LIG1       -0.5043
     13 H          -2.1955    1.5363    1.0255 H       1  LIG1        0.2922
     14 C          -2.3779   -0.9118   -0.2253 C.ar    1  LIG1        0.0730
     15 C          -2.8579   -2.1718    0.0841 C.ar    1  LIG1        0.0178
     16 C          -4.2712   -2.1143   -0.0876 C.ar    1  LIG1        0.1376
     17 C          -4.6208   -0.8493   -0.4758 C.ar    1  LIG1        0.0445
     18 N          -3.4552   -0.1144   -0.5342 N.ar    1  LIG1       -0.3561
     19 H          -3.3617    0.7873   -0.9729 H       1  LIG1        0.1655
     20 H          -5.5870   -0.4224   -0.6879 H       1  LIG1        0.0844
     21 C          -2.0828   -3.3561    0.5717 C.3     1  LIG1       -0.0342
     22 H          -1.0852   -3.0585    0.9029 H       1  LIG1        0.0279
     23 H          -1.9591   -4.1309   -0.1952 H       1  LIG1        0.0279
     24 H          -2.5724   -3.8290    1.4315 H       1  LIG1        0.0279
     25 O          -5.1607   -3.1252    0.1321 O.3     1  LIG1       -0.5050
     26 H          -4.6689   -3.9274    0.3376 H       1  LIG1        0.2922
@<TRIPOS>BOND
     1     6     5    1
     2    19    18    1
     3     7     1    1
     4    20    17    1
     5     5     1   ar
     6     5     4   ar
     7     1     2   ar
     8    18    17   ar
     9    18    14   ar
    10    17    16   ar
    11    10     8    1
    12     4    14    1
    13     4     3   ar
    14    14    15   ar
    15    23    21    1
    16    16    15   ar
    17    16    25    1
    18     2     3   ar
    19     2     8    1
    20    11     8    1
    21    15    21    1
    22    25    26    1
    23     3    12    1
    24     8     9    1
    25    21    22    1
    26    21    24    1
    27    12    13    1
