@<TRIPOS>MOLECULE
mol_data/opt/cam/geoms/mol2/13if6af-13ei-4el-.out
 53 56 0 0 0
SMALL
GASTEIGER

@<TRIPOS>ATOM
      1 C           1.2701   -0.5530    0.0852 C.ar    1  LIG1        0.0087
      2 C           1.0007    0.6568   -0.5088 C.ar    1  LIG1        0.0089
      3 C          -0.4124    0.7347   -0.6026 C.ar    1  LIG1        0.1449
      4 C          -0.9689   -0.4136   -0.0709 C.ar    1  LIG1        0.0903
      5 N           0.0956   -1.2083    0.3190 N.ar    1  LIG1       -0.3574
      6 H           0.0012   -2.0401    0.8765 H       1  LIG1        0.1655
      7 H           2.2191   -0.9928    0.3535 H       1  LIG1        0.0811
      8 C           1.9682    1.6902   -0.9870 C.3     1  LIG1       -0.0348
      9 H           1.8481    2.6335   -0.4456 H       1  LIG1        0.0279
     10 H           1.8200    1.9112   -2.0482 H       1  LIG1        0.0279
     11 H           2.9991    1.3546   -0.8526 H       1  LIG1        0.0279
     12 O          -1.0506    1.7963   -1.1735 O.3     1  LIG1       -0.5044
     13 H          -1.9346    1.5238   -1.4483 H       1  LIG1        0.2922
     14 C          -2.7291   -2.1828    0.0142 C.ar    1  LIG1        0.0378
     15 C          -2.3560   -0.8303    0.0423 C.ar    1  LIG1        0.0235
     16 C          -3.3935    0.0887    0.1741 C.ar    1  LIG1       -0.0073
     17 C          -4.7194   -0.3287    0.2638 C.ar    1  LIG1        0.1448
     18 C          -4.9883   -1.7121    0.2578 C.ar    1  LIG1        0.1295
     19 N          -3.9781   -2.5907    0.1278 N.ar    1  LIG1       -0.2491
     20 H          -3.2011    1.1537    0.2456 H       1  LIG1        0.0662
     21 H          -1.9797   -2.9583   -0.1261 H       1  LIG1        0.0836
     22 O          -5.6320    0.6561    0.3312 O.3     1  LIG1       -0.5045
     23 H          -6.5260    0.3460    0.5577 H       1  LIG1        0.2922
     24 C          -6.3092   -2.3559    0.3312 C.ar    1  LIG1        0.0848
     25 C          -7.6235   -1.9805    0.6252 C.ar    1  LIG1        0.0550
     26 C          -8.4562   -3.1367    0.4927 C.ar    1  LIG1       -0.0091
     27 C          -7.6299   -4.1778    0.1271 C.ar    1  LIG1        0.0524
     28 N          -6.3529   -3.6847    0.0518 N.ar    1  LIG1       -0.3516
     29 H          -5.5108   -4.1859   -0.1940 H       1  LIG1        0.1660
     30 C          -8.1096   -0.7202    1.0587 C.1     1  LIG1       -0.0672
     31 C          -8.5574    0.3369    1.4344 C.1     1  LIG1       -0.1138
     32 H          -8.9439    1.2697    1.7756 H       1  LIG1        0.1232
     33 C          -9.9216   -3.1752    0.7774 C.3     1  LIG1       -0.0365
     34 H         -10.2610   -4.1960    0.9612 H       1  LIG1        0.0279
     35 H         -10.5051   -2.7862   -0.0620 H       1  LIG1        0.0279
     36 H         -10.1576   -2.5697    1.6566 H       1  LIG1        0.0279
     37 C          -8.8850   -6.0834   -0.9593 C.ar    1  LIG1        0.0340
     38 C          -9.0654   -7.4620   -1.0925 C.ar    1  LIG1       -0.0422
     39 C          -7.8828   -5.6111   -0.0817 C.ar    1  LIG1        0.0174
     40 C          -8.2773   -8.3760   -0.4088 C.ar    1  LIG1       -0.0188
     41 H          -9.8359   -7.8205   -1.7660 H       1  LIG1        0.0631
     42 C          -7.0897   -6.5327    0.5936 C.ar    1  LIG1       -0.0097
     43 C          -7.2728   -7.9057    0.4355 C.ar    1  LIG1        0.1208
     44 H          -6.3252   -6.1961    1.2850 H       1  LIG1        0.0661
     45 H          -8.4488   -9.4357   -0.5454 H       1  LIG1        0.0654
     46 C          -9.6792   -5.2028   -1.7607 C.1     1  LIG1       -0.0690
     47 C         -10.3595   -4.5063   -2.4695 C.1     1  LIG1       -0.1139
     48 H         -10.9502   -3.8782   -3.0955 H       1  LIG1        0.1232
     49 O          -6.4369   -8.6965    1.1526 O.3     1  LIG1       -0.4951
     50 C          -6.5911  -10.0968    1.0512 C.3     1  LIG1        0.0788
     51 H          -5.8351  -10.5329    1.7036 H       1  LIG1        0.0660
     52 H          -7.5840  -10.4180    1.3859 H       1  LIG1        0.0660
     53 H          -6.4270  -10.4475    0.0259 H       1  LIG1        0.0660
@<TRIPOS>BOND
     1    48    47    1
     2    47    46    3
     3    10     8    1
     4    41    38    1
     5    46    37    1
     6    13    12    1
     7    12     3    1
     8    38    37   ar
     9    38    40   ar
    10     8    11    1
    11     8     2    1
    12     8     9    1
    13    37    39   ar
    14     3     2   ar
    15     3     4   ar
    16    45    40    1
    17     2     1   ar
    18    40    43   ar
    19    29    28    1
    20    21    14    1
    21    39    27    1
    22    39    42   ar
    23     4    15    1
    24     4     5   ar
    25    35    33    1
    26    14    15   ar
    27    14    19   ar
    28    53    50    1
    29    15    16   ar
    30    28    27   ar
    31    28    24   ar
    32     1     5   ar
    33     1     7    1
    34    27    26   ar
    35    19    18   ar
    36    16    20    1
    37    16    17   ar
    38    18    17   ar
    39    18    24    1
    40    17    22    1
    41     5     6    1
    42    22    23    1
    43    24    25   ar
    44    43    42   ar
    45    43    49    1
    46    26    25   ar
    47    26    33    1
    48    42    44    1
    49    25    30    1
    50    33    34    1
    51    33    36    1
    52    50    49    1
    53    50    52    1
    54    50    51    1
    55    30    31    3
    56    31    32    1
