@<TRIPOS>MOLECULE
mol_data/opt/cam/geoms/mol2/13if13if-13if-13if-.out
 50 53 0 0 0
SMALL
GASTEIGER

@<TRIPOS>ATOM
      1 C           1.3112   -0.2808    0.3908 C.ar    1  LIG1        0.0087
      2 C           0.8180    0.9087    0.8750 C.ar    1  LIG1        0.0090
      3 C          -0.5911    0.8236    0.7363 C.ar    1  LIG1        0.1463
      4 C          -0.9256   -0.3926    0.1782 C.ar    1  LIG1        0.1055
      5 N           0.2658   -1.0531   -0.0299 N.ar    1  LIG1       -0.3563
      6 H           0.3422   -1.9709   -0.4320 H       1  LIG1        0.1655
      7 H           2.3311   -0.6256    0.3136 H       1  LIG1        0.0811
      8 C           1.5858    2.0649    1.4331 C.3     1  LIG1       -0.0348
      9 H           1.3370    2.2605    2.4834 H       1  LIG1        0.0279
     10 H           1.3943    2.9874    0.8745 H       1  LIG1        0.0279
     11 H           2.6603    1.8749    1.3922 H       1  LIG1        0.0279
     12 O          -1.5242    1.7835    1.0573 O.3     1  LIG1       -0.5043
     13 H          -1.1703    2.3422    1.7582 H       1  LIG1        0.2922
     14 C          -2.2272   -0.9303   -0.1408 C.ar    1  LIG1        0.0735
     15 C          -2.6231   -2.1571   -0.6569 C.ar    1  LIG1        0.0185
     16 C          -4.0364   -2.1152   -0.7132 C.ar    1  LIG1        0.1470
     17 C          -4.4798   -0.8986   -0.2364 C.ar    1  LIG1        0.1060
     18 N          -3.3462   -0.1773    0.0890 N.ar    1  LIG1       -0.3486
     19 H          -3.3142    0.7054    0.5778 H       1  LIG1        0.1661
     20 C          -1.7767   -3.3092   -1.0998 C.3     1  LIG1       -0.0342
     21 H          -1.1905   -3.7395   -0.2785 H       1  LIG1        0.0279
     22 H          -1.0833   -3.0335   -1.9037 H       1  LIG1        0.0279
     23 H          -2.4147   -4.1051   -1.4885 H       1  LIG1        0.0279
     24 O          -4.7965   -3.1359   -1.2046 O.3     1  LIG1       -0.5043
     25 H          -5.6945   -2.8019   -1.3287 H       1  LIG1        0.2922
     26 C          -5.8275   -0.3733   -0.1485 C.ar    1  LIG1        0.0735
     27 C          -6.9855   -0.9524    0.3505 C.ar    1  LIG1        0.0185
     28 C          -8.0200    0.0056    0.1782 C.ar    1  LIG1        0.1470
     29 C          -7.4962    1.1433   -0.3960 C.ar    1  LIG1        0.1060
     30 N          -6.1517    0.8818   -0.5965 N.ar    1  LIG1       -0.3486
     31 H          -5.4933    1.5421   -0.9757 H       1  LIG1        0.1661
     32 C          -7.1274   -2.2892    1.0108 C.3     1  LIG1       -0.0342
     33 H          -6.1483   -2.7375    1.1891 H       1  LIG1        0.0279
     34 H          -7.7080   -3.0035    0.4132 H       1  LIG1        0.0279
     35 H          -7.6277   -2.2017    1.9825 H       1  LIG1        0.0279
     36 O          -9.3341   -0.1395    0.5200 O.3     1  LIG1       -0.5043
     37 H          -9.4705   -1.0408    0.8319 H       1  LIG1        0.2922
     38 C          -8.1091    2.3924   -0.8023 C.ar    1  LIG1        0.0730
     39 C          -9.0408    3.1898   -0.1676 C.ar    1  LIG1        0.0178
     40 C          -9.2745    4.2964   -1.0333 C.ar    1  LIG1        0.1376
     41 C          -8.4901    4.1636   -2.1468 C.ar    1  LIG1        0.0445
     42 N          -7.7577    3.0060   -1.9834 N.ar    1  LIG1       -0.3561
     43 H          -7.2729    2.5348   -2.7286 H       1  LIG1        0.1655
     44 H          -8.3831    4.7997   -3.0099 H       1  LIG1        0.0844
     45 C          -9.6573    2.9785    1.1782 C.3     1  LIG1       -0.0342
     46 H          -9.0365    2.3198    1.7879 H       1  LIG1        0.0279
     47 H         -10.6461    2.5116    1.1164 H       1  LIG1        0.0279
     48 H          -9.7641    3.9263    1.7196 H       1  LIG1        0.0279
     49 O         -10.0995    5.3580   -0.7935 O.3     1  LIG1       -0.5050
     50 H         -10.6478    5.1469   -0.0300 H       1  LIG1        0.2922
@<TRIPOS>BOND
     1    44    41    1
     2    43    42    1
     3    41    42   ar
     4    41    40   ar
     5    42    38   ar
     6    22    20    1
     7    23    20    1
     8    25    24    1
     9    24    16    1
    10    20    15    1
    11    20    21    1
    12    40    49    1
    13    40    39   ar
    14    31    30    1
    15    38    29    1
    16    38    39   ar
    17    49    50    1
    18    16    15   ar
    19    16    17   ar
    20    15    14   ar
    21    30    29   ar
    22    30    26   ar
    23     6     5    1
    24    29    28   ar
    25    17    26    1
    26    17    18   ar
    27    39    45    1
    28    26    27   ar
    29    14    18   ar
    30    14     4    1
    31     5     4   ar
    32     5     1   ar
    33    18    19    1
    34     4     3   ar
    35    28    27   ar
    36    28    36    1
    37     7     1    1
    38    27    32    1
    39     1     2   ar
    40    34    32    1
    41    36    37    1
    42     3     2   ar
    43     3    12    1
    44    10     8    1
    45     2     8    1
    46    32    33    1
    47    32    35    1
    48    12    13    1
    49    47    45    1
    50    45    48    1
    51    45    46    1
    52    11     8    1
    53     8     9    1
