@<TRIPOS>MOLECULE
mol_data/opt/cam/geoms/mol2/13if13if-13if13if-.out
 50 53 0 0 0
SMALL
GASTEIGER

@<TRIPOS>ATOM
      1 C           1.3154   -0.2748    0.0195 C.ar    1  LIG1        0.0087
      2 C           0.8660    1.0194    0.1377 C.ar    1  LIG1        0.0090
      3 C          -0.5502    0.9374    0.1132 C.ar    1  LIG1        0.1463
      4 C          -0.9328   -0.3813   -0.0183 C.ar    1  LIG1        0.1055
      5 N           0.2362   -1.1087   -0.0784 N.ar    1  LIG1       -0.3563
      6 H           0.2796   -2.1051   -0.1992 H       1  LIG1        0.1655
      7 H           2.3245   -0.6571   -0.0059 H       1  LIG1        0.0811
      8 C           1.6786    2.2688    0.2639 C.3     1  LIG1       -0.0348
      9 H           1.5057    2.7822    1.2177 H       1  LIG1        0.0279
     10 H           1.4522    2.9815   -0.5363 H       1  LIG1        0.0279
     11 H           2.7465    2.0463    0.2123 H       1  LIG1        0.0279
     12 O          -1.4498    1.9791    0.1634 O.3     1  LIG1       -0.5043
     13 H          -1.0682    2.6988    0.6783 H       1  LIG1        0.2922
     14 C          -2.2575   -0.9508   -0.0865 C.ar    1  LIG1        0.0735
     15 C          -2.7080   -2.2610   -0.1575 C.ar    1  LIG1        0.0185
     16 C          -4.1211   -2.1799   -0.1945 C.ar    1  LIG1        0.1470
     17 C          -4.5120   -0.8558   -0.1376 C.ar    1  LIG1        0.1060
     18 N          -3.3530   -0.1245   -0.0722 N.ar    1  LIG1       -0.3486
     19 H          -3.2749    0.8769    0.0231 H       1  LIG1        0.1661
     20 C          -1.9131   -3.5288   -0.1705 C.3     1  LIG1       -0.0342
     21 H          -1.2160   -3.5869    0.6731 H       1  LIG1        0.0279
     22 H          -1.3373   -3.6638   -1.0947 H       1  LIG1        0.0279
     23 H          -2.5842   -4.3865   -0.0797 H       1  LIG1        0.0279
     24 O          -5.0036   -3.2459   -0.2246 O.3     1  LIG1       -0.5043
     25 H          -4.9023   -3.7064   -1.0667 H       1  LIG1        0.2922
     26 C          -5.8385   -0.2887   -0.1365 C.ar    1  LIG1        0.0735
     27 C          -6.2933    1.0182   -0.2344 C.ar    1  LIG1        0.0185
     28 C          -7.7057    0.9368   -0.1835 C.ar    1  LIG1        0.1470
     29 C          -8.0926   -0.3847   -0.0661 C.ar    1  LIG1        0.1060
     30 N          -6.9314   -1.1143   -0.0412 N.ar    1  LIG1       -0.3486
     31 H          -6.8441   -2.1186   -0.0022 H       1  LIG1        0.1661
     32 C          -5.5014    2.2783   -0.3896 C.3     1  LIG1       -0.0342
     33 H          -6.1636    3.0964   -0.6846 H       1  LIG1        0.0279
     34 H          -4.7358    2.1889   -1.1667 H       1  LIG1        0.0279
     35 H          -4.9980    2.5836    0.5361 H       1  LIG1        0.0279
     36 O          -8.5930    1.9925   -0.3000 O.3     1  LIG1       -0.5043
     37 H          -8.4734    2.5809    0.4553 H       1  LIG1        0.2922
     38 C          -9.4199   -0.9510    0.0059 C.ar    1  LIG1        0.0730
     39 C          -9.8725   -2.2343    0.2795 C.ar    1  LIG1        0.0178
     40 C         -11.2911   -2.1725    0.2025 C.ar    1  LIG1        0.1376
     41 C         -11.6649   -0.8876   -0.0984 C.ar    1  LIG1        0.0445
     42 N         -10.5113   -0.1544   -0.2096 N.ar    1  LIG1       -0.3561
     43 H         -10.4251    0.8292   -0.4152 H       1  LIG1        0.1655
     44 H         -12.6434   -0.4565   -0.2312 H       1  LIG1        0.0844
     45 C          -9.0696   -3.4500    0.6256 C.3     1  LIG1       -0.0342
     46 H          -8.2823   -3.2272    1.3525 H       1  LIG1        0.0279
     47 H          -8.5922   -3.9183   -0.2446 H       1  LIG1        0.0279
     48 H          -9.7084   -4.2089    1.0884 H       1  LIG1        0.0279
     49 O         -12.1694   -3.1974    0.4403 O.3     1  LIG1       -0.5050
     50 H         -11.7626   -4.0198    0.1470 H       1  LIG1        0.2922
@<TRIPOS>BOND
     1    34    32    1
     2    22    20    1
     3    25    24    1
     4    33    32    1
     5    10     8    1
     6    43    42    1
     7    32    27    1
     8    32    35    1
     9    36    28    1
    10    36    37    1
    11    47    45    1
    12    27    28   ar
    13    27    26   ar
    14    44    41    1
    15    24    16    1
    16    42    41   ar
    17    42    38   ar
    18     6     5    1
    19    16    15   ar
    20    16    17   ar
    21    28    29   ar
    22    20    15    1
    23    20    23    1
    24    20    21    1
    25    15    14   ar
    26    17    26    1
    27    17    18   ar
    28    26    30   ar
    29    41    40   ar
    30    14    18   ar
    31    14     4    1
    32     5     4   ar
    33     5     1   ar
    34    18    19    1
    35    29    30   ar
    36    29    38    1
    37    30    31    1
    38     4     3   ar
    39     7     1    1
    40    38    39   ar
    41     1     2   ar
    42     3     2   ar
    43     3    12    1
    44     2     8    1
    45    50    49    1
    46    12    13    1
    47    40    39   ar
    48    40    49    1
    49    11     8    1
    50     8     9    1
    51    39    45    1
    52    45    48    1
    53    45    46    1
