@<TRIPOS>MOLECULE
mol_data/opt/cam/geoms/mol2/13if13if13if-13if.out
 50 53 0 0 0
SMALL
GASTEIGER

@<TRIPOS>ATOM
      1 C           1.1889    0.1428    0.7961 C.ar    1  LIG1        0.0087
      2 C           0.8794    1.0881   -0.1519 C.ar    1  LIG1        0.0090
      3 C          -0.4849    0.8722   -0.4822 C.ar    1  LIG1        0.1463
      4 C          -0.9731   -0.1770    0.2645 C.ar    1  LIG1        0.1055
      5 N           0.0883   -0.6354    1.0295 N.ar    1  LIG1       -0.3563
      6 H          -0.0135   -1.2799    1.7951 H       1  LIG1        0.1655
      7 H           2.1200   -0.0341    1.3136 H       1  LIG1        0.0811
      8 C           1.7754    2.1218   -0.7536 C.3     1  LIG1       -0.0348
      9 H           1.4083    3.1337   -0.5570 H       1  LIG1        0.0279
     10 H           1.8376    2.0116   -1.8405 H       1  LIG1        0.0279
     11 H           2.7875    2.0471   -0.3490 H       1  LIG1        0.0279
     12 O          -1.1528    1.6042   -1.4198 O.3     1  LIG1       -0.5043
     13 H          -1.9804    1.1472   -1.6208 H       1  LIG1        0.2922
     14 C          -2.2884   -0.7886    0.2664 C.ar    1  LIG1        0.0735
     15 C          -3.5490   -0.2166    0.3316 C.ar    1  LIG1        0.0185
     16 C          -4.4710   -1.2922    0.2720 C.ar    1  LIG1        0.1470
     17 C          -3.7864   -2.4856    0.1826 C.ar    1  LIG1        0.1060
     18 N          -2.4478   -2.1542    0.1872 N.ar    1  LIG1       -0.3486
     19 H          -1.7037   -2.7888   -0.0486 H       1  LIG1        0.1661
     20 C          -3.9026    1.2263    0.5209 C.3     1  LIG1       -0.0342
     21 H          -4.3047    1.4201    1.5228 H       1  LIG1        0.0279
     22 H          -4.6598    1.5515   -0.2011 H       1  LIG1        0.0279
     23 H          -3.0298    1.8686    0.3951 H       1  LIG1        0.0279
     24 O          -5.8437   -1.2134    0.2773 O.3     1  LIG1       -0.5043
     25 H          -6.1158   -0.4400    0.7838 H       1  LIG1        0.2922
     26 C          -4.2951   -3.8330    0.1048 C.ar    1  LIG1        0.0735
     27 C          -3.6619   -5.0677    0.0841 C.ar    1  LIG1        0.0185
     28 C          -4.6980   -6.0289    0.0024 C.ar    1  LIG1        0.1470
     29 C          -5.9232   -5.3905   -0.0161 C.ar    1  LIG1        0.1060
     30 N          -5.6495   -4.0489    0.0475 N.ar    1  LIG1       -0.3486
     31 H          -6.3237   -3.2995    0.0914 H       1  LIG1        0.1661
     32 C          -2.1997   -5.3765    0.1573 C.3     1  LIG1       -0.0342
     33 H          -1.7125   -4.8612    0.9921 H       1  LIG1        0.0279
     34 H          -1.6586   -5.1147   -0.7611 H       1  LIG1        0.0279
     35 H          -2.0569   -6.4476    0.3207 H       1  LIG1        0.0279
     36 O          -4.5418   -7.4044    0.0023 O.3     1  LIG1       -0.5043
     37 H          -4.0895   -7.6625   -0.8101 H       1  LIG1        0.2922
     38 C          -7.2536   -5.9503   -0.0739 C.ar    1  LIG1        0.0730
     39 C          -8.5018   -5.3603   -0.2095 C.ar    1  LIG1        0.0178
     40 C          -9.4377   -6.4254   -0.2029 C.ar    1  LIG1        0.1376
     41 C          -8.7630   -7.6148   -0.0692 C.ar    1  LIG1        0.0445
     42 N          -7.4263   -7.3049    0.0073 N.ar    1  LIG1       -0.3561
     43 H          -6.6523   -7.9417    0.1171 H       1  LIG1        0.1655
     44 H          -9.1186   -8.6323   -0.0218 H       1  LIG1        0.0844
     45 C          -8.8455   -3.9101   -0.3488 C.3     1  LIG1       -0.0342
     46 H          -9.9041   -3.8051   -0.5939 H       1  LIG1        0.0279
     47 H          -8.2741   -3.4237   -1.1469 H       1  LIG1        0.0279
     48 H          -8.6726   -3.3456    0.5758 H       1  LIG1        0.0279
     49 O         -10.7828   -6.2093   -0.3201 O.3     1  LIG1       -0.5050
     50 H         -11.2348   -7.0593   -0.3406 H       1  LIG1        0.2922
@<TRIPOS>BOND
     1    10     8    1
     2    13    12    1
     3    12     3    1
     4    47    45    1
     5    37    36    1
     6    34    32    1
     7     8     9    1
     8     8    11    1
     9     8     2    1
    10    46    45    1
    11     3     2   ar
    12     3     4   ar
    13    45    39    1
    14    45    48    1
    15    50    49    1
    16    49    40    1
    17    39    40   ar
    18    39    38   ar
    19    40    41   ar
    20    22    20    1
    21     2     1   ar
    22    38    29    1
    23    38    42   ar
    24    41    44    1
    25    41    42   ar
    26    19    18    1
    27    29    28   ar
    28    29    30   ar
    29    36    28    1
    30    28    27   ar
    31    42    43    1
    32    30    31    1
    33    30    26   ar
    34    27    26   ar
    35    27    32    1
    36    26    17    1
    37    32    35    1
    38    32    33    1
    39    17    18   ar
    40    17    16   ar
    41    18    14   ar
    42     4    14    1
    43     4     5   ar
    44    14    15   ar
    45    16    24    1
    46    16    15   ar
    47    24    25    1
    48    15    20    1
    49    23    20    1
    50    20    21    1
    51     1     5   ar
    52     1     7    1
    53     5     6    1
