@<TRIPOS>MOLECULE
mol_data/opt/cam/geoms/mol2/13if13df-6he13ei.out
 52 55 0 0 0
SMALL
GASTEIGER

@<TRIPOS>ATOM
      1 C           0.9777    0.1795   -1.1049 C.ar    1  LIG1        0.0052
      2 C           0.6002    1.4280   -0.6506 C.ar    1  LIG1       -0.0325
      3 C          -0.7153    1.2900   -0.1208 C.ar    1  LIG1       -0.0304
      4 C          -1.1029   -0.0371   -0.2718 C.ar    1  LIG1        0.0843
      5 N          -0.0581   -0.6980   -0.8837 N.ar    1  LIG1       -0.3580
      6 H          -0.0323   -1.6940   -1.0338 H       1  LIG1        0.1654
      7 H           1.8979   -0.1480   -1.5658 H       1  LIG1        0.0809
      8 C           1.4211    2.6833   -0.7043 C.3     1  LIG1       -0.0383
      9 H           1.5656    3.1133    0.2936 H       1  LIG1        0.0278
     10 H           0.9448    3.4546   -1.3209 H       1  LIG1        0.0278
     11 H           2.4115    2.4897   -1.1264 H       1  LIG1        0.0278
     12 H          -1.2948    2.0680    0.3560 H       1  LIG1        0.0642
     13 C          -2.3115   -0.7221    0.0860 C.ar    1  LIG1        0.1736
     14 C          -3.5034   -0.3313    0.6502 C.ar    1  LIG1        0.0907
     15 C          -4.2938   -1.5292    0.7819 C.ar    1  LIG1        0.1188
     16 C          -3.5414   -2.5879    0.2863 C.ar    1  LIG1        0.1582
     17 O          -2.3497   -2.0877   -0.1459 O.2     1  LIG1       -0.4500
     18 N          -3.8796    0.9421    1.0563 N.pl3   1  LIG1       -0.3540
     19 H          -3.5623    1.6826    0.4430 H       1  LIG1        0.1425
     20 H          -4.8687    1.0288    1.2559 H       1  LIG1        0.1425
     21 N          -6.7049   -1.4888    1.6986 N.1     1  LIG1       -0.1907
     22 C          -5.6171   -1.5450    1.2825 C.1     1  LIG1        0.1049
     23 C          -3.0972   -4.8531   -0.7653 C.ar    1  LIG1        0.1276
     24 C          -3.7847   -4.0116    0.1608 C.ar    1  LIG1        0.0584
     25 C          -4.7641   -4.6310    0.9507 C.ar    1  LIG1       -0.0428
     26 C          -5.0467   -5.9924    0.8608 C.ar    1  LIG1       -0.0237
     27 C          -4.2921   -6.7277   -0.0779 C.ar    1  LIG1        0.0763
     28 N          -3.3685   -6.1584   -0.8659 N.ar    1  LIG1       -0.2314
     29 H          -5.3215   -4.0307    1.6625 H       1  LIG1        0.0629
     30 N          -2.0984   -4.3996   -1.6007 N.pl3   1  LIG1       -0.3426
     31 H          -1.8876   -5.0400   -2.3529 H       1  LIG1        0.1437
     32 H          -2.0812   -3.4176   -1.8254 H       1  LIG1        0.1437
     33 C          -6.1234   -6.6041    1.7272 C.3     1  LIG1       -0.0377
     34 H          -5.7106   -7.0827    2.6227 H       1  LIG1        0.0278
     35 H          -6.6881   -7.3698    1.1893 H       1  LIG1        0.0278
     36 H          -6.8251   -5.8355    2.0631 H       1  LIG1        0.0278
     37 C          -4.8620   -8.7588   -1.4947 C.ar    1  LIG1       -0.0412
     38 C          -4.9784  -10.1511   -1.5884 C.ar    1  LIG1       -0.0571
     39 C          -4.4661   -8.2043   -0.2561 C.ar    1  LIG1        0.0047
     40 C          -4.7081  -10.9889   -0.5115 C.ar    1  LIG1       -0.0460
     41 H          -5.2914  -10.5881   -2.5330 H       1  LIG1        0.0621
     42 C          -4.1997   -9.0458    0.8267 C.ar    1  LIG1       -0.0369
     43 C          -4.3103  -10.4429    0.7195 C.ar    1  LIG1        0.0253
     44 H          -3.8823   -8.6175    1.7715 H       1  LIG1        0.0636
     45 H          -4.8041  -12.0647   -0.6136 H       1  LIG1        0.0630
     46 C          -5.1689   -7.8953   -2.6941 C.3     1  LIG1       -0.0391
     47 H          -5.5938   -8.4934   -3.5044 H       1  LIG1        0.0278
     48 H          -4.2647   -7.4013   -3.0611 H       1  LIG1        0.0278
     49 H          -5.8818   -7.1015   -2.4464 H       1  LIG1        0.0278
     50 C          -4.0244  -11.2832    1.8398 C.1     1  LIG1       -0.0696
     51 C          -3.7830  -11.9948    2.7886 C.1     1  LIG1       -0.1139
     52 H          -3.5693  -12.6211    3.6233 H       1  LIG1        0.1232
@<TRIPOS>BOND
     1    47    46    1
     2    48    46    1
     3    46    49    1
     4    46    37    1
     5    41    38    1
     6    31    30    1
     7    32    30    1
     8    30    23    1
     9    38    37   ar
    10    38    40   ar
    11     7     1    1
    12    37    39   ar
    13    10     8    1
    14    11     8    1
    15     1     5   ar
    16     1     2   ar
    17     6     5    1
    18     5     4   ar
    19    28    23   ar
    20    28    27   ar
    21    23    24   ar
    22     8     2    1
    23     8     9    1
    24     2     3   ar
    25    45    40    1
    26    40    43   ar
    27     4     3   ar
    28     4    13    1
    29    39    27    1
    30    39    42   ar
    31    17    13   ar
    32    17    16   ar
    33     3    12    1
    34    27    26   ar
    35    13    14   ar
    36    24    16    1
    37    24    25   ar
    38    16    15   ar
    39    19    18    1
    40    14    15   ar
    41    14    18    1
    42    43    42   ar
    43    43    50    1
    44    15    22    1
    45    42    44    1
    46    26    25   ar
    47    26    33    1
    48    25    29    1
    49    18    20    1
    50    35    33    1
    51    22    21    3
    52    33    36    1
    53    33    34    1
    54    50    51    3
    55    51    52    1
