@<TRIPOS>MOLECULE
mol_data/opt/cam/geoms/mol2/13if13if13if13if.out
 50 53 0 0 0
SMALL
GASTEIGER

@<TRIPOS>ATOM
      1 C           0.5165    0.5179    2.0184 C.ar    1  LIG1        0.0087
      2 C           0.7675    1.1289    0.8143 C.ar    1  LIG1        0.0090
      3 C          -0.3109    0.7650   -0.0369 C.ar    1  LIG1        0.1463
      4 C          -1.1833   -0.0433    0.6568 C.ar    1  LIG1        0.1055
      5 N          -0.6373   -0.2118    1.9212 N.ar    1  LIG1       -0.3563
      6 H          -1.1535   -0.5744    2.7052 H       1  LIG1        0.1655
      7 H           1.0839    0.5481    2.9367 H       1  LIG1        0.0811
      8 C           1.9348    1.9815    0.4353 C.3     1  LIG1       -0.0348
      9 H           1.6138    2.9766    0.1130 H       1  LIG1        0.0279
     10 H           2.4972    1.5442   -0.3956 H       1  LIG1        0.0279
     11 H           2.6202    2.1050    1.2771 H       1  LIG1        0.0279
     12 O          -0.3938    1.1534   -1.3396 O.3     1  LIG1       -0.5043
     13 H          -1.1578    0.7137   -1.7353 H       1  LIG1        0.2922
     14 C          -2.4012   -0.6938    0.2101 C.ar    1  LIG1        0.0735
     15 C          -3.4940   -0.1767   -0.4689 C.ar    1  LIG1        0.0185
     16 C          -4.3851   -1.2614   -0.6681 C.ar    1  LIG1        0.1470
     17 C          -3.8504   -2.4019   -0.1091 C.ar    1  LIG1        0.1060
     18 N          -2.6234   -2.0333    0.4168 N.ar    1  LIG1       -0.3486
     19 H          -1.9886   -2.6507    0.8943 H       1  LIG1        0.1661
     20 C          -3.7394    1.2425   -0.8734 C.3     1  LIG1       -0.0342
     21 H          -4.7226    1.5777   -0.5312 H       1  LIG1        0.0279
     22 H          -3.7295    1.3704   -1.9616 H       1  LIG1        0.0279
     23 H          -2.9846    1.9069   -0.4475 H       1  LIG1        0.0279
     24 O          -5.5753   -1.1351   -1.3166 O.3     1  LIG1       -0.5043
     25 H          -5.9746   -2.0125   -1.3846 H       1  LIG1        0.2922
     26 C          -4.3803   -3.7530   -0.0741 C.ar    1  LIG1        0.0735
     27 C          -5.6271   -4.2136    0.3210 C.ar    1  LIG1        0.0185
     28 C          -5.6109   -5.6177    0.1259 C.ar    1  LIG1        0.1470
     29 C          -4.3787   -5.9971   -0.3606 C.ar    1  LIG1        0.1060
     30 N          -3.6381   -4.8348   -0.4839 N.ar    1  LIG1       -0.3486
     31 H          -2.6993   -4.7868   -0.8426 H       1  LIG1        0.1661
     32 C          -6.7615   -3.4247    0.8944 C.3     1  LIG1       -0.0342
     33 H          -7.0704   -3.8335    1.8609 H       1  LIG1        0.0279
     34 H          -7.6461   -3.4513    0.2489 H       1  LIG1        0.0279
     35 H          -6.4787   -2.3804    1.0411 H       1  LIG1        0.0279
     36 O          -6.6769   -6.4186    0.3990 O.3     1  LIG1       -0.5043
     37 H          -6.4597   -7.3155    0.1116 H       1  LIG1        0.2922
     38 C          -3.8940   -7.3160   -0.7257 C.ar    1  LIG1        0.0730
     39 C          -3.9384   -8.5077   -0.0246 C.ar    1  LIG1        0.0178
     40 C          -3.3615   -9.4912   -0.8748 C.ar    1  LIG1        0.1376
     41 C          -2.9764   -8.8953   -2.0474 C.ar    1  LIG1        0.0445
     42 N          -3.2890   -7.5563   -1.9381 N.ar    1  LIG1       -0.3561
     43 H          -3.3161   -6.9118   -2.7103 H       1  LIG1        0.1655
     44 H          -2.4957   -9.2992   -2.9251 H       1  LIG1        0.0844
     45 C          -4.4073   -8.7400    1.3769 C.3     1  LIG1       -0.0342
     46 H          -3.6221   -9.2097    1.9767 H       1  LIG1        0.0279
     47 H          -5.2706   -9.4130    1.4135 H       1  LIG1        0.0279
     48 H          -4.6885   -7.8008    1.8574 H       1  LIG1        0.0279
     49 O          -3.2261  -10.7889   -0.4783 O.3     1  LIG1       -0.5050
     50 H          -2.7865  -11.2901   -1.1739 H       1  LIG1        0.2922
@<TRIPOS>BOND
     1    44    41    1
     2    43    42    1
     3    41    42   ar
     4    41    40   ar
     5    22    20    1
     6    42    38   ar
     7    13    12    1
     8    25    24    1
     9    12     3    1
    10    24    16    1
    11    50    49    1
    12    40    49    1
    13    40    39   ar
    14    20    21    1
    15    20    15    1
    16    20    23    1
    17    31    30    1
    18    38    29    1
    19    38    39   ar
    20    16    15   ar
    21    16    17   ar
    22    30    29   ar
    23    30    26   ar
    24    15    14   ar
    25    10     8    1
    26    29    28   ar
    27    17    26    1
    28    17    18   ar
    29    26    27   ar
    30     3     4   ar
    31     3     2   ar
    32    39    45    1
    33    37    36    1
    34     9     8    1
    35    28    27   ar
    36    28    36    1
    37    14    18   ar
    38    14     4    1
    39    34    32    1
    40    27    32    1
    41    18    19    1
    42     8     2    1
    43     8    11    1
    44     4     5   ar
    45     2     1   ar
    46    32    35    1
    47    32    33    1
    48    45    47    1
    49    45    48    1
    50    45    46    1
    51     5     1   ar
    52     5     6    1
    53     1     7    1
