@<TRIPOS>MOLECULE
mol_data/opt/cam/geoms/mol2/13if13if13if.out
 38 40 0 0 0
SMALL
GASTEIGER

@<TRIPOS>ATOM
      1 C           0.9342    0.1000    1.3077 C.ar    1  LIG1        0.0087
      2 C           0.8570    0.9842    0.2595 C.ar    1  LIG1        0.0090
      3 C          -0.4199    0.7765   -0.3291 C.ar    1  LIG1        0.1463
      4 C          -1.0834   -0.2109    0.3639 C.ar    1  LIG1        0.1055
      5 N          -0.2153   -0.6409    1.3573 N.ar    1  LIG1       -0.3563
      6 H          -0.5029   -1.2025    2.1411 H       1  LIG1        0.1655
      7 H           1.7322   -0.0566    2.0182 H       1  LIG1        0.0811
      8 C           1.8915    1.9551   -0.2096 C.3     1  LIG1       -0.0348
      9 H           1.5147    2.9821   -0.1863 H       1  LIG1        0.0279
     10 H           2.1935    1.7508   -1.2415 H       1  LIG1        0.0279
     11 H           2.7850    1.9100    0.4176 H       1  LIG1        0.0279
     12 O          -0.8500    1.4511   -1.4311 O.3     1  LIG1       -0.5043
     13 H          -1.7003    1.0775   -1.6976 H       1  LIG1        0.2922
     14 C          -2.3896   -0.7958    0.1226 C.ar    1  LIG1        0.0735
     15 C          -3.6176   -0.1859   -0.0840 C.ar    1  LIG1        0.0185
     16 C          -4.5490   -1.2338   -0.2957 C.ar    1  LIG1        0.1470
     17 C          -3.9013   -2.4467   -0.2025 C.ar    1  LIG1        0.1060
     18 N          -2.5712   -2.1551    0.0458 N.ar    1  LIG1       -0.3486
     19 H          -1.8397   -2.8378    0.1506 H       1  LIG1        0.1661
     20 C          -3.9374    1.2749   -0.0429 C.3     1  LIG1       -0.0342
     21 H          -4.7852    1.4670    0.6207 H       1  LIG1        0.0279
     22 H          -4.2191    1.6650   -1.0273 H       1  LIG1        0.0279
     23 H          -3.0831    1.8515    0.3180 H       1  LIG1        0.0279
     24 O          -5.8693   -1.0160   -0.5452 O.3     1  LIG1       -0.5043
     25 H          -6.2836   -1.8685   -0.7341 H       1  LIG1        0.2922
     26 C          -4.4259   -3.7909   -0.3601 C.ar    1  LIG1        0.0730
     27 C          -5.5378   -4.3866    0.2079 C.ar    1  LIG1        0.0178
     28 C          -5.6060   -5.6999   -0.3338 C.ar    1  LIG1        0.1376
     29 C          -4.5552   -5.8817   -1.1947 C.ar    1  LIG1        0.0445
     30 N          -3.8252   -4.7111   -1.1884 N.ar    1  LIG1       -0.3561
     31 H          -3.1248   -4.4707   -1.8695 H       1  LIG1        0.1655
     32 H          -4.2584   -6.7362   -1.7830 H       1  LIG1        0.0844
     33 C          -6.4546   -3.8275    1.2493 C.3     1  LIG1       -0.0342
     34 H          -6.5383   -4.5107    2.0995 H       1  LIG1        0.0279
     35 H          -7.4709   -3.6806    0.8679 H       1  LIG1        0.0279
     36 H          -6.0887   -2.8665    1.6170 H       1  LIG1        0.0279
     37 O          -6.5824   -6.5773    0.0367 O.3     1  LIG1       -0.5050
     38 H          -6.4383   -7.4196   -0.4083 H       1  LIG1        0.2922
@<TRIPOS>BOND
     1    31    30    1
     2    32    29    1
     3    13    12    1
     4    12     3    1
     5    10     8    1
     6    29    30   ar
     7    29    28   ar
     8    30    26   ar
     9    22    20    1
    10    25    24    1
    11    24    16    1
    12    38    37    1
    13    26    17    1
    14    26    27   ar
    15    28    37    1
    16    28    27   ar
    17     3     2   ar
    18     3     4   ar
    19    16    17   ar
    20    16    15   ar
    21     8     9    1
    22     8     2    1
    23     8    11    1
    24    17    18   ar
    25    15    20    1
    26    15    14   ar
    27    20    23    1
    28    20    21    1
    29    18    14   ar
    30    18    19    1
    31    14     4    1
    32    27    33    1
    33     2     1   ar
    34     4     5   ar
    35    35    33    1
    36    33    36    1
    37    33    34    1
    38     1     5   ar
    39     1     7    1
    40     5     6    1
