@<TRIPOS>MOLECULE
mol_data/opt/cam/geoms/mol2/13ig13ig-13ig-.out
 38 40 0 0 0
SMALL
GASTEIGER

@<TRIPOS>ATOM
      1 C           0.7670    0.0458    1.5727 C.ar    1  LIG1        0.0062
      2 C           0.8645    0.8700    0.4796 C.ar    1  LIG1       -0.0193
      3 C          -0.3522    0.7147   -0.2484 C.ar    1  LIG1        0.0344
      4 C          -1.1498   -0.1897    0.4220 C.ar    1  LIG1        0.0768
      5 N          -0.4347   -0.6033    1.5286 N.ar    1  LIG1       -0.3584
      6 H          -0.8228   -1.1646    2.2683 H       1  LIG1        0.1654
      7 H           1.4703   -0.1243    2.3741 H       1  LIG1        0.0810
      8 C           2.0172    1.7451    0.1047 C.3     1  LIG1       -0.0372
      9 H           1.7209    2.7977    0.0494 H       1  LIG1        0.0278
     10 H           2.4259    1.4736   -0.8742 H       1  LIG1        0.0278
     11 H           2.8241    1.6648    0.8367 H       1  LIG1        0.0278
     12 S          -0.6823    1.5317   -1.7810 S.3     1  LIG1       -0.1403
     13 H          -1.8526    0.9142   -2.0165 H       1  LIG1        0.1072
     14 C          -2.4679   -0.7266    0.1106 C.ar    1  LIG1        0.0685
     15 C          -3.6894   -0.0964   -0.0430 C.ar    1  LIG1       -0.0099
     16 C          -4.6401   -1.1137   -0.3384 C.ar    1  LIG1        0.0351
     17 C          -3.9916   -2.3328   -0.3451 C.ar    1  LIG1        0.0772
     18 N          -2.6662   -2.0741   -0.0730 N.ar    1  LIG1       -0.3508
     19 H          -1.9428   -2.7729   -0.0252 H       1  LIG1        0.1660
     20 C          -3.9725    1.3639    0.1067 C.3     1  LIG1       -0.0366
     21 H          -4.7531    1.5390    0.8541 H       1  LIG1        0.0279
     22 H          -4.3215    1.8081   -0.8315 H       1  LIG1        0.0279
     23 H          -3.0760    1.9028    0.4183 H       1  LIG1        0.0279
     24 S          -6.3487   -0.7896   -0.6525 S.3     1  LIG1       -0.1403
     25 H          -6.6739   -2.0588   -0.9528 H       1  LIG1        0.1072
     26 C          -4.4825   -3.6803   -0.6082 C.ar    1  LIG1        0.0680
     27 C          -5.4038   -4.4579    0.0631 C.ar    1  LIG1       -0.0106
     28 C          -5.4877   -5.6955   -0.6462 C.ar    1  LIG1        0.0256
     29 C          -4.6267   -5.6307   -1.7155 C.ar    1  LIG1        0.0157
     30 N          -4.0171   -4.4152   -1.6843 N.ar    1  LIG1       -0.3583
     31 H          -3.4081   -4.0471   -2.3969 H       1  LIG1        0.1654
     32 H          -4.4194   -6.3597   -2.4836 H       1  LIG1        0.0818
     33 C          -6.1365   -4.0966    1.3144 C.3     1  LIG1       -0.0366
     34 H          -5.8758   -4.7706    2.1366 H       1  LIG1        0.0279
     35 H          -7.2190   -4.1712    1.1759 H       1  LIG1        0.0279
     36 H          -5.9000   -3.0769    1.6237 H       1  LIG1        0.0279
     37 S          -6.5666   -7.0544   -0.3010 S.3     1  LIG1       -0.1409
     38 H          -5.9021   -7.5776    0.7473 H       1  LIG1        0.1072
@<TRIPOS>BOND
     1    32    29    1
     2    31    30    1
     3    13    12    1
     4    12     3    1
     5    29    30   ar
     6    29    28   ar
     7    30    26   ar
     8    25    24    1
     9    10     8    1
    10    22    20    1
    11    24    16    1
    12    28    37    1
    13    28    27   ar
    14    26    17    1
    15    26    27   ar
    16    17    16   ar
    17    17    18   ar
    18    16    15   ar
    19    37    38    1
    20     3     4   ar
    21     3     2   ar
    22    18    19    1
    23    18    14   ar
    24    15    20    1
    25    15    14   ar
    26     9     8    1
    27    27    33    1
    28     8     2    1
    29     8    11    1
    30    20    23    1
    31    20    21    1
    32    14     4    1
    33     4     5   ar
    34     2     1   ar
    35    35    33    1
    36    33    36    1
    37    33    34    1
    38     5     1   ar
    39     5     6    1
    40     1     7    1
