@<TRIPOS>MOLECULE
mol_data/opt/cam/geoms/mol2/13ig13ig-.out
 26 27 0 0 0
SMALL
GASTEIGER

@<TRIPOS>ATOM
      1 C           1.0148   -0.2018    0.8984 C.ar    1  LIG1        0.0062
      2 C           0.8271    0.9408    0.1616 C.ar    1  LIG1       -0.0193
      3 C          -0.4925    0.8599   -0.3733 C.ar    1  LIG1        0.0344
      4 C          -1.0663   -0.3193    0.0555 C.ar    1  LIG1        0.0767
      5 N          -0.1159   -0.9651    0.8214 N.ar    1  LIG1       -0.3584
      6 H          -0.3002   -1.7943    1.3609 H       1  LIG1        0.1654
      7 H           1.8749   -0.5239    1.4663 H       1  LIG1        0.0810
      8 C           1.8085    2.0467   -0.0606 C.3     1  LIG1       -0.0372
      9 H           1.4244    3.0046    0.3051 H       1  LIG1        0.0278
     10 H           2.0343    2.1754   -1.1242 H       1  LIG1        0.0278
     11 H           2.7488    1.8459    0.4579 H       1  LIG1        0.0278
     12 S          -1.1880    2.0815   -1.4452 S.3     1  LIG1       -0.1403
     13 H          -2.3182    1.4039   -1.7098 H       1  LIG1        0.1072
     14 C          -2.3744   -0.9051   -0.2095 C.ar    1  LIG1        0.0680
     15 C          -3.6472   -0.4567    0.0792 C.ar    1  LIG1       -0.0106
     16 C          -4.5511   -1.4461   -0.4170 C.ar    1  LIG1        0.0256
     17 C          -3.8082   -2.4527   -0.9861 C.ar    1  LIG1        0.0157
     18 N          -2.4948   -2.1242   -0.8525 N.ar    1  LIG1       -0.3583
     19 H          -1.7207   -2.6233   -1.2593 H       1  LIG1        0.1654
     20 H          -4.1288   -3.3616   -1.4713 H       1  LIG1        0.0818
     21 C          -4.0091    0.7948    0.8113 C.3     1  LIG1       -0.0366
     22 H          -4.5539    0.5714    1.7341 H       1  LIG1        0.0279
     23 H          -4.6587    1.4356    0.2079 H       1  LIG1        0.0279
     24 H          -3.1153    1.3633    1.0739 H       1  LIG1        0.0279
     25 S          -6.3189   -1.3806   -0.4070 S.3     1  LIG1       -0.1409
     26 H          -6.5246   -1.6796    0.8902 H       1  LIG1        0.1072
@<TRIPOS>BOND
     1    13    12    1
     2    20    17    1
     3    12     3    1
     4    19    18    1
     5    10     8    1
     6    17    18   ar
     7    17    16   ar
     8    18    14   ar
     9    16    25    1
    10    16    15   ar
    11    25    26    1
    12     3     4   ar
    13     3     2   ar
    14    14     4    1
    15    14    15   ar
    16     8     2    1
    17     8     9    1
    18     8    11    1
    19     4     5   ar
    20    15    21    1
    21     2     1   ar
    22    23    21    1
    23    21    24    1
    24    21    22    1
    25     5     1   ar
    26     5     6    1
    27     1     7    1
