@<TRIPOS>MOLECULE
mol_data/opt/cam/geoms/mol2/13ig13ig-13ig-13ig.out
 50 53 0 0 0
SMALL
GASTEIGER

@<TRIPOS>ATOM
      1 C           0.2300    0.3203    2.6514 C.ar    1  LIG1        0.0062
      2 C           0.7571    0.7974    1.4774 C.ar    1  LIG1       -0.0193
      3 C          -0.1898    0.4850    0.4578 C.ar    1  LIG1        0.0344
      4 C          -1.2590   -0.1648    1.0392 C.ar    1  LIG1        0.0768
      5 N          -0.9721   -0.2720    2.3857 N.ar    1  LIG1       -0.3584
      6 H          -1.6320   -0.5898    3.0759 H       1  LIG1        0.1654
      7 H           0.6293    0.3598    3.6539 H       1  LIG1        0.0810
      8 C           2.0685    1.4901    1.2886 C.3     1  LIG1       -0.0372
      9 H           1.9364    2.4916    0.8662 H       1  LIG1        0.0278
     10 H           2.7212    0.9360    0.6060 H       1  LIG1        0.0278
     11 H           2.5953    1.5971    2.2396 H       1  LIG1        0.0278
     12 S           0.0644    0.8468   -1.2538 S.3     1  LIG1       -0.1403
     13 H          -1.0596    0.2514   -1.6878 H       1  LIG1        0.1072
     14 C          -2.4758   -0.7210    0.4616 C.ar    1  LIG1        0.0685
     15 C          -3.5129   -0.1134   -0.2224 C.ar    1  LIG1       -0.0099
     16 C          -4.4437   -1.1393   -0.5493 C.ar    1  LIG1        0.0351
     17 C          -3.9691   -2.3373   -0.0531 C.ar    1  LIG1        0.0772
     18 N          -2.7643   -2.0615    0.5547 N.ar    1  LIG1       -0.3508
     19 H          -2.1809   -2.7438    1.0111 H       1  LIG1        0.1660
     20 C          -3.6532    1.3423   -0.5328 C.3     1  LIG1       -0.0366
     21 H          -4.5922    1.7412   -0.1358 H       1  LIG1        0.0279
     22 H          -3.6564    1.5288   -1.6120 H       1  LIG1        0.0279
     23 H          -2.8304    1.9123   -0.0977 H       1  LIG1        0.0279
     24 S          -5.9264   -0.8536   -1.4680 S.3     1  LIG1       -0.1403
     25 H          -6.3048   -2.1422   -1.5179 H       1  LIG1        0.1072
     26 C          -4.5088   -3.6892   -0.1278 C.ar    1  LIG1        0.0685
     27 C          -5.6863   -4.2209    0.3650 C.ar    1  LIG1       -0.0099
     28 C          -5.6969   -5.5972    0.0022 C.ar    1  LIG1        0.0351
     29 C          -4.5330   -5.8791   -0.6853 C.ar    1  LIG1        0.0772
     30 N          -3.8234   -4.7009   -0.7571 N.ar    1  LIG1       -0.3508
     31 H          -2.9335   -4.5953   -1.2167 H       1  LIG1        0.1660
     32 C          -6.7344   -3.5059    1.1558 C.3     1  LIG1       -0.0366
     33 H          -6.8994   -3.9925    2.1226 H       1  LIG1        0.0279
     34 H          -7.6975   -3.4947    0.6346 H       1  LIG1        0.0279
     35 H          -6.4427   -2.4707    1.3415 H       1  LIG1        0.0279
     36 S          -7.0266   -6.6960    0.3864 S.3     1  LIG1       -0.1403
     37 H          -6.5319   -7.7482   -0.2883 H       1  LIG1        0.1072
     38 C          -4.0529   -7.1131   -1.2956 C.ar    1  LIG1        0.0680
     39 C          -3.7270   -8.3335   -0.7400 C.ar    1  LIG1       -0.0106
     40 C          -3.3096   -9.1742   -1.8173 C.ar    1  LIG1        0.0256
     41 C          -3.3964   -8.4473   -2.9806 C.ar    1  LIG1        0.0157
     42 N          -3.8388   -7.2018   -2.6597 N.ar    1  LIG1       -0.3583
     43 H          -4.0908   -6.4828   -3.3184 H       1  LIG1        0.1654
     44 H          -3.1791   -8.7373   -3.9970 H       1  LIG1        0.0818
     45 C          -3.7565   -8.6931    0.7102 C.3     1  LIG1       -0.0366
     46 H          -2.7551   -8.9369    1.0792 H       1  LIG1        0.0279
     47 H          -4.3817   -9.5728    0.8881 H       1  LIG1        0.0279
     48 H          -4.1469   -7.8682    1.3087 H       1  LIG1        0.0279
     49 S          -2.8512  -10.8803   -1.7262 S.3     1  LIG1       -0.1409
     50 H          -1.6126  -10.7284   -1.2194 H       1  LIG1        0.1072
@<TRIPOS>BOND
     1    44    41    1
     2    43    42    1
     3    41    42   ar
     4    41    40   ar
     5    42    38   ar
     6    40    49    1
     7    40    39   ar
     8    49    50    1
     9    13    12    1
    10    22    20    1
    11    25    24    1
    12    24    16    1
    13    38    39   ar
    14    38    29    1
    15    12     3    1
    16    31    30    1
    17    30    29   ar
    18    30    26   ar
    19    39    45    1
    20    29    28   ar
    21    16    15   ar
    22    16    17   ar
    23    20    15    1
    24    20    21    1
    25    20    23    1
    26    37    36    1
    27    15    14   ar
    28    26    17    1
    29    26    27   ar
    30    17    18   ar
    31    28    27   ar
    32    28    36    1
    33    27    32    1
    34     3     4   ar
    35     3     2   ar
    36    14    18   ar
    37    14     4    1
    38    18    19    1
    39    10     8    1
    40    34    32    1
    41    45    47    1
    42    45    46    1
    43    45    48    1
    44     9     8    1
    45     4     5   ar
    46    32    35    1
    47    32    33    1
    48     8     2    1
    49     8    11    1
    50     2     1   ar
    51     5     1   ar
    52     5     6    1
    53     1     7    1
