@<TRIPOS>MOLECULE
mol_data/opt/cam/geoms/mol2/13ig13ig-13ig13ig.out
 50 53 0 0 0
SMALL
GASTEIGER

@<TRIPOS>ATOM
      1 C           0.1764    0.3386    2.7009 C.ar    1  LIG1        0.0062
      2 C           0.7194    0.8149    1.5339 C.ar    1  LIG1       -0.0193
      3 C          -0.2110    0.4967    0.5009 C.ar    1  LIG1        0.0344
      4 C          -1.2864   -0.1557    1.0676 C.ar    1  LIG1        0.0768
      5 N          -1.0194   -0.2587    2.4185 N.ar    1  LIG1       -0.3584
      6 H          -1.6885   -0.5774    3.0995 H       1  LIG1        0.1654
      7 H           0.5604    0.3819    3.7092 H       1  LIG1        0.0810
      8 C           2.0310    1.5120    1.3632 C.3     1  LIG1       -0.0372
      9 H           1.9016    2.5120    0.9364 H       1  LIG1        0.0278
     10 H           2.6959    0.9587    0.6918 H       1  LIG1        0.0278
     11 H           2.5429    1.6231    2.3217 H       1  LIG1        0.0278
     12 S           0.0677    0.8555   -1.2076 S.3     1  LIG1       -0.1403
     13 H          -1.0475    0.2549   -1.6570 H       1  LIG1        0.1072
     14 C          -2.4923   -0.7178    0.4731 C.ar    1  LIG1        0.0685
     15 C          -3.5212   -0.1155   -0.2279 C.ar    1  LIG1       -0.0099
     16 C          -4.4432   -1.1456   -0.5664 C.ar    1  LIG1        0.0351
     17 C          -3.9717   -2.3407   -0.0602 C.ar    1  LIG1        0.0772
     18 N          -2.7773   -2.0591    0.5650 N.ar    1  LIG1       -0.3508
     19 H          -2.1984   -2.7382    1.0317 H       1  LIG1        0.1660
     20 C          -3.6621    1.3389   -0.5438 C.3     1  LIG1       -0.0366
     21 H          -4.6085    1.7353   -0.1619 H       1  LIG1        0.0279
     22 H          -3.6497    1.5229   -1.6234 H       1  LIG1        0.0279
     23 H          -2.8480    1.9130   -0.0978 H       1  LIG1        0.0279
     24 S          -5.9129   -0.8675   -1.5079 S.3     1  LIG1       -0.1403
     25 H          -6.2859   -2.1576   -1.5605 H       1  LIG1        0.1072
     26 C          -4.5053   -3.6947   -0.1399 C.ar    1  LIG1        0.0685
     27 C          -5.6882   -4.2297    0.3364 C.ar    1  LIG1       -0.0099
     28 C          -5.6883   -5.6068   -0.0232 C.ar    1  LIG1        0.0351
     29 C          -4.5131   -5.8860   -0.6924 C.ar    1  LIG1        0.0772
     30 N          -3.8068   -4.7054   -0.7564 N.ar    1  LIG1       -0.3508
     31 H          -2.9105   -4.5975   -1.2027 H       1  LIG1        0.1660
     32 C          -6.7507   -3.5167    1.1097 C.3     1  LIG1       -0.0366
     33 H          -6.9284   -4.0017    2.0751 H       1  LIG1        0.0279
     34 H          -7.7058   -3.5102    0.5740 H       1  LIG1        0.0279
     35 H          -6.4656   -2.4800    1.2973 H       1  LIG1        0.0279
     36 S          -7.0196   -6.7097    0.3435 S.3     1  LIG1       -0.1403
     37 H          -6.5110   -7.7615   -0.3212 H       1  LIG1        0.1072
     38 C          -4.0194   -7.1197   -1.2926 C.ar    1  LIG1        0.0680
     39 C          -3.6975   -8.3376   -0.7292 C.ar    1  LIG1       -0.0106
     40 C          -3.2609   -9.1792   -1.7982 C.ar    1  LIG1        0.0256
     41 C          -3.3328   -8.4553   -2.9643 C.ar    1  LIG1        0.0157
     42 N          -3.7845   -7.2106   -2.6531 N.ar    1  LIG1       -0.3583
     43 H          -4.0291   -6.4941   -3.3171 H       1  LIG1        0.1654
     44 H          -3.0992   -8.7468   -3.9766 H       1  LIG1        0.0818
     45 C          -3.7475   -8.6939    0.7212 C.3     1  LIG1       -0.0366
     46 H          -2.7509   -8.9332    1.1059 H       1  LIG1        0.0279
     47 H          -4.3721   -9.5755    0.8917 H       1  LIG1        0.0279
     48 H          -4.1499   -7.8691    1.3119 H       1  LIG1        0.0279
     49 S          -2.7977  -10.8834   -1.6961 S.3     1  LIG1       -0.1409
     50 H          -1.5674  -10.7258   -1.1711 H       1  LIG1        0.1072
@<TRIPOS>BOND
     1    44    41    1
     2    43    42    1
     3    41    42   ar
     4    41    40   ar
     5    42    38   ar
     6    40    49    1
     7    40    39   ar
     8    49    50    1
     9    13    12    1
    10    22    20    1
    11    25    24    1
    12    24    16    1
    13    38    39   ar
    14    38    29    1
    15    12     3    1
    16    31    30    1
    17    30    29   ar
    18    30    26   ar
    19    39    45    1
    20    29    28   ar
    21    16    15   ar
    22    16    17   ar
    23    20    15    1
    24    20    21    1
    25    20    23    1
    26    37    36    1
    27    15    14   ar
    28    26    17    1
    29    26    27   ar
    30    17    18   ar
    31    28    27   ar
    32    28    36    1
    33    27    32    1
    34    14    18   ar
    35    14     4    1
    36     3     4   ar
    37     3     2   ar
    38    18    19    1
    39    34    32    1
    40    10     8    1
    41    45    47    1
    42    45    46    1
    43    45    48    1
    44     9     8    1
    45     4     5   ar
    46    32    35    1
    47    32    33    1
    48     8     2    1
    49     8    11    1
    50     2     1   ar
    51     5     1   ar
    52     5     6    1
    53     1     7    1
