@<TRIPOS>MOLECULE
mol_data/opt/cam/geoms/mol2/13ig13ig-13ig-13ig-.out
 50 53 0 0 0
SMALL
GASTEIGER

@<TRIPOS>ATOM
      1 C           0.2463    0.5037    2.3546 C.ar    1  LIG1        0.0062
      2 C           0.7604    0.8987    1.1449 C.ar    1  LIG1       -0.0193
      3 C          -0.1957    0.5138    0.1592 C.ar    1  LIG1        0.0344
      4 C          -1.2574   -0.0959    0.7952 C.ar    1  LIG1        0.0768
      5 N          -0.9568   -0.1081    2.1430 N.ar    1  LIG1       -0.3584
      6 H          -1.6091   -0.3782    2.8604 H       1  LIG1        0.1654
      7 H           0.6553    0.6140    3.3478 H       1  LIG1        0.0810
      8 C           2.0680    1.5791    0.8950 C.3     1  LIG1       -0.0372
      9 H           1.9290    2.5483    0.4049 H       1  LIG1        0.0278
     10 H           2.7154    0.9799    0.2463 H       1  LIG1        0.0278
     11 H           2.6038    1.7534    1.8308 H       1  LIG1        0.0278
     12 S           0.0406    0.7556   -1.5760 S.3     1  LIG1       -0.1403
     13 H          -1.0860    0.1289   -1.9560 H       1  LIG1        0.1072
     14 C          -2.4782   -0.6936    0.2703 C.ar    1  LIG1        0.0685
     15 C          -3.5237   -0.1374   -0.4442 C.ar    1  LIG1       -0.0099
     16 C          -4.4549   -1.1855   -0.6892 C.ar    1  LIG1        0.0351
     17 C          -3.9721   -2.3449   -0.1151 C.ar    1  LIG1        0.0772
     18 N          -2.7622   -2.0249    0.4598 N.ar    1  LIG1       -0.3508
     19 H          -2.1725   -2.6724    0.9569 H       1  LIG1        0.1660
     20 C          -3.6710    1.2927   -0.8542 C.3     1  LIG1       -0.0366
     21 H          -4.6072    1.7165   -0.4766 H       1  LIG1        0.0279
     22 H          -3.6853    1.4033   -1.9437 H       1  LIG1        0.0279
     23 H          -2.8455    1.8935   -0.4683 H       1  LIG1        0.0279
     24 S          -5.9473   -0.9678   -1.6107 S.3     1  LIG1       -0.1403
     25 H          -6.3228   -2.2575   -1.5665 H       1  LIG1        0.1072
     26 C          -4.5089   -3.6998   -0.0897 C.ar    1  LIG1        0.0685
     27 C          -5.6801   -4.1981    0.4509 C.ar    1  LIG1       -0.0099
     28 C          -5.6906   -5.5964    0.1854 C.ar    1  LIG1        0.0351
     29 C          -4.5327   -5.9233   -0.4924 C.ar    1  LIG1        0.0772
     30 N          -3.8271   -4.7517   -0.6536 N.ar    1  LIG1       -0.3508
     31 H          -2.9421   -4.6767   -1.1284 H       1  LIG1        0.1660
     32 C          -6.7222   -3.4316    1.2003 C.3     1  LIG1       -0.0366
     33 H          -6.8763   -3.8497    2.2004 H       1  LIG1        0.0279
     34 H          -7.6904   -3.4588    0.6893 H       1  LIG1        0.0279
     35 H          -6.4315   -2.3854    1.3102 H       1  LIG1        0.0279
     36 S          -7.0134   -6.6683    0.6588 S.3     1  LIG1       -0.1403
     37 H          -6.5226   -7.7641    0.0544 H       1  LIG1        0.1072
     38 C          -4.0554   -7.1961   -1.0198 C.ar    1  LIG1        0.0680
     39 C          -3.7208   -8.3740   -0.3835 C.ar    1  LIG1       -0.0106
     40 C          -3.3118   -9.2871   -1.4035 C.ar    1  LIG1        0.0256
     41 C          -3.4121   -8.6436   -2.6138 C.ar    1  LIG1        0.0157
     42 N          -3.8546   -7.3795   -2.3764 N.ar    1  LIG1       -0.3583
     43 H          -4.1150   -6.7089   -3.0812 H       1  LIG1        0.1654
     44 H          -3.2041   -9.0035   -3.6096 H       1  LIG1        0.0818
     45 C          -3.7349   -8.6313    1.0885 C.3     1  LIG1       -0.0366
     46 H          -2.7293   -8.8468    1.4636 H       1  LIG1        0.0279
     47 H          -4.3560   -9.4976    1.3338 H       1  LIG1        0.0279
     48 H          -4.1215   -7.7673    1.6318 H       1  LIG1        0.0279
     49 S          -2.8480  -10.9818   -1.1979 S.3     1  LIG1       -0.1409
     50 H          -1.6048  -10.7924   -0.7155 H       1  LIG1        0.1072
@<TRIPOS>BOND
     1    44    41    1
     2    43    42    1
     3    41    42   ar
     4    41    40   ar
     5    42    38   ar
     6    13    12    1
     7    22    20    1
     8    24    25    1
     9    24    16    1
    10    12     3    1
    11    40    49    1
    12    40    39   ar
    13    49    50    1
    14    31    30    1
    15    38    29    1
    16    38    39   ar
    17    20    21    1
    18    20    23    1
    19    20    15    1
    20    16    15   ar
    21    16    17   ar
    22    30    29   ar
    23    30    26   ar
    24    29    28   ar
    25    15    14   ar
    26    39    45    1
    27    17    26    1
    28    17    18   ar
    29    26    27   ar
    30    37    36    1
    31     3     4   ar
    32     3     2   ar
    33    28    27   ar
    34    28    36    1
    35    10     8    1
    36    14    18   ar
    37    14     4    1
    38     9     8    1
    39    27    32    1
    40    18    19    1
    41    34    32    1
    42     4     5   ar
    43     8     2    1
    44     8    11    1
    45    45    47    1
    46    45    46    1
    47    45    48    1
    48     2     1   ar
    49    32    35    1
    50    32    33    1
    51     5     1   ar
    52     5     6    1
    53     1     7    1
