@<TRIPOS>MOLECULE
mol_data/opt/cam/geoms/mol2/13ig13ig13ig.out
 38 40 0 0 0
SMALL
GASTEIGER

@<TRIPOS>ATOM
      1 C           0.7699    0.0367    1.5598 C.ar    1  LIG1        0.0062
      2 C           0.8667    0.8653    0.4701 C.ar    1  LIG1       -0.0193
      3 C          -0.3508    0.7139   -0.2572 C.ar    1  LIG1        0.0344
      4 C          -1.1483   -0.1929    0.4101 C.ar    1  LIG1        0.0768
      5 N          -0.4321   -0.6116    1.5142 N.ar    1  LIG1       -0.3584
      6 H          -0.8201   -1.1753    2.2522 H       1  LIG1        0.1654
      7 H           1.4739   -0.1374    2.3597 H       1  LIG1        0.0810
      8 C           2.0195    1.7414    0.0975 C.3     1  LIG1       -0.0372
      9 H           1.7240    2.7945    0.0480 H       1  LIG1        0.0278
     10 H           2.4262    1.4744   -0.8835 H       1  LIG1        0.0278
     11 H           2.8277    1.6567    0.8275 H       1  LIG1        0.0278
     12 S          -0.6816    1.5371   -1.7863 S.3     1  LIG1       -0.1403
     13 H          -1.8522    0.9210   -2.0236 H       1  LIG1        0.1072
     14 C          -2.4670   -0.7275    0.0978 C.ar    1  LIG1        0.0685
     15 C          -3.6881   -0.0956   -0.0520 C.ar    1  LIG1       -0.0099
     16 C          -4.6399   -1.1109   -0.3505 C.ar    1  LIG1        0.0351
     17 C          -3.9926   -2.3305   -0.3626 C.ar    1  LIG1        0.0772
     18 N          -2.6667   -2.0741   -0.0908 N.ar    1  LIG1       -0.3508
     19 H          -1.9439   -2.7737   -0.0464 H       1  LIG1        0.1660
     20 C          -3.9699    1.3643    0.1039 C.3     1  LIG1       -0.0366
     21 H          -4.7521    1.5367    0.8502 H       1  LIG1        0.0279
     22 H          -4.3160    1.8135   -0.8331 H       1  LIG1        0.0279
     23 H          -3.0735    1.9006    0.4202 H       1  LIG1        0.0279
     24 S          -6.3487   -0.7841   -0.6615 S.3     1  LIG1       -0.1403
     25 H          -6.6762   -2.0526   -0.9620 H       1  LIG1        0.1072
     26 C          -4.4854   -3.6765   -0.6299 C.ar    1  LIG1        0.0680
     27 C          -5.4053   -4.4561    0.0412 C.ar    1  LIG1       -0.0106
     28 C          -5.4928   -5.6906   -0.6730 C.ar    1  LIG1        0.0256
     29 C          -4.6355   -5.6221   -1.7451 C.ar    1  LIG1        0.0157
     30 N          -4.0247   -4.4073   -1.7108 N.ar    1  LIG1       -0.3583
     31 H          -3.4173   -4.0369   -2.4236 H       1  LIG1        0.1654
     32 H          -4.4316   -6.3479   -2.5171 H       1  LIG1        0.0818
     33 C          -6.1336   -4.0991    1.2963 C.3     1  LIG1       -0.0366
     34 H          -5.8703   -4.7763    2.1151 H       1  LIG1        0.0279
     35 H          -7.2165   -4.1728    1.1613 H       1  LIG1        0.0279
     36 H          -5.8956   -3.0807    1.6085 H       1  LIG1        0.0279
     37 S          -6.5719   -7.0498   -0.3296 S.3     1  LIG1       -0.1409
     38 H          -5.9033   -7.5788    0.7132 H       1  LIG1        0.1072
@<TRIPOS>BOND
     1    32    29    1
     2    31    30    1
     3    13    12    1
     4    12     3    1
     5    29    30   ar
     6    29    28   ar
     7    30    26   ar
     8    25    24    1
     9    10     8    1
    10    22    20    1
    11    28    37    1
    12    28    27   ar
    13    24    16    1
    14    26    17    1
    15    26    27   ar
    16    17    16   ar
    17    17    18   ar
    18    16    15   ar
    19    37    38    1
    20     3     4   ar
    21     3     2   ar
    22    18    19    1
    23    18    14   ar
    24    15    14   ar
    25    15    20    1
    26    27    33    1
    27     9     8    1
    28     8     2    1
    29     8    11    1
    30    14     4    1
    31    20    23    1
    32    20    21    1
    33     4     5   ar
    34     2     1   ar
    35    35    33    1
    36    33    36    1
    37    33    34    1
    38     5     1   ar
    39     5     6    1
    40     1     7    1
