@<TRIPOS>MOLECULE
mol_data/opt/cam/geoms/mol2/13ig13ig13ig-.out
 38 40 0 0 0
SMALL
GASTEIGER

@<TRIPOS>ATOM
      1 C           0.7704    0.0087    1.5915 C.ar    1  LIG1        0.0062
      2 C           0.8661    0.8575    0.5173 C.ar    1  LIG1       -0.0193
      3 C          -0.3520    0.7193   -0.2117 C.ar    1  LIG1        0.0344
      4 C          -1.1486   -0.2000    0.4394 C.ar    1  LIG1        0.0768
      5 N          -0.4315   -0.6389    1.5349 N.ar    1  LIG1       -0.3584
      6 H          -0.8184   -1.2169    2.2624 H       1  LIG1        0.1654
      7 H           1.4752   -0.1799    2.3875 H       1  LIG1        0.0810
      8 C           2.0184    1.7407    0.1603 C.3     1  LIG1       -0.0372
      9 H           1.7223    2.7943    0.1296 H       1  LIG1        0.0278
     10 H           2.4252    1.4915   -0.8253 H       1  LIG1        0.0278
     11 H           2.8267    1.6435    0.8887 H       1  LIG1        0.0278
     12 S          -0.6848    1.5710   -1.7246 S.3     1  LIG1       -0.1403
     13 H          -1.8558    0.9595   -1.9718 H       1  LIG1        0.1072
     14 C          -2.4675   -0.7293    0.1184 C.ar    1  LIG1        0.0685
     15 C          -3.6890   -0.0955   -0.0184 C.ar    1  LIG1       -0.0099
     16 C          -4.6406   -1.1055   -0.3352 C.ar    1  LIG1        0.0351
     17 C          -3.9925   -2.3242   -0.3710 C.ar    1  LIG1        0.0772
     18 N          -2.6665   -2.0722   -0.0957 N.ar    1  LIG1       -0.3508
     19 H          -1.9432   -2.7721   -0.0652 H       1  LIG1        0.1660
     20 C          -3.9714    1.3611    0.1653 C.3     1  LIG1       -0.0366
     21 H          -4.7504    1.5193    0.9181 H       1  LIG1        0.0279
     22 H          -4.3222    1.8267   -0.7619 H       1  LIG1        0.0279
     23 H          -3.0741    1.8925    0.4873 H       1  LIG1        0.0279
     24 S          -6.3498   -0.7739   -0.6385 S.3     1  LIG1       -0.1403
     25 H          -6.6759   -2.0357   -0.9672 H       1  LIG1        0.1072
     26 C          -4.4843   -3.6652   -0.6640 C.ar    1  LIG1        0.0680
     27 C          -5.4046   -4.4578   -0.0089 C.ar    1  LIG1       -0.0106
     28 C          -5.4903   -5.6788   -0.7462 C.ar    1  LIG1        0.0256
     29 C          -4.6313   -5.5898   -1.8154 C.ar    1  LIG1        0.0157
     30 N          -4.0213   -4.3755   -1.7575 N.ar    1  LIG1       -0.3583
     31 H          -3.4136   -3.9913   -2.4627 H       1  LIG1        0.1654
     32 H          -4.4256   -6.3011   -2.6004 H       1  LIG1        0.0818
     33 C          -6.1348   -4.1250    1.2518 C.3     1  LIG1       -0.0366
     34 H          -5.8727   -4.8178    2.0578 H       1  LIG1        0.0279
     35 H          -7.2175   -4.1961    1.1137 H       1  LIG1        0.0279
     36 H          -5.8974   -3.1128    1.5838 H       1  LIG1        0.0279
     37 S          -6.5689   -7.0449   -0.4301 S.3     1  LIG1       -0.1409
     38 H          -5.9025   -7.5922    0.6047 H       1  LIG1        0.1072
@<TRIPOS>BOND
     1    32    29    1
     2    31    30    1
     3    13    12    1
     4    29    30   ar
     5    29    28   ar
     6    30    26   ar
     7    12     3    1
     8    25    24    1
     9    10     8    1
    10    22    20    1
    11    28    37    1
    12    28    27   ar
    13    26    17    1
    14    26    27   ar
    15    24    16    1
    16    37    38    1
    17    17    16   ar
    18    17    18   ar
    19    16    15   ar
    20     3     4   ar
    21     3     2   ar
    22    18    19    1
    23    18    14   ar
    24    15    14   ar
    25    15    20    1
    26    27    33    1
    27    14     4    1
    28     9     8    1
    29     8     2    1
    30     8    11    1
    31    20    23    1
    32    20    21    1
    33     4     5   ar
    34     2     1   ar
    35    35    33    1
    36    33    36    1
    37    33    34    1
    38     5     1   ar
    39     5     6    1
    40     1     7    1
