@<TRIPOS>MOLECULE
mol_data/opt/cam/geoms/mol2/13ig13ig13ig-13ig-.out
 50 53 0 0 0
SMALL
GASTEIGER

@<TRIPOS>ATOM
      1 C           0.2494    0.4823    2.3581 C.ar    1  LIG1        0.0062
      2 C           0.7606    0.8895    1.1512 C.ar    1  LIG1       -0.0193
      3 C          -0.1975    0.5139    0.1639 C.ar    1  LIG1        0.0344
      4 C          -1.2574   -0.1027    0.7963 C.ar    1  LIG1        0.0768
      5 N          -0.9538   -0.1281    2.1432 N.ar    1  LIG1       -0.3584
      6 H          -1.6043   -0.4057    2.8593 H       1  LIG1        0.1654
      7 H           0.6607    0.5830    3.3514 H       1  LIG1        0.0810
      8 C           2.0673    1.5732    0.9051 C.3     1  LIG1       -0.0372
      9 H           1.9267    2.5471    0.4250 H       1  LIG1        0.0278
     10 H           2.7135    0.9808    0.2490 H       1  LIG1        0.0278
     11 H           2.6051    1.7384    1.8414 H       1  LIG1        0.0278
     12 S           0.0347    0.7730   -1.5693 S.3     1  LIG1       -0.1403
     13 H          -1.0924    0.1495   -1.9530 H       1  LIG1        0.1072
     14 C          -2.4791   -0.6959    0.2681 C.ar    1  LIG1        0.0685
     15 C          -3.5264   -0.1332   -0.4384 C.ar    1  LIG1       -0.0099
     16 C          -4.4576   -1.1794   -0.6917 C.ar    1  LIG1        0.0351
     17 C          -3.9730   -2.3442   -0.1302 C.ar    1  LIG1        0.0772
     18 N          -2.7619   -2.0292    0.4451 N.ar    1  LIG1       -0.3508
     19 H          -2.1707   -2.6812    0.9344 H       1  LIG1        0.1660
     20 C          -3.6755    1.3008   -0.8339 C.3     1  LIG1       -0.0366
     21 H          -4.6110    1.7203   -0.4501 H       1  LIG1        0.0279
     22 H          -3.6923    1.4221   -1.9222 H       1  LIG1        0.0279
     23 H          -2.8495    1.8982   -0.4439 H       1  LIG1        0.0279
     24 S          -5.9523   -0.9534   -1.6076 S.3     1  LIG1       -0.1403
     25 H          -6.3270   -2.2437   -1.5753 H       1  LIG1        0.1072
     26 C          -4.5090   -3.6995   -0.1171 C.ar    1  LIG1        0.0685
     27 C          -5.6786   -4.2039    0.4212 C.ar    1  LIG1       -0.0099
     28 C          -5.6889   -5.5994    0.1419 C.ar    1  LIG1        0.0351
     29 C          -4.5324   -5.9190   -0.5417 C.ar    1  LIG1        0.0772
     30 N          -3.8278   -4.7454   -0.6929 N.ar    1  LIG1       -0.3508
     31 H          -2.9439   -4.6652   -1.1688 H       1  LIG1        0.1660
     32 C          -6.7195   -3.4454    1.1805 C.3     1  LIG1       -0.0366
     33 H          -6.8711   -3.8735    2.1768 H       1  LIG1        0.0279
     34 H          -7.6888   -3.4681    0.6715 H       1  LIG1        0.0279
     35 H          -6.4291   -2.4001    1.3001 H       1  LIG1        0.0279
     36 S          -7.0101   -6.6768    0.6076 S.3     1  LIG1       -0.1403
     37 H          -6.5200   -7.7662   -0.0087 H       1  LIG1        0.1072
     38 C          -4.0556   -7.1862   -1.0827 C.ar    1  LIG1        0.0680
     39 C          -3.7189   -8.3702   -0.4589 C.ar    1  LIG1       -0.0106
     40 C          -3.3117   -9.2729   -1.4889 C.ar    1  LIG1        0.0256
     41 C          -3.4151   -8.6174   -2.6925 C.ar    1  LIG1        0.0157
     42 N          -3.8578   -7.3561   -2.4416 N.ar    1  LIG1       -0.3583
     43 H          -4.1201   -6.6786   -3.1390 H       1  LIG1        0.1654
     44 H          -3.2091   -8.9674   -3.6922 H       1  LIG1        0.0818
     45 C          -3.7296   -8.6421    1.0105 C.3     1  LIG1       -0.0366
     46 H          -2.7230   -8.8607    1.3812 H       1  LIG1        0.0279
     47 H          -4.3497   -9.5111    1.2486 H       1  LIG1        0.0279
     48 H          -4.1154   -7.7837    1.5632 H       1  LIG1        0.0279
     49 S          -2.8465  -10.9693   -1.3011 S.3     1  LIG1       -0.1409
     50 H          -1.6023  -10.7839   -0.8196 H       1  LIG1        0.1072
@<TRIPOS>BOND
     1    44    41    1
     2    43    42    1
     3    41    42   ar
     4    41    40   ar
     5    42    38   ar
     6    13    12    1
     7    22    20    1
     8    24    25    1
     9    24    16    1
    10    12     3    1
    11    40    49    1
    12    40    39   ar
    13    49    50    1
    14    31    30    1
    15    38    29    1
    16    38    39   ar
    17    20    21    1
    18    20    23    1
    19    20    15    1
    20    30    29   ar
    21    30    26   ar
    22    16    15   ar
    23    16    17   ar
    24    29    28   ar
    25    39    45    1
    26    15    14   ar
    27    17    26    1
    28    17    18   ar
    29    26    27   ar
    30    37    36    1
    31    28    27   ar
    32    28    36    1
    33     3     4   ar
    34     3     2   ar
    35    10     8    1
    36    14    18   ar
    37    14     4    1
    38    27    32    1
    39     9     8    1
    40    18    19    1
    41    34    32    1
    42     4     5   ar
    43     8     2    1
    44     8    11    1
    45    45    47    1
    46    45    46    1
    47    45    48    1
    48     2     1   ar
    49    32    35    1
    50    32    33    1
    51     5     1   ar
    52     5     6    1
    53     1     7    1
