@<TRIPOS>MOLECULE
mol_data/opt/cam/geoms/mol2/13ig13ig-13ig13ig-.out
 50 53 0 0 0
SMALL
GASTEIGER

@<TRIPOS>ATOM
      1 C           0.2125    0.3431    2.6478 C.ar    1  LIG1        0.0062
      2 C           0.7457    0.8118    1.4731 C.ar    1  LIG1       -0.0193
      3 C          -0.1954    0.4909    0.4507 C.ar    1  LIG1        0.0344
      4 C          -1.2673   -0.1554    1.0310 C.ar    1  LIG1        0.0768
      5 N          -0.9877   -0.2522    2.3799 N.ar    1  LIG1       -0.3584
      6 H          -1.6512   -0.5653    3.0689 H       1  LIG1        0.1654
      7 H           0.6062    0.3906    3.6521 H       1  LIG1        0.0810
      8 C           2.0575    1.5042    1.2863 C.3     1  LIG1       -0.0372
      9 H           1.9270    2.5023    0.8556 H       1  LIG1        0.0278
     10 H           2.7144    0.9455    0.6116 H       1  LIG1        0.0278
     11 H           2.5789    1.6188    2.2393 H       1  LIG1        0.0278
     12 S           0.0680    0.8399   -1.2622 S.3     1  LIG1       -0.1403
     13 H          -1.0530    0.2401   -1.6978 H       1  LIG1        0.1072
     14 C          -2.4803   -0.7171    0.4510 C.ar    1  LIG1        0.0685
     15 C          -3.5141   -0.1155   -0.2434 C.ar    1  LIG1       -0.0099
     16 C          -4.4422   -1.1447   -0.5676 C.ar    1  LIG1        0.0351
     17 C          -3.9694   -2.3385   -0.0595 C.ar    1  LIG1        0.0772
     18 N          -2.7683   -2.0571    0.5528 N.ar    1  LIG1       -0.3508
     19 H          -2.1869   -2.7353    1.0176 H       1  LIG1        0.1660
     20 C          -3.6538    1.3376   -0.5657 C.3     1  LIG1       -0.0366
     21 H          -4.5954    1.7387   -0.1770 H       1  LIG1        0.0279
     22 H          -3.6511    1.5158   -1.6463 H       1  LIG1        0.0279
     23 H          -2.8340    1.9117   -0.1304 H       1  LIG1        0.0279
     24 S          -5.9200   -0.8673   -1.4967 S.3     1  LIG1       -0.1403
     25 H          -6.2973   -2.1566   -1.5386 H       1  LIG1        0.1072
     26 C          -4.5077   -3.6913   -0.1269 C.ar    1  LIG1        0.0685
     27 C          -5.6875   -4.2203    0.3635 C.ar    1  LIG1       -0.0099
     28 C          -5.6950   -5.5992    0.0112 C.ar    1  LIG1        0.0351
     29 C          -4.5271   -5.8854   -0.6678 C.ar    1  LIG1        0.0772
     30 N          -3.8181   -4.7073   -0.7448 N.ar    1  LIG1       -0.3508
     31 H          -2.9258   -4.6044   -1.2002 H       1  LIG1        0.1660
     32 C          -6.7404   -3.5001    1.1431 C.3     1  LIG1       -0.0366
     33 H          -6.9103   -3.9794    2.1127 H       1  LIG1        0.0279
     34 H          -7.7007   -3.4937    0.6166 H       1  LIG1        0.0279
     35 H          -6.4505   -2.4632    1.3224 H       1  LIG1        0.0279
     36 S          -7.0259   -6.6962    0.3965 S.3     1  LIG1       -0.1403
     37 H          -6.5268   -7.7530   -0.2675 H       1  LIG1        0.1072
     38 C          -4.0428   -7.1237   -1.2661 C.ar    1  LIG1        0.0680
     39 C          -3.7191   -8.3396   -0.6994 C.ar    1  LIG1       -0.0106
     40 C          -3.2952   -9.1881   -1.7680 C.ar    1  LIG1        0.0256
     41 C          -3.3761   -8.4701   -2.9371 C.ar    1  LIG1        0.0157
     42 N          -3.8211   -7.2225   -2.6282 N.ar    1  LIG1       -0.3583
     43 H          -4.0700   -6.5088   -3.2937 H       1  LIG1        0.1654
     44 H          -3.1530   -8.7677   -3.9501 H       1  LIG1        0.0818
     45 C          -3.7563   -8.6881    0.7533 C.3     1  LIG1       -0.0366
     46 H          -2.7568   -8.9286    1.1297 H       1  LIG1        0.0279
     47 H          -4.3820   -9.5668    0.9345 H       1  LIG1        0.0279
     48 H          -4.1504   -7.8590    1.3434 H       1  LIG1        0.0279
     49 S          -2.8360  -10.8931   -1.6613 S.3     1  LIG1       -0.1409
     50 H          -1.6002  -10.7364   -1.1489 H       1  LIG1        0.1072
@<TRIPOS>BOND
     1    44    41    1
     2    43    42    1
     3    41    42   ar
     4    41    40   ar
     5    42    38   ar
     6    40    49    1
     7    40    39   ar
     8    13    12    1
     9    49    50    1
    10    22    20    1
    11    25    24    1
    12    24    16    1
    13    38    39   ar
    14    38    29    1
    15    12     3    1
    16    31    30    1
    17    30    29   ar
    18    30    26   ar
    19    39    45    1
    20    29    28   ar
    21    16    15   ar
    22    16    17   ar
    23    20    15    1
    24    20    21    1
    25    20    23    1
    26    37    36    1
    27    15    14   ar
    28    26    17    1
    29    26    27   ar
    30    17    18   ar
    31    28    27   ar
    32    28    36    1
    33    27    32    1
    34     3     4   ar
    35     3     2   ar
    36    14    18   ar
    37    14     4    1
    38    18    19    1
    39    10     8    1
    40    34    32    1
    41    45    47    1
    42    45    46    1
    43    45    48    1
    44     9     8    1
    45     4     5   ar
    46    32    35    1
    47    32    33    1
    48     8     2    1
    49     8    11    1
    50     2     1   ar
    51     5     1   ar
    52     5     6    1
    53     1     7    1
