@<TRIPOS>MOLECULE
mol_data/opt/cam/geoms/mol2/13ig13ig-13ig.out
 38 40 0 0 0
SMALL
GASTEIGER

@<TRIPOS>ATOM
      1 C           0.7540    0.0099    1.6344 C.ar    1  LIG1        0.0062
      2 C           0.8686    0.8473    0.5532 C.ar    1  LIG1       -0.0193
      3 C          -0.3396    0.7064   -0.1918 C.ar    1  LIG1        0.0344
      4 C          -1.1491   -0.2031    0.4570 C.ar    1  LIG1        0.0768
      5 N          -0.4495   -0.6336    1.5671 N.ar    1  LIG1       -0.3584
      6 H          -0.8493   -1.2022    2.2950 H       1  LIG1        0.1654
      7 H           1.4466   -0.1734    2.4423 H       1  LIG1        0.0810
      8 C           2.0294    1.7223    0.2036 C.3     1  LIG1       -0.0372
      9 H           1.7382    2.7769    0.1592 H       1  LIG1        0.0278
     10 H           2.4483    1.4622   -0.7741 H       1  LIG1        0.0278
     11 H           2.8273    1.6285    0.9437 H       1  LIG1        0.0278
     12 S          -0.6467    1.5437   -1.7182 S.3     1  LIG1       -0.1403
     13 H          -1.8160    0.9336   -1.9766 H       1  LIG1        0.1072
     14 C          -2.4654   -0.7302    0.1225 C.ar    1  LIG1        0.0685
     15 C          -3.6822   -0.0927   -0.0385 C.ar    1  LIG1       -0.0099
     16 C          -4.6334   -1.1020   -0.3584 C.ar    1  LIG1        0.0351
     17 C          -3.9903   -2.3238   -0.3719 C.ar    1  LIG1        0.0772
     18 N          -2.6673   -2.0745   -0.0801 N.ar    1  LIG1       -0.3508
     19 H          -1.9476   -2.7771   -0.0318 H       1  LIG1        0.1660
     20 C          -3.9608    1.3669    0.1257 C.3     1  LIG1       -0.0366
     21 H          -4.7527    1.5359    0.8625 H       1  LIG1        0.0279
     22 H          -4.2923    1.8253   -0.8121 H       1  LIG1        0.0279
     23 H          -3.0670    1.8973    0.4590 H       1  LIG1        0.0279
     24 S          -6.3366   -0.7663   -0.6897 S.3     1  LIG1       -0.1403
     25 H          -6.6646   -2.0311   -1.0050 H       1  LIG1        0.1072
     26 C          -4.4842   -3.6657   -0.6570 C.ar    1  LIG1        0.0680
     27 C          -5.4158   -4.4475   -0.0049 C.ar    1  LIG1       -0.0106
     28 C          -5.4980   -5.6756   -0.7304 C.ar    1  LIG1        0.0256
     29 C          -4.6261   -5.6014   -1.7903 C.ar    1  LIG1        0.0157
     30 N          -4.0116   -4.3891   -1.7377 N.ar    1  LIG1       -0.3583
     31 H          -3.3932   -4.0152   -2.4391 H       1  LIG1        0.1654
     32 H          -4.4144   -6.3215   -2.5655 H       1  LIG1        0.0818
     33 C          -6.1597   -4.0982    1.2432 C.3     1  LIG1       -0.0366
     34 H          -5.9105   -4.7835    2.0596 H       1  LIG1        0.0279
     35 H          -7.2410   -4.1660    1.0928 H       1  LIG1        0.0279
     36 H          -5.9217   -3.0835    1.5674 H       1  LIG1        0.0279
     37 S          -6.5865   -7.0337   -0.4129 S.3     1  LIG1       -0.1409
     38 H          -5.9337   -7.5739    0.6342 H       1  LIG1        0.1072
@<TRIPOS>BOND
     1    32    29    1
     2    31    30    1
     3    13    12    1
     4    29    30   ar
     5    29    28   ar
     6    30    26   ar
     7    12     3    1
     8    25    24    1
     9    22    20    1
    10    10     8    1
    11    28    37    1
    12    28    27   ar
    13    24    16    1
    14    26    17    1
    15    26    27   ar
    16    37    38    1
    17    17    16   ar
    18    17    18   ar
    19    16    15   ar
    20     3     4   ar
    21     3     2   ar
    22    18    19    1
    23    18    14   ar
    24    15    14   ar
    25    15    20    1
    26    27    33    1
    27    14     4    1
    28    20    23    1
    29    20    21    1
    30     9     8    1
    31     8     2    1
    32     8    11    1
    33     4     5   ar
    34     2     1   ar
    35    35    33    1
    36    33    36    1
    37    33    34    1
    38     5     1   ar
    39     5     6    1
    40     1     7    1
