@<TRIPOS>MOLECULE
mol_data/opt/cam/geoms/mol2/13ig13ig.out
 26 27 0 0 0
SMALL
GASTEIGER

@<TRIPOS>ATOM
      1 C           1.0320   -0.1992    0.8491 C.ar    1  LIG1        0.0062
      2 C           0.8313    0.9378    0.1071 C.ar    1  LIG1       -0.0193
      3 C          -0.4988    0.8548   -0.4007 C.ar    1  LIG1        0.0344
      4 C          -1.0657   -0.3200    0.0489 C.ar    1  LIG1        0.0767
      5 N          -0.1011   -0.9612    0.8008 N.ar    1  LIG1       -0.3584
      6 H          -0.2759   -1.7858    1.3505 H       1  LIG1        0.1654
      7 H           1.9028   -0.5181    1.4023 H       1  LIG1        0.0810
      8 C           1.8097    2.0403   -0.1434 C.3     1  LIG1       -0.0372
      9 H           1.4344    3.0017    0.2221 H       1  LIG1        0.0278
     10 H           2.0144    2.1600   -1.2124 H       1  LIG1        0.0278
     11 H           2.7599    1.8421    0.3578 H       1  LIG1        0.0278
     12 S          -1.2137    2.0689   -1.4683 S.3     1  LIG1       -0.1403
     13 H          -2.3500    1.3910   -1.7050 H       1  LIG1        0.1072
     14 C          -2.3797   -0.9058   -0.1852 C.ar    1  LIG1        0.0680
     15 C          -3.6458   -0.4530    0.1251 C.ar    1  LIG1       -0.0106
     16 C          -4.5609   -1.4449   -0.3450 C.ar    1  LIG1        0.0256
     17 C          -3.8310   -2.4572   -0.9206 C.ar    1  LIG1        0.0157
     18 N          -2.5147   -2.1298   -0.8158 N.ar    1  LIG1       -0.3583
     19 H          -1.7495   -2.6335   -1.2339 H       1  LIG1        0.1654
     20 H          -4.1625   -3.3695   -1.3920 H       1  LIG1        0.0818
     21 C          -3.9912    0.8049    0.8542 C.3     1  LIG1       -0.0366
     22 H          -4.5178    0.5898    1.7894 H       1  LIG1        0.0279
     23 H          -4.6517    1.4419    0.2587 H       1  LIG1        0.0279
     24 H          -3.0916    1.3741    1.0943 H       1  LIG1        0.0279
     25 S          -6.3280   -1.3764   -0.3004 S.3     1  LIG1       -0.1409
     26 H          -6.5083   -1.6646    1.0030 H       1  LIG1        0.1072
@<TRIPOS>BOND
     1    13    12    1
     2    12     3    1
     3    20    17    1
     4    19    18    1
     5    10     8    1
     6    17    18   ar
     7    17    16   ar
     8    18    14   ar
     9     3     4   ar
    10     3     2   ar
    11    16    25    1
    12    16    15   ar
    13    25    26    1
    14    14     4    1
    15    14    15   ar
    16     8     2    1
    17     8     9    1
    18     8    11    1
    19     4     5   ar
    20     2     1   ar
    21    15    21    1
    22    23    21    1
    23     5     1   ar
    24     5     6    1
    25     1     7    1
    26    21    24    1
    27    21    22    1
