@<TRIPOS>MOLECULE
mol_data/opt/cam/geoms/mol2/13ig.out
 14 14 0 0 0
SMALL
GASTEIGER

@<TRIPOS>ATOM
      1 C           1.0894   -0.4431    0.1553 C.ar    1  LIG1        0.0056
      2 C           0.6302    0.8374   -0.0118 C.ar    1  LIG1       -0.0200
      3 C          -0.7775    0.7292   -0.2467 C.ar    1  LIG1        0.0250
      4 C          -1.1094   -0.6042   -0.2214 C.ar    1  LIG1        0.0152
      5 N           0.0309   -1.3089    0.0236 N.ar    1  LIG1       -0.3658
      6 H           0.0899   -2.3108    0.0890 H       1  LIG1        0.1648
      7 H          -2.0643   -1.0856   -0.3646 H       1  LIG1        0.0818
      8 H           2.0872   -0.8047    0.3543 H       1  LIG1        0.0810
      9 C           1.4331    2.0969    0.0449 C.3     1  LIG1       -0.0373
     10 H           1.1528    2.7178    0.9021 H       1  LIG1        0.0278
     11 H           1.2790    2.7040   -0.8516 H       1  LIG1        0.0278
     12 H           2.5002    1.8780    0.1289 H       1  LIG1        0.0278
     13 S          -1.9030    2.0414   -0.6220 S.3     1  LIG1       -0.1409
     14 H          -2.0632    2.5347    0.6213 H       1  LIG1        0.1072
@<TRIPOS>BOND
     1    11     9    1
     2    13     3    1
     3    13    14    1
     4     7     4    1
     5     3     4   ar
     6     3     2   ar
     7     4     5   ar
     8     2     9    1
     9     2     1   ar
    10     5     6    1
    11     5     1   ar
    12     9    12    1
    13     9    10    1
    14     1     8    1
