@<TRIPOS>MOLECULE
mol_data/opt/cam/geoms/mol2/13ig13ig13ig-13ig.out
 50 53 0 0 0
SMALL
GASTEIGER

@<TRIPOS>ATOM
      1 C           0.2303    0.2399    2.7313 C.ar    1  LIG1        0.0062
      2 C           0.7572    0.7518    1.5719 C.ar    1  LIG1       -0.0193
      3 C          -0.1899    0.4699    0.5436 C.ar    1  LIG1        0.0344
      4 C          -1.2590   -0.1970    1.1055 C.ar    1  LIG1        0.0768
      5 N          -0.9718   -0.3442    2.4481 N.ar    1  LIG1       -0.3584
      6 H          -1.6317   -0.6825    3.1287 H       1  LIG1        0.1654
      7 H           0.6298    0.2495    3.7344 H       1  LIG1        0.0810
      8 C           2.0686    1.4499    1.4036 C.3     1  LIG1       -0.0372
      9 H           1.9364    2.4635    1.0112 H       1  LIG1        0.0278
     10 H           2.7212    0.9163    0.7048 H       1  LIG1        0.0278
     11 H           2.5955    1.5285    2.3573 H       1  LIG1        0.0278
     12 S           0.0641    0.8825   -1.1565 S.3     1  LIG1       -0.1403
     13 H          -1.0599    0.3002   -1.6079 H       1  LIG1        0.1072
     14 C          -2.4758   -0.7358    0.5118 C.ar    1  LIG1        0.0685
     15 C          -3.5130   -0.1081   -0.1538 C.ar    1  LIG1       -0.0099
     16 C          -4.4438   -1.1239   -0.5109 C.ar    1  LIG1        0.0351
     17 C          -3.9691   -2.3361   -0.0506 C.ar    1  LIG1        0.0772
     18 N          -2.7643   -2.0785    0.5650 N.ar    1  LIG1       -0.3508
     19 H          -2.1808   -2.7741    1.0008 H       1  LIG1        0.1660
     20 C          -3.6533    1.3561   -0.4207 C.3     1  LIG1       -0.0366
     21 H          -4.5924    1.7431   -0.0119 H       1  LIG1        0.0279
     22 H          -3.6566    1.5747   -1.4939 H       1  LIG1        0.0279
     23 H          -2.8305    1.9130    0.0311 H       1  LIG1        0.0279
     24 S          -5.9266   -0.8110   -1.4205 S.3     1  LIG1       -0.1403
     25 H          -6.3051   -2.0976   -1.5086 H       1  LIG1        0.1072
     26 C          -4.5088   -3.6851   -0.1654 C.ar    1  LIG1        0.0685
     27 C          -5.6863   -4.2313    0.3115 C.ar    1  LIG1       -0.0099
     28 C          -5.6969   -5.5962   -0.0920 C.ar    1  LIG1        0.0351
     29 C          -4.5331   -5.8575   -0.7878 C.ar    1  LIG1        0.0772
     30 N          -3.8235   -4.6777   -0.8247 N.ar    1  LIG1       -0.3508
     31 H          -2.9337   -4.5584   -1.2810 H       1  LIG1        0.1660
     32 C          -6.7342   -3.5402    1.1235 C.3     1  LIG1       -0.0366
     33 H          -6.8991   -4.0554    2.0754 H       1  LIG1        0.0279
     34 H          -7.6974   -3.5135    0.6030 H       1  LIG1        0.0279
     35 H          -6.4425   -2.5109    1.3398 H       1  LIG1        0.0279
     36 S          -7.0265   -6.7060    0.2595 S.3     1  LIG1       -0.1403
     37 H          -6.5319   -7.7376   -0.4463 H       1  LIG1        0.1072
     38 C          -4.0531   -7.0728   -1.4347 C.ar    1  LIG1        0.0680
     39 C          -3.7271   -8.3092   -0.9156 C.ar    1  LIG1       -0.0106
     40 C          -3.3099   -9.1174   -2.0176 C.ar    1  LIG1        0.0256
     41 C          -3.3969   -8.3563   -3.1586 C.ar    1  LIG1        0.0157
     42 N          -3.8392   -7.1208   -2.8008 N.ar    1  LIG1       -0.3583
     43 H          -4.0913   -6.3826   -3.4378 H       1  LIG1        0.1654
     44 H          -3.1798   -8.6159   -4.1833 H       1  LIG1        0.0818
     45 C          -3.7564   -8.7118    0.5232 C.3     1  LIG1       -0.0366
     46 H          -2.7550   -8.9665    0.8847 H       1  LIG1        0.0279
     47 H          -4.3816   -9.5963    0.6749 H       1  LIG1        0.0279
     48 H          -4.1466   -7.9050    1.1461 H       1  LIG1        0.0279
     49 S          -2.8515  -10.8256   -1.9773 S.3     1  LIG1       -0.1409
     50 H          -1.6128  -10.6888   -1.4664 H       1  LIG1        0.1072
@<TRIPOS>BOND
     1    44    41    1
     2    43    42    1
     3    41    42   ar
     4    41    40   ar
     5    42    38   ar
     6    40    49    1
     7    40    39   ar
     8    49    50    1
     9    13    12    1
    10    25    24    1
    11    22    20    1
    12    38    39   ar
    13    38    29    1
    14    24    16    1
    15    31    30    1
    16    12     3    1
    17    39    45    1
    18    30    29   ar
    19    30    26   ar
    20    29    28   ar
    21    16    15   ar
    22    16    17   ar
    23    37    36    1
    24    20    15    1
    25    20    21    1
    26    20    23    1
    27    26    17    1
    28    26    27   ar
    29    15    14   ar
    30    28    36    1
    31    28    27   ar
    32    17    18   ar
    33    27    32    1
    34    14    18   ar
    35    14     4    1
    36    45    47    1
    37    45    46    1
    38    45    48    1
    39     3     4   ar
    40     3     2   ar
    41    18    19    1
    42    34    32    1
    43    10     8    1
    44     9     8    1
    45     4     5   ar
    46    32    35    1
    47    32    33    1
    48     8     2    1
    49     8    11    1
    50     2     1   ar
    51     5     1   ar
    52     5     6    1
    53     1     7    1
