@<TRIPOS>MOLECULE
mol_data/opt/cam/geoms/mol2/13ig13ig13ig13ig-.out
 50 53 0 0 0
SMALL
GASTEIGER

@<TRIPOS>ATOM
      1 C           0.2413    0.4898    2.3660 C.ar    1  LIG1        0.0062
      2 C           0.7589    0.8910    1.1598 C.ar    1  LIG1       -0.0193
      3 C          -0.1947    0.5118    0.1694 C.ar    1  LIG1        0.0344
      4 C          -1.2583   -0.1009    0.7993 C.ar    1  LIG1        0.0768
      5 N          -0.9615   -0.1204    2.1478 N.ar    1  LIG1       -0.3584
      6 H          -1.6158   -0.3941    2.8619 H       1  LIG1        0.1654
      7 H           0.6477    0.5946    3.3608 H       1  LIG1        0.0810
      8 C           2.0675    1.5722    0.9171 C.3     1  LIG1       -0.0372
      9 H           1.9302    2.5440    0.4318 H       1  LIG1        0.0278
     10 H           2.7164    0.9762    0.2670 H       1  LIG1        0.0278
     11 H           2.6008    1.7412    1.8553 H       1  LIG1        0.0278
     12 S           0.0465    0.7627   -1.5638 S.3     1  LIG1       -0.1403
     13 H          -1.0793    0.1386   -1.9502 H       1  LIG1        0.1072
     14 C          -2.4780   -0.6953    0.2678 C.ar    1  LIG1        0.0685
     15 C          -3.5212   -0.1348   -0.4465 C.ar    1  LIG1       -0.0099
     16 C          -4.4522   -1.1812   -0.6997 C.ar    1  LIG1        0.0351
     17 C          -3.9715   -2.3439   -0.1305 C.ar    1  LIG1        0.0772
     18 N          -2.7630   -2.0274    0.4494 N.ar    1  LIG1       -0.3508
     19 H          -2.1749   -2.6778    0.9446 H       1  LIG1        0.1660
     20 C          -3.6668    1.2976   -0.8493 C.3     1  LIG1       -0.0366
     21 H          -4.6039    1.7198   -0.4720 H       1  LIG1        0.0279
     22 H          -3.6781    1.4139   -1.9382 H       1  LIG1        0.0279
     23 H          -2.8421    1.8959   -0.4579 H       1  LIG1        0.0279
     24 S          -5.9420   -0.9579   -1.6241 S.3     1  LIG1       -0.1403
     25 H          -6.3181   -2.2477   -1.5878 H       1  LIG1        0.1072
     26 C          -4.5089   -3.6986   -0.1139 C.ar    1  LIG1        0.0685
     27 C          -5.6817   -4.1993    0.4209 C.ar    1  LIG1       -0.0099
     28 C          -5.6920   -5.5962    0.1479 C.ar    1  LIG1        0.0351
     29 C          -4.5325   -5.9200   -0.5285 C.ar    1  LIG1        0.0772
     30 N          -3.8259   -4.7478   -0.6815 N.ar    1  LIG1       -0.3508
     31 H          -2.9396   -4.6706   -1.1534 H       1  LIG1        0.1660
     32 C          -6.7256   -3.4364    1.1715 C.3     1  LIG1       -0.0366
     33 H          -6.8826   -3.8598    2.1689 H       1  LIG1        0.0279
     34 H          -7.6924   -3.4605    0.6577 H       1  LIG1        0.0279
     35 H          -6.4347   -2.3909    1.2878 H       1  LIG1        0.0279
     36 S          -7.0166   -6.6701    0.6119 S.3     1  LIG1       -0.1403
     37 H          -6.5246   -7.7628    0.0029 H       1  LIG1        0.1072
     38 C          -4.0542   -7.1901   -1.0614 C.ar    1  LIG1        0.0680
     39 C          -3.7218   -8.3715   -0.4305 C.ar    1  LIG1       -0.0106
     40 C          -3.3104   -9.2793   -1.4543 C.ar    1  LIG1        0.0256
     41 C          -3.4071   -8.6293   -2.6614 C.ar    1  LIG1        0.0157
     42 N          -3.8497   -7.3663   -2.4184 N.ar    1  LIG1       -0.3583
     43 H          -4.1079   -6.6918   -3.1203 H       1  LIG1        0.1654
     44 H          -3.1965   -8.9839   -3.6585 H       1  LIG1        0.0818
     45 C          -3.7401   -8.6367    1.0400 C.3     1  LIG1       -0.0366
     46 H          -2.7356   -8.8546    1.4168 H       1  LIG1        0.0279
     47 H          -4.3622   -9.5041    1.2789 H       1  LIG1        0.0279
     48 H          -4.1279   -7.7755    1.5869 H       1  LIG1        0.0279
     49 S          -2.8478  -10.9753   -1.2565 S.3     1  LIG1       -0.1409
     50 H          -1.6059  -10.7890   -0.7696 H       1  LIG1        0.1072
@<TRIPOS>BOND
     1    44    41    1
     2    43    42    1
     3    41    42   ar
     4    41    40   ar
     5    42    38   ar
     6    13    12    1
     7    22    20    1
     8    24    25    1
     9    24    16    1
    10    12     3    1
    11    40    49    1
    12    40    39   ar
    13    49    50    1
    14    31    30    1
    15    38    29    1
    16    38    39   ar
    17    20    21    1
    18    20    23    1
    19    20    15    1
    20    16    15   ar
    21    16    17   ar
    22    30    29   ar
    23    30    26   ar
    24    29    28   ar
    25    15    14   ar
    26    39    45    1
    27    17    26    1
    28    17    18   ar
    29    26    27   ar
    30    37    36    1
    31    28    27   ar
    32    28    36    1
    33     3     4   ar
    34     3     2   ar
    35    10     8    1
    36    14    18   ar
    37    14     4    1
    38    27    32    1
    39     9     8    1
    40    18    19    1
    41    34    32    1
    42     4     5   ar
    43     8     2    1
    44     8    11    1
    45    45    47    1
    46    45    46    1
    47    45    48    1
    48     2     1   ar
    49    32    35    1
    50    32    33    1
    51     5     1   ar
    52     5     6    1
    53     1     7    1
