@<TRIPOS>MOLECULE
mol_data/opt/cam/geoms/mol2/13ig13ig13ig13ig.out
 50 53 0 0 0
SMALL
GASTEIGER

@<TRIPOS>ATOM
      1 C           0.2405    0.4923    2.3656 C.ar    1  LIG1        0.0062
      2 C           0.7577    0.8930    1.1591 C.ar    1  LIG1       -0.0193
      3 C          -0.1960    0.5129    0.1692 C.ar    1  LIG1        0.0344
      4 C          -1.2593   -0.0998    0.7997 C.ar    1  LIG1        0.0768
      5 N          -0.9621   -0.1184    2.1481 N.ar    1  LIG1       -0.3584
      6 H          -1.6161   -0.3919    2.8626 H       1  LIG1        0.1654
      7 H           0.6471    0.5979    3.3603 H       1  LIG1        0.0810
      8 C           2.0660    1.5746    0.9156 C.3     1  LIG1       -0.0372
      9 H           1.9282    2.5461    0.4298 H       1  LIG1        0.0278
     10 H           2.7149    0.9784    0.2657 H       1  LIG1        0.0278
     11 H           2.5995    1.7443    1.8536 H       1  LIG1        0.0278
     12 S           0.0446    0.7629   -1.5643 S.3     1  LIG1       -0.1403
     13 H          -1.0811    0.1382   -1.9500 H       1  LIG1        0.1072
     14 C          -2.4789   -0.6949    0.2688 C.ar    1  LIG1        0.0685
     15 C          -3.5225   -0.1352   -0.4455 C.ar    1  LIG1       -0.0099
     16 C          -4.4531   -1.1821   -0.6979 C.ar    1  LIG1        0.0351
     17 C          -3.9719   -2.3442   -0.1282 C.ar    1  LIG1        0.0772
     18 N          -2.7634   -2.0270    0.4512 N.ar    1  LIG1       -0.3508
     19 H          -2.1749   -2.6770    0.9466 H       1  LIG1        0.1660
     20 C          -3.6687    1.2969   -0.8490 C.3     1  LIG1       -0.0366
     21 H          -4.6058    1.7190   -0.4717 H       1  LIG1        0.0279
     22 H          -3.6804    1.4127   -1.9380 H       1  LIG1        0.0279
     23 H          -2.8441    1.8957   -0.4582 H       1  LIG1        0.0279
     24 S          -5.9433   -0.9598   -1.6219 S.3     1  LIG1       -0.1403
     25 H          -6.3189   -2.2497   -1.5850 H       1  LIG1        0.1072
     26 C          -4.5088   -3.6992   -0.1106 C.ar    1  LIG1        0.0685
     27 C          -5.6813   -4.2001    0.4246 C.ar    1  LIG1       -0.0099
     28 C          -5.6911   -5.5970    0.1525 C.ar    1  LIG1        0.0351
     29 C          -4.5316   -5.9208   -0.5240 C.ar    1  LIG1        0.0772
     30 N          -3.8255   -4.7484   -0.6778 N.ar    1  LIG1       -0.3508
     31 H          -2.9393   -4.6711   -1.1500 H       1  LIG1        0.1660
     32 C          -6.7253   -3.4371    1.1751 C.3     1  LIG1       -0.0366
     33 H          -6.8819   -3.8601    2.1728 H       1  LIG1        0.0279
     34 H          -7.6922   -3.4618    0.6616 H       1  LIG1        0.0279
     35 H          -6.4348   -2.3914    1.2908 H       1  LIG1        0.0279
     36 S          -7.0152   -6.6712    0.6174 S.3     1  LIG1       -0.1403
     37 H          -6.5229   -7.7640    0.0090 H       1  LIG1        0.1072
     38 C          -4.0530   -7.1911   -1.0563 C.ar    1  LIG1        0.0680
     39 C          -3.7200   -8.3720   -0.4248 C.ar    1  LIG1       -0.0106
     40 C          -3.3085   -9.2802   -1.4482 C.ar    1  LIG1        0.0256
     41 C          -3.4057   -8.6309   -2.6556 C.ar    1  LIG1        0.0157
     42 N          -3.8488   -7.3680   -2.4133 N.ar    1  LIG1       -0.3583
     43 H          -4.1074   -6.6939   -3.1155 H       1  LIG1        0.1654
     44 H          -3.1952   -8.9860   -3.6526 H       1  LIG1        0.0818
     45 C          -3.7378   -8.6363    1.0459 C.3     1  LIG1       -0.0366
     46 H          -2.7332   -8.8536    1.4225 H       1  LIG1        0.0279
     47 H          -4.3595   -9.5038    1.2854 H       1  LIG1        0.0279
     48 H          -4.1259   -7.7750    1.5924 H       1  LIG1        0.0279
     49 S          -2.8452  -10.9759   -1.2496 S.3     1  LIG1       -0.1409
     50 H          -1.6032  -10.7888   -0.7631 H       1  LIG1        0.1072
@<TRIPOS>BOND
     1    44    41    1
     2    43    42    1
     3    41    42   ar
     4    41    40   ar
     5    42    38   ar
     6    13    12    1
     7    22    20    1
     8    24    25    1
     9    24    16    1
    10    12     3    1
    11    40    49    1
    12    40    39   ar
    13    49    50    1
    14    31    30    1
    15    38    29    1
    16    38    39   ar
    17    20    21    1
    18    20    23    1
    19    20    15    1
    20    16    15   ar
    21    16    17   ar
    22    30    29   ar
    23    30    26   ar
    24    29    28   ar
    25    15    14   ar
    26    39    45    1
    27    17    26    1
    28    17    18   ar
    29    26    27   ar
    30    37    36    1
    31    28    27   ar
    32    28    36    1
    33     3     4   ar
    34     3     2   ar
    35    10     8    1
    36    14    18   ar
    37    14     4    1
    38    27    32    1
    39     9     8    1
    40    18    19    1
    41    34    32    1
    42     4     5   ar
    43     8     2    1
    44     8    11    1
    45    45    47    1
    46    45    46    1
    47    45    48    1
    48     2     1   ar
    49    32    35    1
    50    32    33    1
    51     5     1   ar
    52     5     6    1
    53     1     7    1
