@<TRIPOS>MOLECULE
mol_data/opt/cam/geoms/mol2/13ih12eh-13el-12ld-6ia-6hh-12he-12ah-.out
 97 104 0 0 0
SMALL
GASTEIGER

@<TRIPOS>ATOM
      1 C          -2.1792   -0.5134   -4.8070 C.ar    1  LIG1        0.0070
      2 C          -2.0170    0.8124   -4.4799 C.ar    1  LIG1       -0.0118
      3 C          -2.5856    0.9916   -3.1858 C.ar    1  LIG1        0.0562
      4 C          -3.0861   -0.2411   -2.7735 C.ar    1  LIG1        0.1046
      5 N          -2.8038   -1.1495   -3.7858 N.ar    1  LIG1       -0.3565
      6 H          -3.1038   -2.1087   -3.7701 H       1  LIG1        0.1655
      7 H          -1.8880   -1.0396   -5.7043 H       1  LIG1        0.0810
      8 C          -1.3475    1.8770   -5.2882 C.3     1  LIG1       -0.0365
      9 H          -0.4866    2.3032   -4.7615 H       1  LIG1        0.0279
     10 H          -2.0280    2.7046   -5.5220 H       1  LIG1        0.0279
     11 H          -0.9873    1.4783   -6.2392 H       1  LIG1        0.0279
     12 N          -2.5187    2.1750   -2.4690 N.pl3   1  LIG1       -0.3560
     13 H          -2.4290    2.9982   -3.0465 H       1  LIG1        0.1424
     14 H          -3.2117    2.2943   -1.7427 H       1  LIG1        0.1424
     15 C          -3.7238   -0.6957   -1.5768 C.ar    1  LIG1        0.1708
     16 C          -4.4310   -0.0979   -0.5547 C.ar    1  LIG1        0.0932
     17 C          -4.8185   -1.1477    0.3566 C.ar    1  LIG1        0.0888
     18 C          -4.3607   -2.3175   -0.1865 C.ar    1  LIG1        0.1749
     19 O          -3.6785   -2.0317   -1.3657 O.2     1  LIG1       -0.4486
     20 C          -4.8200    1.2536   -0.3992 C.1     1  LIG1       -0.0639
     21 C          -5.1945    2.3862   -0.2116 C.1     1  LIG1       -0.1137
     22 H          -5.5366    3.3845   -0.0620 H       1  LIG1        0.1232
     23 N          -5.4540   -0.9228    1.5503 N.pl3   1  LIG1       -0.3540
     24 H          -5.8939   -0.0172    1.6246 H       1  LIG1        0.1425
     25 H          -6.0015   -1.6862    1.9246 H       1  LIG1        0.1425
     26 C          -4.3363   -3.6944    0.2150 C.ar    1  LIG1        0.1037
     27 C          -5.1478   -4.4399    1.0741 C.ar    1  LIG1        0.0953
     28 C          -4.5963   -5.7598    1.1084 C.ar    1  LIG1        0.1644
     29 C          -3.5125   -5.8050    0.2643 C.ar    1  LIG1        0.1298
     30 N          -3.3800   -4.5333   -0.2696 N.ar    1  LIG1       -0.3453
     31 H          -2.6320   -4.2355   -0.8747 H       1  LIG1        0.1662
     32 C          -6.3477   -4.0254    1.7021 C.1     1  LIG1       -0.0637
     33 C          -7.3745   -3.6896    2.2419 C.1     1  LIG1       -0.1137
     34 H          -8.3075   -3.4246    2.6834 H       1  LIG1        0.1232
     35 O          -5.0871   -6.8273    1.7921 O.3     1  LIG1       -0.4916
     36 C          -5.0490   -6.7042    3.2111 C.3     1  LIG1        0.0789
     37 H          -5.4496   -7.6358    3.6109 H       1  LIG1        0.0660
     38 H          -4.0196   -6.5694    3.5595 H       1  LIG1        0.0660
     39 H          -5.6630   -5.8665    3.5524 H       1  LIG1        0.0660
     40 C          -2.5710   -6.8580   -0.0454 C.ar    1  LIG1        0.1981
     41 C          -2.6242   -8.1709   -0.4226 C.ar    1  LIG1        0.1853
     42 C          -1.2673   -8.6416   -0.4813 C.ar    1  LIG1        0.1397
     43 C          -0.4594   -7.5767   -0.1602 C.ar    1  LIG1        0.1585
     44 O          -1.2347   -6.5096    0.1017 O.2     1  LIG1       -0.4480
     45 O          -3.6280   -8.9965   -0.7372 O.3     1  LIG1       -0.4901
     46 C          -4.9181   -8.4404   -0.9712 C.3     1  LIG1        0.0790
     47 H          -5.5170   -9.2545   -1.3781 H       1  LIG1        0.0660
     48 H          -5.3609   -8.0776   -0.0425 H       1  LIG1        0.0660
     49 H          -4.8615   -7.6279   -1.7025 H       1  LIG1        0.0660
     50 N          -0.5605  -11.0368   -1.1126 N.1     1  LIG1       -0.1906
     51 C          -0.8809   -9.9630   -0.8217 C.1     1  LIG1        0.1067
     52 C           1.6353   -6.4756    0.7207 C.ar    1  LIG1        0.0496
     53 C           0.9901   -7.4226   -0.0981 C.ar    1  LIG1        0.0397
     54 C           1.8030   -8.2655   -0.8649 C.ar    1  LIG1       -0.0473
     55 C           3.1730   -8.1379   -0.8258 C.ar    1  LIG1       -0.0349
     56 C           3.7467   -7.1367   -0.0294 C.ar    1  LIG1        0.0746
     57 N           2.9628   -6.3534    0.7311 N.ar    1  LIG1       -0.2511
     58 H           1.3555   -9.0306   -1.4883 H       1  LIG1        0.0626
     59 C           0.8993   -5.5456    1.6478 C.3     1  LIG1       -0.0216
     60 H           0.1278   -6.0672    2.2173 H       1  LIG1        0.0293
     61 H           0.3982   -4.7480    1.0941 H       1  LIG1        0.0293
     62 H           1.6142   -5.0945    2.3349 H       1  LIG1        0.0293
     63 H           3.7915   -8.8216   -1.3920 H       1  LIG1        0.0639
     64 C           5.8863   -6.2457    1.0521 C.ar    1  LIG1        0.1263
     65 C           5.2028   -6.9188   -0.0004 C.ar    1  LIG1        0.0416
     66 C           6.0005   -7.3607   -1.0577 C.ar    1  LIG1       -0.0264
     67 C           7.3749   -7.2164   -1.0576 C.ar    1  LIG1        0.0548
     68 C           7.9595   -6.6306    0.0831 C.ar    1  LIG1        0.1305
     69 N           7.2161   -6.1341    1.0716 N.ar    1  LIG1       -0.2268
     70 H           5.5276   -7.7924   -1.9350 H       1  LIG1        0.0644
     71 N           5.2385   -5.7223    2.1267 N.pl3   1  LIG1       -0.3426
     72 H           5.8079   -5.1626    2.7402 H       1  LIG1        0.1437
     73 H           4.2468   -5.5562    2.0294 H       1  LIG1        0.1437
     74 N           8.1730   -7.6248   -2.1604 N.pl3   1  LIG1       -0.3562
     75 H           7.6024   -7.9071   -2.9485 H       1  LIG1        0.1424
     76 H           8.7943   -6.8775   -2.4580 H       1  LIG1        0.1424
     77 C           9.4016   -6.5040    0.2271 C.ar    1  LIG1        0.1776
     78 C          10.4720   -7.3073   -0.1035 C.ar    1  LIG1        0.0889
     79 C          11.6360   -6.6711    0.4527 C.ar    1  LIG1        0.0948
     80 C          11.1819   -5.5443    1.0996 C.ar    1  LIG1        0.1878
     81 O           9.8556   -5.4383    0.9791 O.2     1  LIG1       -0.4469
     82 N          10.4896   -8.5233   -0.7378 N.pl3   1  LIG1       -0.3540
     83 H           9.7216   -8.6696   -1.3889 H       1  LIG1        0.1425
     84 H          11.4015   -8.8079   -1.0647 H       1  LIG1        0.1425
     85 C          12.9620   -7.1535    0.3358 C.1     1  LIG1       -0.0639
     86 C          14.0750   -7.5986    0.2023 C.1     1  LIG1       -0.1137
     87 H          15.0598   -7.9926    0.1015 H       1  LIG1        0.1232
     88 C          11.8821   -4.5167    1.8237 C.ar    1  LIG1        0.1728
     89 C          13.2047   -4.3485    2.1176 C.ar    1  LIG1        0.0080
     90 C          13.2951   -3.1353    2.8657 C.ar    1  LIG1        0.0635
     91 C          12.0206   -2.6633    2.9666 C.ar    1  LIG1        0.1133
     92 O          11.1501   -3.5033    2.3376 O.2     1  LIG1       -0.4579
     93 H          11.5883   -1.7968    3.4394 H       1  LIG1        0.1049
     94 H          14.0086   -5.0136    1.8417 H       1  LIG1        0.0675
     95 N          14.4627   -2.6112    3.4257 N.pl3   1  LIG1       -0.3555
     96 H          15.2789   -2.7559    2.8472 H       1  LIG1        0.1424
     97 H          14.3861   -1.6364    3.6816 H       1  LIG1        0.1424
@<TRIPOS>BOND
     1    11     8    1
     2     7     1    1
     3    10     8    1
     4     8     9    1
     5     8     2    1
     6     1     2   ar
     7     1     5   ar
     8     2     3   ar
     9     5     6    1
    10     5     4   ar
    11     3     4   ar
    12     3    12    1
    13    13    12    1
    14    75    74    1
    15     4    15    1
    16    12    14    1
    17    76    74    1
    18    74    67    1
    19    70    66    1
    20    49    46    1
    21    15    19   ar
    22    15    16   ar
    23    58    54    1
    24    63    55    1
    25    83    82    1
    26    47    46    1
    27    19    18   ar
    28    50    51    3
    29    84    82    1
    30    66    67   ar
    31    66    65   ar
    32    67    68   ar
    33    46    45    1
    34    46    48    1
    35    31    30    1
    36    54    55   ar
    37    54    53   ar
    38    55    56   ar
    39    51    42    1
    40    82    78    1
    41    45    41    1
    42    16    20    1
    43    16    17   ar
    44    42    41   ar
    45    42    43   ar
    46    41    40   ar
    47    20    21    3
    48    30    26   ar
    49    30    29   ar
    50    21    22    1
    51    18    26    1
    52    18    17   ar
    53    43    53    1
    54    43    44   ar
    55    78    77   ar
    56    78    79   ar
    57    53    52   ar
    58    40    44   ar
    59    40    29    1
    60    56    65    1
    61    56    57   ar
    62    65    64   ar
    63    68    77    1
    64    68    69   ar
    65    87    86    1
    66    86    85    3
    67    26    27   ar
    68    77    81   ar
    69    29    28   ar
    70    85    79    1
    71    17    23    1
    72    79    80   ar
    73    52    57   ar
    74    52    59    1
    75    81    80   ar
    76    64    69   ar
    77    64    71    1
    78    27    28   ar
    79    27    32    1
    80    61    59    1
    81    80    88    1
    82    28    35    1
    83    23    24    1
    84    23    25    1
    85    59    60    1
    86    59    62    1
    87    32    33    3
    88    35    36    1
    89    88    89   ar
    90    88    92   ar
    91    94    89    1
    92    73    71    1
    93    89    90   ar
    94    71    72    1
    95    33    34    1
    96    92    91   ar
    97    96    95    1
    98    90    91   ar
    99    90    95    1
   100    91    93    1
   101    36    39    1
   102    36    38    1
   103    36    37    1
   104    95    97    1
