@<TRIPOS>MOLECULE
mol_data/opt/cam/geoms/mol2/13ih13ih-4ih13ih.out
 56 59 0 0 0
SMALL
GASTEIGER

@<TRIPOS>ATOM
      1 C           1.4066   -0.4422    0.1170 C.ar    1  LIG1        0.0069
      2 C           0.9955    0.7552    0.6436 C.ar    1  LIG1       -0.0118
      3 C          -0.4303    0.7476    0.5989 C.ar    1  LIG1        0.0546
      4 C          -0.8415   -0.4543    0.0493 C.ar    1  LIG1        0.0844
      5 N           0.2954   -1.1666   -0.2344 N.ar    1  LIG1       -0.3578
      6 H           0.3056   -2.0684   -0.6776 H       1  LIG1        0.1654
      7 H           2.4010   -0.8349   -0.0327 H       1  LIG1        0.0810
      8 C           1.8570    1.8606    1.1656 C.3     1  LIG1       -0.0365
      9 H           1.6423    2.0823    2.2169 H       1  LIG1        0.0279
     10 H           1.7099    2.7915    0.6065 H       1  LIG1        0.0279
     11 H           2.9158    1.6016    1.0951 H       1  LIG1        0.0279
     12 N          -1.3318    1.7739    1.0311 N.pl3   1  LIG1       -0.3561
     13 H          -1.2643    1.9220    2.0345 H       1  LIG1        0.1424
     14 H          -1.1104    2.6609    0.5879 H       1  LIG1        0.1424
     15 C          -2.1806   -0.9360   -0.2168 C.ar    1  LIG1        0.0699
     16 C          -2.6702   -2.1502   -0.6822 C.ar    1  LIG1       -0.0024
     17 C          -4.0824   -2.0181   -0.7371 C.ar    1  LIG1        0.0538
     18 C          -4.4220   -0.7444   -0.2993 C.ar    1  LIG1        0.0685
     19 N          -3.2393   -0.1083    0.0025 N.ar    1  LIG1       -0.3513
     20 H          -3.1006    0.8022    0.4264 H       1  LIG1        0.1660
     21 C          -1.9027   -3.3860   -1.0399 C.3     1  LIG1       -0.0359
     22 H          -1.1446   -3.6275   -0.2863 H       1  LIG1        0.0279
     23 H          -1.3993   -3.3195   -2.0135 H       1  LIG1        0.0279
     24 H          -2.5726   -4.2488   -1.0821 H       1  LIG1        0.0279
     25 N          -4.9630   -3.0391   -1.1495 N.pl3   1  LIG1       -0.3561
     26 H          -5.8881   -2.6731   -1.3405 H       1  LIG1        0.1424
     27 H          -4.6253   -3.5096   -1.9810 H       1  LIG1        0.1424
     28 C          -6.0229    1.2062   -0.4638 C.ar    1  LIG1       -0.0406
     29 C          -7.3188    1.6708   -0.2684 C.ar    1  LIG1       -0.0473
     30 C          -5.7422   -0.1335   -0.1283 C.ar    1  LIG1        0.0048
     31 C          -8.3633    0.8831    0.2203 C.ar    1  LIG1        0.0195
     32 H          -7.5348    2.7093   -0.4984 H       1  LIG1        0.0627
     33 C          -6.7776   -0.9304    0.3742 C.ar    1  LIG1       -0.0310
     34 C          -8.0747   -0.4559    0.5447 C.ar    1  LIG1        0.0344
     35 H          -6.5526   -1.9520    0.6686 H       1  LIG1        0.0643
     36 C          -4.9843    2.1383   -1.0362 C.3     1  LIG1       -0.0391
     37 H          -5.4652    2.9954   -1.5133 H       1  LIG1        0.0278
     38 H          -4.3624    1.6363   -1.7814 H       1  LIG1        0.0278
     39 H          -4.3074    2.5371   -0.2717 H       1  LIG1        0.0278
     40 N          -9.0610   -1.2909    1.0953 N.pl3   1  LIG1       -0.3574
     41 H          -9.9856   -1.1239    0.7180 H       1  LIG1        0.1423
     42 H          -8.8206   -2.2719    1.0508 H       1  LIG1        0.1423
     43 C          -9.7053    1.4546    0.4017 C.ar    1  LIG1        0.0530
     44 C         -10.4348    2.3356   -0.3811 C.ar    1  LIG1       -0.0045
     45 C         -11.6507    2.6035    0.3136 C.ar    1  LIG1        0.0456
     46 C         -11.6355    1.8828    1.4829 C.ar    1  LIG1        0.0233
     47 N         -10.4533    1.1820    1.5203 N.ar    1  LIG1       -0.3588
     48 H         -10.1314    0.5990    2.2755 H       1  LIG1        0.1654
     49 H         -12.3621    1.8123    2.2775 H       1  LIG1        0.0826
     50 C         -10.0808    2.8905   -1.7250 C.3     1  LIG1       -0.0360
     51 H          -9.8289    3.9563   -1.6810 H       1  LIG1        0.0279
     52 H         -10.9154    2.7922   -2.4302 H       1  LIG1        0.0279
     53 H          -9.2299    2.3639   -2.1609 H       1  LIG1        0.0279
     54 N         -12.6415    3.4983   -0.1303 N.pl3   1  LIG1       -0.3566
     55 H         -12.7470    3.4848   -1.1372 H       1  LIG1        0.1424
     56 H         -13.5415    3.3270    0.2989 H       1  LIG1        0.1424
@<TRIPOS>BOND
     1    52    50    1
     2    53    50    1
     3    23    21    1
     4    27    25    1
     5    38    36    1
     6    50    51    1
     7    50    44    1
     8    37    36    1
     9    26    25    1
    10    25    17    1
    11    55    54    1
    12    24    21    1
    13    21    16    1
    14    21    22    1
    15    36    28    1
    16    36    39    1
    17    17    16   ar
    18    17    18   ar
    19    16    15   ar
    20     6     5    1
    21    32    29    1
    22    28    29   ar
    23    28    30   ar
    24    44    45   ar
    25    44    43   ar
    26    18    30    1
    27    18    19   ar
    28    29    31   ar
    29     5     4   ar
    30     5     1   ar
    31    15    19   ar
    32    15     4    1
    33    54    56    1
    34    54    45    1
    35    30    33   ar
    36     7     1    1
    37    19    20    1
    38     4     3   ar
    39     1     2   ar
    40    31    43    1
    41    31    34   ar
    42    45    46   ar
    43    33    34   ar
    44    33    35    1
    45    43    47   ar
    46    34    40    1
    47    14    12    1
    48     3     2   ar
    49     3    12    1
    50    10     8    1
    51     2     8    1
    52    41    40    1
    53    12    13    1
    54    42    40    1
    55    11     8    1
    56     8     9    1
    57    46    47   ar
    58    46    49    1
    59    47    48    1
