@<TRIPOS>MOLECULE
mol_data/opt/cam/geoms/mol2/13ih13ih-13ih.out
 41 43 0 0 0
SMALL
GASTEIGER

@<TRIPOS>ATOM
      1 C           1.2592   -0.3299   -0.0832 C.ar    1  LIG1        0.0069
      2 C           0.8276    0.9710   -0.1043 C.ar    1  LIG1       -0.0118
      3 C          -0.5985    0.9240   -0.0960 C.ar    1  LIG1        0.0546
      4 C          -0.9895   -0.4032   -0.0698 C.ar    1  LIG1        0.0844
      5 N           0.1596   -1.1519   -0.0620 N.ar    1  LIG1       -0.3578
      6 H           0.1856   -2.1561   -0.0452 H       1  LIG1        0.1654
      7 H           2.2601   -0.7344   -0.0814 H       1  LIG1        0.0810
      8 C           1.6698    2.2066   -0.1307 C.3     1  LIG1       -0.0365
      9 H           1.4807    2.8469    0.7380 H       1  LIG1        0.0279
     10 H           1.4759    2.8131   -1.0225 H       1  LIG1        0.0279
     11 H           2.7336    1.9586   -0.1291 H       1  LIG1        0.0279
     12 N          -1.5186    2.0216   -0.1114 N.pl3   1  LIG1       -0.3561
     13 H          -1.3926    2.6166    0.7027 H       1  LIG1        0.1424
     14 H          -1.3745    2.6078   -0.9287 H       1  LIG1        0.1424
     15 C          -2.3190   -0.9742   -0.0532 C.ar    1  LIG1        0.0699
     16 C          -2.7825   -2.2792   -0.0236 C.ar    1  LIG1       -0.0024
     17 C          -4.2034   -2.1998   -0.0268 C.ar    1  LIG1        0.0552
     18 C          -4.5667   -0.8607   -0.0544 C.ar    1  LIG1        0.0849
     19 N          -3.4083   -0.1399   -0.0698 N.ar    1  LIG1       -0.3501
     20 H          -3.2856    0.8666   -0.1095 H       1  LIG1        0.1661
     21 C          -1.9800   -3.5428    0.0069 C.3     1  LIG1       -0.0359
     22 H          -1.3305   -3.6063    0.8884 H       1  LIG1        0.0279
     23 H          -1.3508   -3.6643   -0.8835 H       1  LIG1        0.0279
     24 H          -2.6418   -4.4122    0.0435 H       1  LIG1        0.0279
     25 N          -5.1476   -3.2767   -0.0073 N.pl3   1  LIG1       -0.3561
     26 H          -4.9930   -3.9186   -0.7790 H       1  LIG1        0.1424
     27 H          -5.0798   -3.8165    0.8508 H       1  LIG1        0.1424
     28 C          -5.8852   -0.2624   -0.0714 C.ar    1  LIG1        0.0695
     29 C          -6.3155    1.0561   -0.0273 C.ar    1  LIG1       -0.0031
     30 C          -7.7372    1.0182   -0.0880 C.ar    1  LIG1        0.0457
     31 C          -8.1232   -0.3014   -0.1566 C.ar    1  LIG1        0.0233
     32 N          -6.9892   -1.0669   -0.1364 N.ar    1  LIG1       -0.3576
     33 H          -6.8941   -2.0759   -0.1431 H       1  LIG1        0.1654
     34 H          -9.1070   -0.7429   -0.2078 H       1  LIG1        0.0826
     35 C          -5.4983    2.3041    0.0968 C.3     1  LIG1       -0.0359
     36 H          -6.1451    3.1350    0.3902 H       1  LIG1        0.0279
     37 H          -4.9994    2.5883   -0.8383 H       1  LIG1        0.0279
     38 H          -4.7223    2.2139    0.8641 H       1  LIG1        0.0279
     39 N          -8.5637    2.1658   -0.0204 N.pl3   1  LIG1       -0.3566
     40 H          -8.4280    2.7754   -0.8196 H       1  LIG1        0.1424
     41 H          -9.5441    1.9156    0.0202 H       1  LIG1        0.1424
@<TRIPOS>BOND
     1    10     8    1
     2    14    12    1
     3    23    21    1
     4    37    35    1
     5    40    39    1
     6    26    25    1
     7    34    31    1
     8    31    32   ar
     9    31    30   ar
    10    33    32    1
    11    32    28   ar
    12     8    11    1
    13     8     2    1
    14     8     9    1
    15    12     3    1
    16    12    13    1
    17    20    19    1
    18     2     3   ar
    19     2     1   ar
    20     3     4   ar
    21    30    29   ar
    22    30    39    1
    23     1     7    1
    24     1     5   ar
    25    28    18    1
    26    28    29   ar
    27     4     5   ar
    28     4    15    1
    29    19    18   ar
    30    19    15   ar
    31     5     6    1
    32    18    17   ar
    33    15    16   ar
    34    29    35    1
    35    17    16   ar
    36    17    25    1
    37    16    21    1
    38    39    41    1
    39    25    27    1
    40    21    24    1
    41    21    22    1
    42    35    36    1
    43    35    38    1
