@<TRIPOS>MOLECULE
mol_data/opt/cam/geoms/mol2/13ih13ih13ih13ih-.out
 54 57 0 0 0
SMALL
GASTEIGER

@<TRIPOS>ATOM
      1 C           0.4386    0.6396    1.9824 C.ar    1  LIG1        0.0069
      2 C           0.6581    1.2572    0.7763 C.ar    1  LIG1       -0.0118
      3 C          -0.4264    0.8868   -0.0742 C.ar    1  LIG1        0.0546
      4 C          -1.2714    0.0628    0.6398 C.ar    1  LIG1        0.0844
      5 N          -0.7087   -0.0974    1.8988 N.ar    1  LIG1       -0.3578
      6 H          -1.2089   -0.4754    2.6858 H       1  LIG1        0.1654
      7 H           1.0211    0.6733    2.8913 H       1  LIG1        0.0810
      8 C           1.8066    2.1350    0.3944 C.3     1  LIG1       -0.0365
      9 H           1.4600    3.1064    0.0267 H       1  LIG1        0.0279
     10 H           2.4207    1.6915   -0.3992 H       1  LIG1        0.0279
     11 H           2.4649    2.3157    1.2474 H       1  LIG1        0.0279
     12 N          -0.5940    1.3211   -1.3992 N.pl3   1  LIG1       -0.3561
     13 H           0.2794    1.3423   -1.9116 H       1  LIG1        0.1424
     14 H          -1.2668    0.7514   -1.8984 H       1  LIG1        0.1424
     15 C          -2.4927   -0.6161    0.2441 C.ar    1  LIG1        0.0699
     16 C          -3.6273   -0.1435   -0.3942 C.ar    1  LIG1       -0.0024
     17 C          -4.5171   -1.2466   -0.5302 C.ar    1  LIG1        0.0552
     18 C          -3.9253   -2.3575    0.0372 C.ar    1  LIG1        0.0849
     19 N          -2.6855   -1.9500    0.5039 N.ar    1  LIG1       -0.3501
     20 H          -2.0152   -2.5485    0.9563 H       1  LIG1        0.1661
     21 C          -3.9186    1.2639   -0.8100 C.3     1  LIG1       -0.0359
     22 H          -4.8782    1.5992   -0.4024 H       1  LIG1        0.0279
     23 H          -3.9786    1.3765   -1.9002 H       1  LIG1        0.0279
     24 H          -3.1404    1.9444   -0.4604 H       1  LIG1        0.0279
     25 N          -5.8027   -1.1775   -1.0920 N.pl3   1  LIG1       -0.3561
     26 H          -5.8392   -0.5570   -1.8914 H       1  LIG1        0.1424
     27 H          -6.1469   -2.0934   -1.3557 H       1  LIG1        0.1424
     28 C          -4.3885   -3.7290    0.1460 C.ar    1  LIG1        0.0699
     29 C          -5.5874   -4.2583    0.5814 C.ar    1  LIG1       -0.0024
     30 C          -5.4799   -5.6753    0.4644 C.ar    1  LIG1        0.0552
     31 C          -4.2228   -5.9812   -0.0223 C.ar    1  LIG1        0.0849
     32 N          -3.5684   -4.7887   -0.1986 N.ar    1  LIG1       -0.3501
     33 H          -2.6984   -4.6874   -0.6936 H       1  LIG1        0.1661
     34 C          -6.7567   -3.5131    1.1439 C.3     1  LIG1       -0.0359
     35 H          -6.9898   -3.8482    2.1610 H       1  LIG1        0.0279
     36 H          -7.6647   -3.6603    0.5473 H       1  LIG1        0.0279
     37 H          -6.5608   -2.4405    1.1779 H       1  LIG1        0.0279
     38 N          -6.4619   -6.6625    0.8016 N.pl3   1  LIG1       -0.3561
     39 H          -6.6457   -6.6662    1.8018 H       1  LIG1        0.1424
     40 H          -7.3465   -6.4585    0.3453 H       1  LIG1        0.1424
     41 C          -3.6336   -7.2685   -0.3238 C.ar    1  LIG1        0.0695
     42 C          -2.3628   -7.6440   -0.7352 C.ar    1  LIG1       -0.0031
     43 C          -2.3884   -9.0597   -0.8820 C.ar    1  LIG1        0.0457
     44 C          -3.6522   -9.4956   -0.5524 C.ar    1  LIG1        0.0233
     45 N          -4.3935   -8.3991   -0.2074 N.ar    1  LIG1       -0.3576
     46 H          -5.3517   -8.3463    0.1204 H       1  LIG1        0.1654
     47 H          -4.0661  -10.4923   -0.5290 H       1  LIG1        0.0826
     48 C          -1.1562   -6.7856   -0.9535 C.3     1  LIG1       -0.0359
     49 H          -1.0213   -6.0545   -0.1488 H       1  LIG1        0.0279
     50 H          -1.1804   -6.2358   -1.9041 H       1  LIG1        0.0279
     51 H          -0.2613   -7.4130   -0.9671 H       1  LIG1        0.0279
     52 N          -1.2618   -9.8373   -1.2417 N.pl3   1  LIG1       -0.3566
     53 H          -1.4516  -10.8286   -1.1602 H       1  LIG1        0.1424
     54 H          -0.9608   -9.6518   -2.1924 H       1  LIG1        0.1424
@<TRIPOS>BOND
     1    54    52    1
     2    13    12    1
     3    50    48    1
     4    23    21    1
     5    14    12    1
     6    26    25    1
     7    12     3    1
     8    27    25    1
     9    52    53    1
    10    52    43    1
    11    25    17    1
    12    51    48    1
    13    48    42    1
    14    48    49    1
    15    43    42   ar
    16    43    44   ar
    17    21    24    1
    18    21    22    1
    19    21    16    1
    20    42    41   ar
    21    33    32    1
    22    44    47    1
    23    44    45   ar
    24    17    16   ar
    25    17    18   ar
    26    10     8    1
    27    16    15   ar
    28    41    45   ar
    29    41    31    1
    30    45    46    1
    31    32    31   ar
    32    32    28   ar
    33     3     4   ar
    34     3     2   ar
    35    31    30   ar
    36     9     8    1
    37    18    28    1
    38    18    19   ar
    39    28    29   ar
    40    15    19   ar
    41    15     4    1
    42    40    38    1
    43     8     2    1
    44     8    11    1
    45    30    29   ar
    46    30    38    1
    47    19    20    1
    48    36    34    1
    49    29    34    1
    50     4     5   ar
    51     2     1   ar
    52    38    39    1
    53    34    37    1
    54    34    35    1
    55     5     1   ar
    56     5     6    1
    57     1     7    1
