@<TRIPOS>MOLECULE
mol_data/opt/cam/geoms/mol2/13ih13ih13ih13ih.out
 54 57 0 0 0
SMALL
GASTEIGER

@<TRIPOS>ATOM
      1 C           0.4723    0.3568    2.1017 C.ar    1  LIG1        0.0069
      2 C           0.7259    1.0589    0.9497 C.ar    1  LIG1       -0.0118
      3 C          -0.3607    0.7933    0.0634 C.ar    1  LIG1        0.0546
      4 C          -1.2404   -0.0551    0.7030 C.ar    1  LIG1        0.0844
      5 N          -0.6979   -0.3321    1.9504 N.ar    1  LIG1       -0.3578
      6 H          -1.2196   -0.7515    2.7017 H       1  LIG1        0.1654
      7 H           1.0449    0.2999    3.0156 H       1  LIG1        0.0810
      8 C           1.9066    1.9251    0.6482 C.3     1  LIG1       -0.0365
      9 H           1.5954    2.9318    0.3504 H       1  LIG1        0.0279
     10 H           2.5178    1.5226   -0.1692 H       1  LIG1        0.0279
     11 H           2.5581    2.0204    1.5201 H       1  LIG1        0.0279
     12 N          -0.4990    1.3363   -1.2245 N.pl3   1  LIG1       -0.3561
     13 H           0.3787    1.3609   -1.7293 H       1  LIG1        0.1424
     14 H          -1.1909    0.8361   -1.7698 H       1  LIG1        0.1424
     15 C          -2.4801   -0.6571    0.2447 C.ar    1  LIG1        0.0699
     16 C          -3.5913   -0.0941   -0.3605 C.ar    1  LIG1       -0.0024
     17 C          -4.5210   -1.1490   -0.5849 C.ar    1  LIG1        0.0552
     18 C          -3.9742   -2.3220   -0.1046 C.ar    1  LIG1        0.0849
     19 N          -2.7224   -1.9998    0.3952 N.ar    1  LIG1       -0.3501
     20 H          -2.0895   -2.6512    0.8281 H       1  LIG1        0.1661
     21 C          -3.8279    1.3514   -0.6648 C.3     1  LIG1       -0.0359
     22 H          -4.7916    1.6789   -0.2607 H       1  LIG1        0.0279
     23 H          -3.8473    1.5585   -1.7426 H       1  LIG1        0.0279
     24 H          -3.0435    1.9756   -0.2332 H       1  LIG1        0.0279
     25 N          -5.7988   -0.9858   -1.1436 N.pl3   1  LIG1       -0.3561
     26 H          -5.8017   -0.3325   -1.9172 H       1  LIG1        0.1424
     27 H          -6.1968   -1.8692   -1.4392 H       1  LIG1        0.1424
     28 C          -4.4915   -3.6792   -0.1044 C.ar    1  LIG1        0.0699
     29 C          -5.7135   -4.1820    0.3108 C.ar    1  LIG1       -0.0024
     30 C          -5.6800   -5.5889    0.0943 C.ar    1  LIG1        0.0552
     31 C          -4.4463   -5.9196   -0.4294 C.ar    1  LIG1        0.0849
     32 N          -3.7341   -4.7372   -0.5442 N.ar    1  LIG1       -0.3501
     33 H          -2.7995   -4.6667   -0.9095 H       1  LIG1        0.1661
     34 C          -6.8422   -3.4267    0.9380 C.3     1  LIG1       -0.0359
     35 H          -7.1388   -3.8883    1.8858 H       1  LIG1        0.0279
     36 H          -7.7364   -3.4023    0.3021 H       1  LIG1        0.0279
     37 H          -6.5595   -2.3907    1.1325 H       1  LIG1        0.0279
     38 N          -6.7151   -6.4776    0.4270 N.pl3   1  LIG1       -0.3561
     39 H          -7.6305   -6.1010    0.2134 H       1  LIG1        0.1424
     40 H          -6.5997   -7.3760   -0.0268 H       1  LIG1        0.1424
     41 C          -3.9061   -7.2011   -0.8481 C.ar    1  LIG1        0.0695
     42 C          -3.8768   -8.4243   -0.2057 C.ar    1  LIG1       -0.0031
     43 C          -3.2358   -9.3447   -1.0910 C.ar    1  LIG1        0.0457
     44 C          -2.8909   -8.6641   -2.2306 C.ar    1  LIG1        0.0233
     45 N          -3.2744   -7.3485   -2.0622 N.ar    1  LIG1       -0.3576
     46 H          -3.3447   -6.6760   -2.8070 H       1  LIG1        0.1654
     47 H          -2.3770   -8.9944   -3.1203 H       1  LIG1        0.0826
     48 C          -4.3225   -8.7334    1.1884 C.3     1  LIG1       -0.0359
     49 H          -3.5154   -9.2068    1.7576 H       1  LIG1        0.0279
     50 H          -5.1764   -9.4225    1.2132 H       1  LIG1        0.0279
     51 H          -4.6286   -7.8260    1.7116 H       1  LIG1        0.0279
     52 N          -2.9349  -10.6761   -0.7536 N.pl3   1  LIG1       -0.3566
     53 H          -3.6987  -11.1318   -0.2699 H       1  LIG1        0.1424
     54 H          -2.6679  -11.2331   -1.5548 H       1  LIG1        0.1424
@<TRIPOS>BOND
     1    47    44    1
     2    46    45    1
     3    44    45   ar
     4    44    43   ar
     5    45    41   ar
     6    26    25    1
     7    14    12    1
     8    23    21    1
     9    13    12    1
    10    54    52    1
    11    27    25    1
    12    12     3    1
    13    25    17    1
    14    43    52    1
    15    43    42   ar
    16    33    32    1
    17    41    31    1
    18    41    42   ar
    19    52    53    1
    20    21    16    1
    21    21    22    1
    22    21    24    1
    23    17    16   ar
    24    17    18   ar
    25    32    31   ar
    26    32    28   ar
    27    31    30   ar
    28    16    15   ar
    29    42    48    1
    30    10     8    1
    31    18    28    1
    32    18    19   ar
    33    28    29   ar
    34    40    38    1
    35     3     4   ar
    36     3     2   ar
    37    30    29   ar
    38    30    38    1
    39    39    38    1
    40    15    19   ar
    41    15     4    1
    42    36    34    1
    43    29    34    1
    44     9     8    1
    45    19    20    1
    46     8     2    1
    47     8    11    1
    48     4     5   ar
    49    34    37    1
    50    34    35    1
    51     2     1   ar
    52    48    50    1
    53    48    51    1
    54    48    49    1
    55     5     1   ar
    56     5     6    1
    57     1     7    1
