@<TRIPOS>MOLECULE
mol_data/opt/cam/geoms/mol2/13ih13ih13ih.out
 41 43 0 0 0
SMALL
GASTEIGER

@<TRIPOS>ATOM
      1 C           0.9040    0.0226    1.3478 C.ar    1  LIG1        0.0069
      2 C           0.8424    0.9898    0.3755 C.ar    1  LIG1       -0.0118
      3 C          -0.4386    0.8662   -0.2412 C.ar    1  LIG1        0.0546
      4 C          -1.1156   -0.1653    0.3754 C.ar    1  LIG1        0.0844
      5 N          -0.2624   -0.6889    1.3371 N.ar    1  LIG1       -0.3578
      6 H          -0.5665   -1.3072    2.0705 H       1  LIG1        0.1654
      7 H           1.6977   -0.2077    2.0430 H       1  LIG1        0.0810
      8 C           1.8989    1.9798    0.0026 C.3     1  LIG1       -0.0365
      9 H           1.5169    3.0050    0.0477 H       1  LIG1        0.0279
     10 H           2.2744    1.8214   -1.0160 H       1  LIG1        0.0279
     11 H           2.7569    1.9126    0.6757 H       1  LIG1        0.0279
     12 N          -0.9142    1.6845   -1.2790 N.pl3   1  LIG1       -0.3561
     13 H          -0.2016    1.8843   -1.9705 H       1  LIG1        0.1424
     14 H          -1.7246    1.2802   -1.7331 H       1  LIG1        0.1424
     15 C          -2.4304   -0.7255    0.1164 C.ar    1  LIG1        0.0699
     16 C          -3.6646   -0.1135   -0.0270 C.ar    1  LIG1       -0.0024
     17 C          -4.6158   -1.1469   -0.2614 C.ar    1  LIG1        0.0552
     18 C          -3.9558   -2.3592   -0.2415 C.ar    1  LIG1        0.0849
     19 N          -2.6189   -2.0792   -0.0115 N.ar    1  LIG1       -0.3501
     20 H          -1.8914   -2.7705    0.0567 H       1  LIG1        0.1661
     21 C          -3.9788    1.3432    0.1049 C.3     1  LIG1       -0.0359
     22 H          -4.7949    1.5006    0.8178 H       1  LIG1        0.0279
     23 H          -4.2940    1.7942   -0.8449 H       1  LIG1        0.0279
     24 H          -3.1072    1.9018    0.4505 H       1  LIG1        0.0279
     25 N          -5.9967   -0.9464   -0.4195 N.pl3   1  LIG1       -0.3561
     26 H          -6.2058   -0.1287   -0.9790 H       1  LIG1        0.1424
     27 H          -6.4511   -1.7593   -0.8183 H       1  LIG1        0.1424
     28 C          -4.4453   -3.7104   -0.4501 C.ar    1  LIG1        0.0695
     29 C          -5.5265   -4.3770    0.0945 C.ar    1  LIG1       -0.0031
     30 C          -5.5439   -5.6840   -0.4828 C.ar    1  LIG1        0.0457
     31 C          -4.4832   -5.7785   -1.3468 C.ar    1  LIG1        0.0233
     32 N          -3.7983   -4.5808   -1.2977 N.ar    1  LIG1       -0.3576
     33 H          -3.1140   -4.2872   -1.9741 H       1  LIG1        0.1654
     34 H          -4.1419   -6.6013   -1.9562 H       1  LIG1        0.0826
     35 C          -6.4540   -3.8922    1.1634 C.3     1  LIG1       -0.0359
     36 H          -6.4948   -4.6052    1.9938 H       1  LIG1        0.0279
     37 H          -7.4825   -3.7658    0.8016 H       1  LIG1        0.0279
     38 H          -6.1313   -2.9254    1.5534 H       1  LIG1        0.0279
     39 N          -6.4469   -6.6944   -0.1072 N.pl3   1  LIG1       -0.3566
     40 H          -7.3921   -6.3462   -0.0054 H       1  LIG1        0.1424
     41 H          -6.4474   -7.4776   -0.7475 H       1  LIG1        0.1424
@<TRIPOS>BOND
     1    33    32    1
     2    13    12    1
     3    34    31    1
     4    14    12    1
     5    31    32   ar
     6    31    30   ar
     7    32    28   ar
     8    12     3    1
     9    10     8    1
    10    26    25    1
    11    23    21    1
    12    27    25    1
    13    41    39    1
    14    30    39    1
    15    30    29   ar
    16    28    18    1
    17    28    29   ar
    18    25    17    1
    19    17    18   ar
    20    17    16   ar
    21    18    19   ar
    22     3     4   ar
    23     3     2   ar
    24    39    40    1
    25    16    21    1
    26    16    15   ar
    27    19    20    1
    28    19    15   ar
    29     8     9    1
    30     8     2    1
    31     8    11    1
    32    29    35    1
    33    21    24    1
    34    21    22    1
    35    15     4    1
    36     4     5   ar
    37     2     1   ar
    38    37    35    1
    39    35    38    1
    40    35    36    1
    41     5     1   ar
    42     5     6    1
    43     1     7    1
