@<TRIPOS>MOLECULE
mol_data/opt/cam/geoms/mol2/13ih13ih-.out
 28 29 0 0 0
SMALL
GASTEIGER

@<TRIPOS>ATOM
      1 C           1.2048   -0.2739   -0.0574 C.ar    1  LIG1        0.0069
      2 C           0.7710    1.0264   -0.0797 C.ar    1  LIG1       -0.0118
      3 C          -0.6550    0.9764   -0.0915 C.ar    1  LIG1        0.0546
      4 C          -1.0432   -0.3513   -0.0728 C.ar    1  LIG1        0.0844
      5 N           0.1066   -1.0972   -0.0503 N.ar    1  LIG1       -0.3578
      6 H           0.1312   -2.1019   -0.0598 H       1  LIG1        0.1654
      7 H           2.2064   -0.6765   -0.0445 H       1  LIG1        0.0810
      8 C           1.6115    2.2635   -0.0899 C.3     1  LIG1       -0.0365
      9 H           1.4064    2.9028    0.7761 H       1  LIG1        0.0279
     10 H           1.4334    2.8711   -0.9844 H       1  LIG1        0.0279
     11 H           2.6755    2.0172   -0.0698 H       1  LIG1        0.0279
     12 N          -1.5767    2.0733   -0.1199 N.pl3   1  LIG1       -0.3561
     13 H          -1.4936    2.6403    0.7198 H       1  LIG1        0.1424
     14 H          -1.3835    2.6868   -0.9066 H       1  LIG1        0.1424
     15 C          -2.3714   -0.9296   -0.0825 C.ar    1  LIG1        0.0694
     16 C          -2.8255   -2.2373    0.0059 C.ar    1  LIG1       -0.0031
     17 C          -4.2459   -2.1772   -0.0731 C.ar    1  LIG1        0.0457
     18 C          -4.6062   -0.8543   -0.1958 C.ar    1  LIG1        0.0233
     19 N          -3.4592   -0.1089   -0.1907 N.ar    1  LIG1       -0.3576
     20 H          -3.3445    0.8977   -0.2346 H       1  LIG1        0.1654
     21 H          -5.5811   -0.3974   -0.2754 H       1  LIG1        0.0826
     22 C          -2.0340   -3.4943    0.1917 C.3     1  LIG1       -0.0359
     23 H          -1.2849   -3.3958    0.9860 H       1  LIG1        0.0279
     24 H          -1.5158   -3.8194   -0.7202 H       1  LIG1        0.0279
     25 H          -2.7039   -4.3046    0.4897 H       1  LIG1        0.0279
     26 N          -5.0916   -3.3085    0.0273 N.pl3   1  LIG1       -0.3566
     27 H          -6.0651   -3.0395    0.0996 H       1  LIG1        0.1424
     28 H          -4.9951   -3.9250   -0.7725 H       1  LIG1        0.1424
@<TRIPOS>BOND
     1    10     8    1
     2    14    12    1
     3    28    26    1
     4    24    22    1
     5    21    18    1
     6    20    19    1
     7    18    19   ar
     8    18    17   ar
     9    19    15   ar
    10    12     3    1
    11    12    13    1
    12     3     2   ar
    13     3     4   ar
    14     8     2    1
    15     8    11    1
    16     8     9    1
    17    15     4    1
    18    15    16   ar
    19     2     1   ar
    20    17    16   ar
    21    17    26    1
    22     4     5   ar
    23     6     5    1
    24     1     5   ar
    25     1     7    1
    26    16    22    1
    27    26    27    1
    28    22    25    1
    29    22    23    1
