@<TRIPOS>MOLECULE
mol_data/opt/cam/geoms/mol2/13ih13ih-13ih-13ih-.out
 54 57 0 0 0
SMALL
GASTEIGER

@<TRIPOS>ATOM
      1 C           1.2897   -0.1671    0.1947 C.ar    1  LIG1        0.0069
      2 C           0.7826    0.9679    0.7734 C.ar    1  LIG1       -0.0118
      3 C          -0.6379    0.8477    0.7208 C.ar    1  LIG1        0.0546
      4 C          -0.9498   -0.3570    0.1157 C.ar    1  LIG1        0.0844
      5 N           0.2411   -0.9623   -0.1940 N.ar    1  LIG1       -0.3578
      6 H           0.3239   -1.8385   -0.6790 H       1  LIG1        0.1654
      7 H           2.3128   -0.4708    0.0318 H       1  LIG1        0.0810
      8 C           1.5514    2.1131    1.3515 C.3     1  LIG1       -0.0365
      9 H           1.3223    2.2628    2.4123 H       1  LIG1        0.0279
     10 H           1.3265    3.0559    0.8401 H       1  LIG1        0.0279
     11 H           2.6278    1.9464    1.2693 H       1  LIG1        0.0279
     12 N          -1.6215    1.7729    1.1984 N.pl3   1  LIG1       -0.3561
     13 H          -1.5924    1.8485    2.2118 H       1  LIG1        0.1424
     14 H          -1.4520    2.7046    0.8305 H       1  LIG1        0.1424
     15 C          -2.2450   -0.9360   -0.1746 C.ar    1  LIG1        0.0699
     16 C          -2.6315   -2.1897   -0.6288 C.ar    1  LIG1       -0.0024
     17 C          -4.0507   -2.1717   -0.7025 C.ar    1  LIG1        0.0552
     18 C          -4.4922   -0.9316   -0.2755 C.ar    1  LIG1        0.0849
     19 N          -3.3705   -0.1904    0.0293 N.ar    1  LIG1       -0.3501
     20 H          -3.3157    0.7092    0.4969 H       1  LIG1        0.1661
     21 C          -1.7698   -3.3678   -0.9641 C.3     1  LIG1       -0.0359
     22 H          -0.9842   -3.5251   -0.2166 H       1  LIG1        0.0279
     23 H          -1.2867   -3.2884   -1.9471 H       1  LIG1        0.0279
     24 H          -2.3733   -4.2792   -0.9748 H       1  LIG1        0.0279
     25 N          -4.8487   -3.2562   -1.1181 N.pl3   1  LIG1       -0.3561
     26 H          -5.8180   -2.9769   -1.2147 H       1  LIG1        0.1424
     27 H          -4.5328   -3.6414   -2.0008 H       1  LIG1        0.1424
     28 C          -5.8351   -0.3873   -0.1836 C.ar    1  LIG1        0.0699
     29 C          -6.9950   -0.9140    0.3615 C.ar    1  LIG1       -0.0024
     30 C          -8.0174    0.0610    0.1833 C.ar    1  LIG1        0.0552
     31 C          -7.4664    1.1601   -0.4441 C.ar    1  LIG1        0.0849
     32 N          -6.1321    0.8623   -0.6660 N.ar    1  LIG1       -0.3501
     33 H          -5.4636    1.4924   -1.0762 H       1  LIG1        0.1661
     34 C          -7.1568   -2.2152    1.0824 C.3     1  LIG1       -0.0359
     35 H          -6.1874   -2.6765    1.2807 H       1  LIG1        0.0279
     36 H          -7.7526   -2.9446    0.5178 H       1  LIG1        0.0279
     37 H          -7.6667   -2.0634    2.0395 H       1  LIG1        0.0279
     38 N          -9.3408   -0.0726    0.6359 N.pl3   1  LIG1       -0.3561
     39 H          -9.9535    0.6122    0.2090 H       1  LIG1        0.1424
     40 H          -9.7086   -1.0030    0.4789 H       1  LIG1        0.1424
     41 C          -8.0691    2.4077   -0.8788 C.ar    1  LIG1        0.0695
     42 C          -8.8981    3.2939   -0.2170 C.ar    1  LIG1       -0.0031
     43 C          -9.2014    4.3456   -1.1353 C.ar    1  LIG1        0.0457
     44 C          -8.5522    4.0786   -2.3133 C.ar    1  LIG1        0.0233
     45 N          -7.8380    2.9100   -2.1389 N.ar    1  LIG1       -0.3576
     46 H          -7.4388    2.3670   -2.8856 H       1  LIG1        0.1654
     47 H          -8.5100    4.6356   -3.2368 H       1  LIG1        0.0826
     48 C          -9.3249    3.2477    1.2161 C.3     1  LIG1       -0.0359
     49 H          -8.8350    2.4277    1.7441 H       1  LIG1        0.0279
     50 H         -10.4070    3.1016    1.3279 H       1  LIG1        0.0279
     51 H          -9.0770    4.1851    1.7254 H       1  LIG1        0.0279
     52 N          -9.9484    5.4890   -0.7986 N.pl3   1  LIG1       -0.3566
     53 H         -10.2337    6.0226   -1.6094 H       1  LIG1        0.1424
     54 H         -10.7653    5.2634   -0.2445 H       1  LIG1        0.1424
@<TRIPOS>BOND
     1    47    44    1
     2    46    45    1
     3    44    45   ar
     4    44    43   ar
     5    45    41   ar
     6    27    25    1
     7    23    21    1
     8    53    52    1
     9    26    25    1
    10    43    52    1
    11    43    42   ar
    12    25    17    1
    13    33    32    1
    14    24    21    1
    15    21    16    1
    16    21    22    1
    17    41    31    1
    18    41    42   ar
    19    52    54    1
    20    17    16   ar
    21    17    18   ar
    22     6     5    1
    23    32    31   ar
    24    32    28   ar
    25    16    15   ar
    26    31    30   ar
    27    18    28    1
    28    18    19   ar
    29    42    48    1
    30     5     4   ar
    31     5     1   ar
    32    28    29   ar
    33    15    19   ar
    34    15     4    1
    35    19    20    1
    36     7     1    1
    37     4     3   ar
    38    30    29   ar
    39    30    38    1
    40     1     2   ar
    41    39    38    1
    42    29    34    1
    43    40    38    1
    44    36    34    1
    45     3     2   ar
    46     3    12    1
    47     2     8    1
    48    14    12    1
    49    10     8    1
    50    34    35    1
    51    34    37    1
    52    12    13    1
    53    48    50    1
    54    48    51    1
    55    48    49    1
    56    11     8    1
    57     8     9    1
