@<TRIPOS>MOLECULE
mol_data/opt/cam/geoms/mol2/13ih13ih.out
 28 29 0 0 0
SMALL
GASTEIGER

@<TRIPOS>ATOM
      1 C           1.0991   -0.2365    0.7041 C.ar    1  LIG1        0.0069
      2 C           0.8246    0.9607    0.0906 C.ar    1  LIG1       -0.0118
      3 C          -0.5460    0.9118   -0.3036 C.ar    1  LIG1        0.0546
      4 C          -1.0622   -0.3068    0.0856 C.ar    1  LIG1        0.0844
      5 N          -0.0273   -1.0095    0.6854 N.ar    1  LIG1       -0.3578
      6 H          -0.1669   -1.8440    1.2296 H       1  LIG1        0.1654
      7 H           2.0174   -0.5895    1.1496 H       1  LIG1        0.0810
      8 C           1.7607    2.1023   -0.1461 C.3     1  LIG1       -0.0365
      9 H           1.3615    3.0352    0.2652 H       1  LIG1        0.0279
     10 H           1.9432    2.2742   -1.2141 H       1  LIG1        0.0279
     11 H           2.7314    1.9191    0.3207 H       1  LIG1        0.0279
     12 N          -1.2350    1.9503   -0.9521 N.pl3   1  LIG1       -0.3561
     13 H          -0.6743    2.3955   -1.6687 H       1  LIG1        0.1424
     14 H          -2.1053    1.6253   -1.3564 H       1  LIG1        0.1424
     15 C          -2.3855   -0.8776   -0.0929 C.ar    1  LIG1        0.0694
     16 C          -3.6403   -0.3470    0.1402 C.ar    1  LIG1       -0.0031
     17 C          -4.5904   -1.3472   -0.2317 C.ar    1  LIG1        0.0457
     18 C          -3.8972   -2.4472   -0.6681 C.ar    1  LIG1        0.0233
     19 N          -2.5513   -2.1635   -0.5518 N.ar    1  LIG1       -0.3576
     20 H          -1.8127   -2.6985   -0.9761 H       1  LIG1        0.1654
     21 H          -4.2455   -3.4091   -1.0119 H       1  LIG1        0.0826
     22 C          -3.9724    0.9726    0.7621 C.3     1  LIG1       -0.0359
     23 H          -4.6720    0.8419    1.5944 H       1  LIG1        0.0279
     24 H          -4.4445    1.6662    0.0545 H       1  LIG1        0.0279
     25 H          -3.0741    1.4640    1.1401 H       1  LIG1        0.0279
     26 N          -5.9790   -1.2141   -0.0522 N.pl3   1  LIG1       -0.3566
     27 H          -6.3165   -0.3018   -0.3331 H       1  LIG1        0.1424
     28 H          -6.5066   -1.9279   -0.5375 H       1  LIG1        0.1424
@<TRIPOS>BOND
     1    13    12    1
     2    14    12    1
     3    10     8    1
     4    21    18    1
     5    20    19    1
     6    12     3    1
     7    18    19   ar
     8    18    17   ar
     9    19    15   ar
    10    28    26    1
    11    27    26    1
    12     3     4   ar
    13     3     2   ar
    14    17    26    1
    15    17    16   ar
    16     8     2    1
    17     8     9    1
    18     8    11    1
    19    15     4    1
    20    15    16   ar
    21    24    22    1
    22     4     5   ar
    23     2     1   ar
    24    16    22    1
    25     5     1   ar
    26     5     6    1
    27     1     7    1
    28    22    25    1
    29    22    23    1
