@<TRIPOS>MOLECULE
mol_data/opt/cam/geoms/mol2/13ih13ih13ih-13ih-.out
 54 57 0 0 0
SMALL
GASTEIGER

@<TRIPOS>ATOM
      1 C           1.2018    0.0952    0.6791 C.ar    1  LIG1        0.0069
      2 C           0.8322    1.1732   -0.0866 C.ar    1  LIG1       -0.0118
      3 C          -0.5616    1.0247   -0.3534 C.ar    1  LIG1        0.0546
      4 C          -0.9970   -0.1310    0.2618 C.ar    1  LIG1        0.0844
      5 N           0.1100   -0.7018    0.8744 N.ar    1  LIG1       -0.3578
      6 H           0.0507   -1.4478    1.5468 H       1  LIG1        0.1654
      7 H           2.1661   -0.1589    1.0937 H       1  LIG1        0.0810
      8 C           1.7011    2.2878   -0.5749 C.3     1  LIG1       -0.0365
      9 H           1.3047    3.2632   -0.2743 H       1  LIG1        0.0279
     10 H           1.7861    2.2983   -1.6686 H       1  LIG1        0.0279
     11 H           2.7140    2.2015   -0.1747 H       1  LIG1        0.0279
     12 N          -1.3411    1.9277   -1.0956 N.pl3   1  LIG1       -0.3561
     13 H          -0.8427    2.2972   -1.8962 H       1  LIG1        0.1424
     14 H          -2.2097    1.5063   -1.4036 H       1  LIG1        0.1424
     15 C          -2.3064   -0.7566    0.2891 C.ar    1  LIG1        0.0699
     16 C          -3.5601   -0.2414    0.5540 C.ar    1  LIG1       -0.0024
     17 C          -4.4835   -1.3204    0.4313 C.ar    1  LIG1        0.0552
     18 C          -3.7791   -2.4667    0.1113 C.ar    1  LIG1        0.0849
     19 N          -2.4561   -2.1083    0.0416 N.ar    1  LIG1       -0.3501
     20 H          -1.7258   -2.6928   -0.3288 H       1  LIG1        0.1661
     21 C          -3.8952    1.1573    0.9664 C.3     1  LIG1       -0.0359
     22 H          -4.4666    1.1686    1.9012 H       1  LIG1        0.0279
     23 H          -4.5043    1.6770    0.2171 H       1  LIG1        0.0279
     24 H          -2.9908    1.7492    1.1151 H       1  LIG1        0.0279
     25 N          -5.9015   -1.2911    0.6298 N.pl3   1  LIG1       -0.3561
     26 H          -6.1298   -1.1303    1.6078 H       1  LIG1        0.1424
     27 H          -6.3223   -0.5302    0.1047 H       1  LIG1        0.1424
     28 C          -4.2591   -3.8110   -0.1225 C.ar    1  LIG1        0.0699
     29 C          -3.6033   -5.0229   -0.2964 C.ar    1  LIG1       -0.0024
     30 C          -4.6134   -6.0063   -0.4728 C.ar    1  LIG1        0.0552
     31 C          -5.8462   -5.3840   -0.3816 C.ar    1  LIG1        0.0849
     32 N          -5.6041   -4.0427   -0.1791 N.ar    1  LIG1       -0.3501
     33 H          -6.2676   -3.3124    0.0576 H       1  LIG1        0.1661
     34 C          -2.1313   -5.2974   -0.2846 C.3     1  LIG1       -0.0359
     35 H          -1.6211   -4.7495    0.5147 H       1  LIG1        0.0279
     36 H          -1.6337   -5.0470   -1.2312 H       1  LIG1        0.0279
     37 H          -1.9529   -6.3600   -0.0992 H       1  LIG1        0.0279
     38 N          -4.3737   -7.3802   -0.6751 N.pl3   1  LIG1       -0.3561
     39 H          -5.2332   -7.8677   -0.9000 H       1  LIG1        0.1424
     40 H          -3.7055   -7.5414   -1.4200 H       1  LIG1        0.1424
     41 C          -7.1872   -5.9254   -0.5109 C.ar    1  LIG1        0.0695
     42 C          -7.7719   -7.0474    0.0486 C.ar    1  LIG1       -0.0031
     43 C          -9.1121   -7.1053   -0.4412 C.ar    1  LIG1        0.0457
     44 C          -9.3073   -6.0278   -1.2677 C.ar    1  LIG1        0.0233
     45 N          -8.1358   -5.3004   -1.2835 N.ar    1  LIG1       -0.3576
     46 H          -7.9292   -4.5474   -1.9171 H       1  LIG1        0.1654
     47 H         -10.1819   -5.7061   -1.8121 H       1  LIG1        0.0826
     48 C          -7.1845   -7.9746    1.0657 C.3     1  LIG1       -0.0359
     49 H          -6.2407   -7.5846    1.4519 H       1  LIG1        0.0279
     50 H          -6.9798   -8.9752    0.6631 H       1  LIG1        0.0279
     51 H          -7.8729   -8.1067    1.9071 H       1  LIG1        0.0279
     52 N         -10.0584   -8.0608   -0.0255 N.pl3   1  LIG1       -0.3566
     53 H         -10.8960   -8.0513   -0.5930 H       1  LIG1        0.1424
     54 H          -9.6765   -8.9986   -0.0152 H       1  LIG1        0.1424
@<TRIPOS>BOND
     1    46    45    1
     2    13    12    1
     3    47    44    1
     4    10     8    1
     5    40    38    1
     6    14    12    1
     7    45    44   ar
     8    45    41   ar
     9    44    43   ar
    10    36    34    1
    11    12     3    1
    12    39    38    1
    13    38    30    1
    14    53    52    1
    15     8     9    1
    16     8    11    1
    17     8     2    1
    18    41    31    1
    19    41    42   ar
    20    30    31   ar
    21    30    29   ar
    22    43    52    1
    23    43    42   ar
    24    31    32   ar
    25     3     2   ar
    26     3     4   ar
    27    20    19    1
    28    29    34    1
    29    29    28   ar
    30    34    37    1
    31    34    35    1
    32    32    28   ar
    33    32    33    1
    34    28    18    1
    35     2     1   ar
    36    52    54    1
    37    19    18   ar
    38    19    15   ar
    39    42    48    1
    40    27    25    1
    41    18    17   ar
    42    23    21    1
    43     4    15    1
    44     4     5   ar
    45    15    16   ar
    46    17    16   ar
    47    17    25    1
    48    16    21    1
    49    25    26    1
    50    50    48    1
    51     1     5   ar
    52     1     7    1
    53     5     6    1
    54    21    24    1
    55    21    22    1
    56    48    49    1
    57    48    51    1
