@<TRIPOS>MOLECULE
mol_data/opt/cam/geoms/mol2/13ih13ih13ih-13ih.out
 54 57 0 0 0
SMALL
GASTEIGER

@<TRIPOS>ATOM
      1 C           1.1571    0.0986    0.8622 C.ar    1  LIG1        0.0069
      2 C           0.8955    1.0794   -0.0621 C.ar    1  LIG1       -0.0118
      3 C          -0.4712    0.9265   -0.4426 C.ar    1  LIG1        0.0546
      4 C          -0.9993   -0.1339    0.2642 C.ar    1  LIG1        0.0844
      5 N           0.0268   -0.6462    1.0464 N.ar    1  LIG1       -0.3578
      6 H          -0.1206   -1.2964    1.7998 H       1  LIG1        0.1654
      7 H           2.0697   -0.1207    1.3964 H       1  LIG1        0.0810
      8 C           1.8414    2.1068   -0.5965 C.3     1  LIG1       -0.0365
      9 H           1.4517    3.1201   -0.4537 H       1  LIG1        0.0279
     10 H           2.0253    1.9814   -1.6708 H       1  LIG1        0.0279
     11 H           2.8105    2.0482   -0.0954 H       1  LIG1        0.0279
     12 N          -1.1499    1.7471   -1.3590 N.pl3   1  LIG1       -0.3561
     13 H          -0.5675    2.0098   -2.1450 H       1  LIG1        0.1424
     14 H          -1.9976    1.3075   -1.6984 H       1  LIG1        0.1424
     15 C          -2.3242   -0.7271    0.2394 C.ar    1  LIG1        0.0699
     16 C          -3.5824   -0.1642    0.3233 C.ar    1  LIG1       -0.0024
     17 C          -4.5199   -1.2350    0.2402 C.ar    1  LIG1        0.0552
     18 C          -3.8207   -2.4225    0.1199 C.ar    1  LIG1        0.0849
     19 N          -2.4880   -2.0962    0.1333 N.ar    1  LIG1       -0.3501
     20 H          -1.7390   -2.7329   -0.0797 H       1  LIG1        0.1661
     21 C          -3.9194    1.2780    0.5375 C.3     1  LIG1       -0.0359
     22 H          -4.4631    1.4250    1.4777 H       1  LIG1        0.0279
     23 H          -4.5584    1.6716   -0.2615 H       1  LIG1        0.0279
     24 H          -3.0194    1.8937    0.5696 H       1  LIG1        0.0279
     25 N          -5.9491   -1.1595    0.2931 N.pl3   1  LIG1       -0.3561
     26 H          -6.2626   -0.7847    1.1845 H       1  LIG1        0.1424
     27 H          -6.3065   -0.5373   -0.4263 H       1  LIG1        0.1424
     28 C          -4.3133   -3.7761   -0.0010 C.ar    1  LIG1        0.0699
     29 C          -3.6767   -5.0023   -0.1059 C.ar    1  LIG1       -0.0024
     30 C          -4.7054   -5.9803   -0.2051 C.ar    1  LIG1        0.0552
     31 C          -5.9319   -5.3323   -0.1549 C.ar    1  LIG1        0.0849
     32 N          -5.6672   -3.9997   -0.0319 N.ar    1  LIG1       -0.3501
     33 H          -6.3188   -3.2239    0.0251 H       1  LIG1        0.1661
     34 C          -2.2059   -5.2811   -0.1132 C.3     1  LIG1       -0.0359
     35 H          -1.7026   -4.8910    0.7791 H       1  LIG1        0.0279
     36 H          -1.6997   -4.8628   -0.9924 H       1  LIG1        0.0279
     37 H          -2.0242   -6.3590   -0.1320 H       1  LIG1        0.0279
     38 N          -4.5639   -7.3998   -0.3338 N.pl3   1  LIG1       -0.3561
     39 H          -3.9959   -7.6442   -1.1394 H       1  LIG1        0.1424
     40 H          -4.1168   -7.8055    0.4834 H       1  LIG1        0.1424
     41 C          -7.2693   -5.8836   -0.2174 C.ar    1  LIG1        0.0695
     42 C          -8.5261   -5.3065   -0.1039 C.ar    1  LIG1       -0.0031
     43 C          -9.4694   -6.3606   -0.2636 C.ar    1  LIG1        0.0457
     44 C          -8.7690   -7.5299   -0.4574 C.ar    1  LIG1        0.0233
     45 N          -7.4355   -7.2264   -0.4176 N.ar    1  LIG1       -0.3576
     46 H          -6.6333   -7.8409   -0.4952 H       1  LIG1        0.1654
     47 H          -9.1184   -8.5402   -0.6082 H       1  LIG1        0.0826
     48 C          -8.8796   -3.8777    0.1683 C.3     1  LIG1       -0.0359
     49 H          -9.9260   -3.8143    0.4780 H       1  LIG1        0.0279
     50 H          -8.7544   -3.2280   -0.7071 H       1  LIG1        0.0279
     51 H          -8.2782   -3.4510    0.9777 H       1  LIG1        0.0279
     52 N         -10.8714   -6.1907   -0.1652 N.pl3   1  LIG1       -0.3566
     53 H         -11.2328   -5.5990   -0.9055 H       1  LIG1        0.1424
     54 H         -11.3572   -7.0781   -0.2076 H       1  LIG1        0.1424
@<TRIPOS>BOND
     1    13    12    1
     2    14    12    1
     3    10     8    1
     4    12     3    1
     5    39    38    1
     6    36    34    1
     7    53    52    1
     8    50    48    1
     9    47    44    1
    10     8     9    1
    11     8    11    1
    12     8     2    1
    13    46    45    1
    14    44    45   ar
    15    44    43   ar
    16     3     2   ar
    17     3     4   ar
    18    27    25    1
    19    45    41   ar
    20    38    30    1
    21    38    40    1
    22    43    52    1
    23    43    42   ar
    24    23    21    1
    25    41    31    1
    26    41    42   ar
    27    54    52    1
    28    30    31   ar
    29    30    29   ar
    30    31    32   ar
    31    37    34    1
    32    34    29    1
    33    34    35    1
    34    29    28   ar
    35    42    48    1
    36    20    19    1
    37     2     1   ar
    38    32    28   ar
    39    32    33    1
    40    28    18    1
    41    18    19   ar
    42    18    17   ar
    43    19    15   ar
    44    48    49    1
    45    48    51    1
    46    15     4    1
    47    15    16   ar
    48    17    25    1
    49    17    16   ar
    50     4     5   ar
    51    25    26    1
    52    16    21    1
    53    21    24    1
    54    21    22    1
    55     1     5   ar
    56     1     7    1
    57     5     6    1
