@<TRIPOS>MOLECULE
mol_data/opt/cam/geoms/mol2/13ih4ff-12fe4id-.out
 51 54 0 0 0
SMALL
GASTEIGER

@<TRIPOS>ATOM
      1 C           1.2024   -0.1349    0.7537 C.ar    1  LIG1        0.0069
      2 C           0.9338    1.0970    0.2169 C.ar    1  LIG1       -0.0119
      3 C          -0.4659    1.1311   -0.0642 C.ar    1  LIG1        0.0532
      4 C          -1.0067   -0.0938    0.3036 C.ar    1  LIG1        0.0713
      5 N           0.0471   -0.8609    0.7845 N.ar    1  LIG1       -0.3588
      6 H          -0.0853   -1.6942    1.3330 H       1  LIG1        0.1654
      7 H           2.1306   -0.5408    1.1286 H       1  LIG1        0.0810
      8 C           1.8878    2.2177   -0.0410 C.3     1  LIG1       -0.0365
      9 H           1.4835    3.1608    0.3388 H       1  LIG1        0.0279
     10 H           2.0813    2.3605   -1.1111 H       1  LIG1        0.0279
     11 H           2.8517    2.0377    0.4412 H       1  LIG1        0.0279
     12 N          -1.0935    2.2530   -0.6155 N.pl3   1  LIG1       -0.3561
     13 H          -0.7113    2.5315   -1.5097 H       1  LIG1        0.1424
     14 H          -2.1003    2.1776   -0.6364 H       1  LIG1        0.1424
     15 C          -3.5343   -0.0037    0.3387 C.ar    1  LIG1        0.1269
     16 C          -4.7511   -0.6541    0.2417 C.ar    1  LIG1       -0.0052
     17 C          -2.3280   -0.7017    0.1707 C.ar    1  LIG1        0.0450
     18 C          -4.8468   -2.0252   -0.0242 C.ar    1  LIG1        0.0658
     19 H          -5.6674   -0.0896    0.3835 H       1  LIG1        0.0662
     20 C          -2.4340   -2.0704   -0.1077 C.ar    1  LIG1       -0.0068
     21 C          -3.6496   -2.7322   -0.2104 C.ar    1  LIG1        0.1285
     22 H          -1.5213   -2.6307   -0.2937 H       1  LIG1        0.0662
     23 O          -3.4716    1.3366    0.6241 O.3     1  LIG1       -0.5061
     24 H          -4.3618    1.6658    0.7931 H       1  LIG1        0.2922
     25 O          -3.7081   -4.0598   -0.5194 O.3     1  LIG1       -0.5060
     26 H          -2.8126   -4.3842   -0.6687 H       1  LIG1        0.2922
     27 C          -6.1622   -2.6332   -0.1319 C.ar    1  LIG1        0.1817
     28 C          -7.4043   -2.1141   -0.3579 C.ar    1  LIG1        0.1791
     29 C          -8.3382   -3.2017   -0.3559 C.ar    1  LIG1        0.1124
     30 C          -7.5949   -4.3340   -0.1101 C.ar    1  LIG1        0.1550
     31 O          -6.2995   -3.9858    0.0261 O.2     1  LIG1       -0.4496
     32 O          -7.7116   -0.8127   -0.5657 O.3     1  LIG1       -0.5024
     33 H          -8.6530   -0.7591   -0.7842 H       1  LIG1        0.2923
     34 C          -9.7034   -3.0163   -0.6908 C.1     1  LIG1       -0.0622
     35 C         -10.8353   -2.7381   -0.9998 C.1     1  LIG1       -0.1137
     36 H         -11.8421   -2.5287   -1.2811 H       1  LIG1        0.1232
     37 C          -8.9870   -6.3545    0.5264 C.ar    1  LIG1       -0.0397
     38 C          -9.1176   -7.7448    0.4859 C.ar    1  LIG1       -0.0570
     39 C          -7.8526   -5.7757   -0.0730 C.ar    1  LIG1        0.0227
     40 C          -8.1646   -8.5575   -0.1005 C.ar    1  LIG1       -0.0441
     41 H          -9.9883   -8.1985    0.9485 H       1  LIG1        0.0621
     42 C          -6.8721   -6.5953   -0.6413 C.ar    1  LIG1       -0.0334
     43 C          -7.0229   -7.9775   -0.6591 C.ar    1  LIG1        0.0525
     44 H          -5.9842   -6.1399   -1.0636 H       1  LIG1        0.0637
     45 H          -8.2877   -9.6343   -0.1150 H       1  LIG1        0.0630
     46 C         -10.0313   -5.5447    1.2425 C.3     1  LIG1       -0.0390
     47 H         -10.5689   -6.1676    1.9600 H       1  LIG1        0.0278
     48 H         -10.7614   -5.1237    0.5474 H       1  LIG1        0.0278
     49 H          -9.5853   -4.7049    1.7800 H       1  LIG1        0.0278
     50 N          -5.1900   -9.4689   -1.7249 N.1     1  LIG1       -0.1909
     51 C          -6.0072   -8.8019   -1.2503 C.1     1  LIG1        0.0992
@<TRIPOS>BOND
     1    50    51    3
     2    13    12    1
     3    36    35    1
     4    51    43    1
     5    10     8    1
     6    44    42    1
     7    35    34    3
     8    33    32    1
     9    34    29    1
    10    26    25    1
    11    43    42   ar
    12    43    40   ar
    13    42    39   ar
    14    14    12    1
    15    12     3    1
    16    32    28    1
    17    25    21    1
    18    28    29   ar
    19    28    27   ar
    20    29    30   ar
    21    22    20    1
    22    21    20   ar
    23    21    18   ar
    24    27    18    1
    25    27    31   ar
    26    45    40    1
    27    30    39    1
    28    30    31   ar
    29    20    17   ar
    30    40    38   ar
    31    39    37   ar
    32     3     2   ar
    33     3     4   ar
    34     8     2    1
    35     8     9    1
    36     8    11    1
    37    18    16   ar
    38    17     4    1
    39    17    15   ar
    40     2     1   ar
    41    16    15   ar
    42    16    19    1
    43     4     5   ar
    44    15    23    1
    45    38    37   ar
    46    38    41    1
    47    37    46    1
    48    48    46    1
    49    23    24    1
    50     1     5   ar
    51     1     7    1
    52     5     6    1
    53    46    49    1
    54    46    47    1
