@<TRIPOS>MOLECULE
mol_data/opt/cam/geoms/mol2/13ih12ih12eh-13lh.out
 52 55 0 0 0
SMALL
GASTEIGER

@<TRIPOS>ATOM
      1 C           1.2332   -0.0006    0.2198 C.ar    1  LIG1        0.0070
      2 C           0.8441    1.2598   -0.1720 C.ar    1  LIG1       -0.0118
      3 C          -0.5766    1.2376   -0.2630 C.ar    1  LIG1        0.0562
      4 C          -1.0061   -0.0294    0.0933 C.ar    1  LIG1        0.1036
      5 N           0.1256   -0.7722    0.3753 N.ar    1  LIG1       -0.3565
      6 H           0.0985   -1.7411    0.6428 H       1  LIG1        0.1655
      7 H           2.2240   -0.3921    0.3958 H       1  LIG1        0.0810
      8 C           1.7230    2.4342   -0.4634 C.3     1  LIG1       -0.0365
      9 H           1.5060    3.2797    0.1983 H       1  LIG1        0.0279
     10 H           1.6048    2.7911   -1.4941 H       1  LIG1        0.0279
     11 H           2.7764    2.1760   -0.3333 H       1  LIG1        0.0279
     12 N          -1.3760    2.3312   -0.6321 N.pl3   1  LIG1       -0.3560
     13 H          -0.8726    2.9894   -1.2135 H       1  LIG1        0.1424
     14 H          -2.2259    2.0471   -1.1041 H       1  LIG1        0.1424
     15 C          -2.3149   -0.6311    0.1677 C.ar    1  LIG1        0.1584
     16 C          -3.5597   -0.1659    0.4919 C.ar    1  LIG1        0.0182
     17 C          -4.4426   -1.2911    0.3860 C.ar    1  LIG1        0.0777
     18 C          -3.6722   -2.3679    0.0141 C.ar    1  LIG1        0.1927
     19 O          -2.3613   -1.9592   -0.1183 O.2     1  LIG1       -0.4480
     20 C          -3.9638    1.1827    0.9949 C.3     1  LIG1       -0.0343
     21 H          -4.4329    1.0977    1.9810 H       1  LIG1        0.0279
     22 H          -4.6932    1.6665    0.3327 H       1  LIG1        0.0279
     23 H          -3.1074    1.8517    1.0813 H       1  LIG1        0.0279
     24 N          -5.7762   -1.2522    0.7380 N.pl3   1  LIG1       -0.3547
     25 H          -6.2011   -0.3406    0.6552 H       1  LIG1        0.1424
     26 H          -6.3594   -1.9881    0.3619 H       1  LIG1        0.1424
     27 C          -3.9348   -3.7553   -0.2122 C.ar    1  LIG1        0.1896
     28 C          -5.0720   -4.4729   -0.5237 C.ar    1  LIG1        0.0948
     29 C          -4.6817   -5.8594   -0.5834 C.ar    1  LIG1        0.0889
     30 C          -3.3417   -5.8884   -0.3269 C.ar    1  LIG1        0.1773
     31 O          -2.8902   -4.6026   -0.0899 O.2     1  LIG1       -0.4469
     32 C          -6.3662   -3.9954   -0.8382 C.1     1  LIG1       -0.0639
     33 C          -7.4836   -3.6366   -1.1238 C.1     1  LIG1       -0.1137
     34 H          -8.4626   -3.3200   -1.4006 H       1  LIG1        0.1232
     35 N          -5.5440   -6.9121   -0.8191 N.pl3   1  LIG1       -0.3540
     36 H          -6.3468   -6.6689   -1.3814 H       1  LIG1        0.1425
     37 H          -5.0815   -7.7695   -1.0987 H       1  LIG1        0.1425
     38 C          -2.3431   -6.9235   -0.2803 C.ar    1  LIG1        0.1280
     39 C          -2.4173   -8.2988   -0.4125 C.ar    1  LIG1        0.1689
     40 C          -1.1059   -8.8350   -0.3089 C.ar    1  LIG1        0.0851
     41 C          -0.2570   -7.7730   -0.1160 C.ar    1  LIG1        0.0268
     42 N          -1.0215   -6.6243   -0.0960 N.ar    1  LIG1       -0.3536
     43 H          -0.6805   -5.6835   -0.0020 H       1  LIG1        0.1656
     44 H           0.8127   -7.7413    0.0170 H       1  LIG1        0.0827
     45 O          -3.5496   -9.0535   -0.6335 O.3     1  LIG1       -0.4910
     46 C          -4.0255   -9.7018    0.5476 C.3     1  LIG1        0.0790
     47 H          -4.8636  -10.3324    0.2453 H       1  LIG1        0.0660
     48 H          -3.2383  -10.3200    0.9894 H       1  LIG1        0.0660
     49 H          -4.3699   -8.9646    1.2797 H       1  LIG1        0.0660
     50 N          -0.8287  -10.2121   -0.3414 N.pl3   1  LIG1       -0.3540
     51 H          -1.4268  -10.6845   -1.0093 H       1  LIG1        0.1425
     52 H           0.1393  -10.4120   -0.5569 H       1  LIG1        0.1425
@<TRIPOS>BOND
     1    10     8    1
     2    34    33    1
     3    36    35    1
     4    13    12    1
     5    33    32    3
     6    14    12    1
     7    37    35    1
     8    51    50    1
     9    32    28    1
    10    35    29    1
    11    45    39    1
    12    45    46    1
    13    12     3    1
    14    29    28   ar
    15    29    30   ar
    16    52    50    1
    17    28    27   ar
    18     8    11    1
    19     8     2    1
    20     8     9    1
    21    39    40   ar
    22    39    38   ar
    23    50    40    1
    24    30    38    1
    25    30    31   ar
    26    40    41   ar
    27    38    42   ar
    28     3     2   ar
    29     3     4   ar
    30    27    31   ar
    31    27    18    1
    32     2     1   ar
    33    19    18   ar
    34    19    15   ar
    35    41    42   ar
    36    41    44    1
    37    42    43    1
    38    18    17   ar
    39     4    15    1
    40     4     5   ar
    41    15    16   ar
    42     1     5   ar
    43     1     7    1
    44    47    46    1
    45    22    20    1
    46    26    24    1
    47     5     6    1
    48    17    16   ar
    49    17    24    1
    50    16    20    1
    51    46    48    1
    52    46    49    1
    53    25    24    1
    54    20    23    1
    55    20    21    1
