@<TRIPOS>MOLECULE
mol_data/opt/cam/geoms/mol2/13ih13ih-13ih13ih-.out
 54 57 0 0 0
SMALL
GASTEIGER

@<TRIPOS>ATOM
      1 C           1.3246   -0.2781   -0.0934 C.ar    1  LIG1        0.0069
      2 C           0.8881    1.0213   -0.0935 C.ar    1  LIG1       -0.0118
      3 C          -0.5376    0.9687   -0.0868 C.ar    1  LIG1        0.0546
      4 C          -0.9237   -0.3605   -0.0827 C.ar    1  LIG1        0.0844
      5 N           0.2284   -1.1045   -0.0868 N.ar    1  LIG1       -0.3578
      6 H           0.2583   -2.1088   -0.0855 H       1  LIG1        0.1654
      7 H           2.3271   -0.6786   -0.0974 H       1  LIG1        0.0810
      8 C           1.7263    2.2599   -0.0994 C.3     1  LIG1       -0.0365
      9 H           1.5367    2.8848    0.7805 H       1  LIG1        0.0279
     10 H           1.5300    2.8811   -0.9805 H       1  LIG1        0.0279
     11 H           2.7908    2.0151   -0.1030 H       1  LIG1        0.0279
     12 N          -1.4616    2.0639   -0.0842 N.pl3   1  LIG1       -0.3561
     13 H          -1.3234    2.6548    0.7311 H       1  LIG1        0.1424
     14 H          -1.3272    2.6552   -0.8998 H       1  LIG1        0.1424
     15 C          -2.2505   -0.9372   -0.0755 C.ar    1  LIG1        0.0699
     16 C          -2.7086   -2.2445   -0.0695 C.ar    1  LIG1       -0.0024
     17 C          -4.1296   -2.1713   -0.0645 C.ar    1  LIG1        0.0552
     18 C          -4.4987   -0.8329   -0.0672 C.ar    1  LIG1        0.0849
     19 N          -3.3429   -0.1065   -0.0737 N.ar    1  LIG1       -0.3501
     20 H          -3.2214    0.9007   -0.0772 H       1  LIG1        0.1661
     21 C          -1.9017   -3.5055   -0.0679 C.3     1  LIG1       -0.0359
     22 H          -1.2561   -3.5901    0.8147 H       1  LIG1        0.0279
     23 H          -1.2684   -3.6008   -0.9584 H       1  LIG1        0.0279
     24 H          -2.5610   -4.3774   -0.0580 H       1  LIG1        0.0279
     25 N          -5.0704   -3.2503   -0.0579 N.pl3   1  LIG1       -0.3561
     26 H          -4.9548   -3.8530   -0.8672 H       1  LIG1        0.1424
     27 H          -4.9687   -3.8317    0.7687 H       1  LIG1        0.1424
     28 C          -5.8187   -0.2430   -0.0650 C.ar    1  LIG1        0.0699
     29 C          -6.2586    1.0710   -0.0680 C.ar    1  LIG1       -0.0024
     30 C          -7.6801    1.0166   -0.0700 C.ar    1  LIG1        0.0552
     31 C          -8.0684   -0.3159   -0.0646 C.ar    1  LIG1        0.0849
     32 N          -6.9235   -1.0579   -0.0613 N.ar    1  LIG1       -0.3501
     33 H          -6.8200   -2.0667   -0.0773 H       1  LIG1        0.1661
     34 C          -5.4312    2.3185   -0.0687 C.3     1  LIG1       -0.0359
     35 H          -6.0764    3.2014   -0.0599 H       1  LIG1        0.0279
     36 H          -4.7908    2.3975   -0.9546 H       1  LIG1        0.0279
     37 H          -4.7798    2.3894    0.8097 H       1  LIG1        0.0279
     38 N          -8.6056    2.1106   -0.0781 N.pl3   1  LIG1       -0.3561
     39 H          -8.5228    2.6723    0.7647 H       1  LIG1        0.1424
     40 H          -8.4372    2.7291   -0.8660 H       1  LIG1        0.1424
     41 C          -9.3979   -0.8895   -0.0676 C.ar    1  LIG1        0.0695
     42 C          -9.8533   -2.1982    0.0073 C.ar    1  LIG1       -0.0031
     43 C         -11.2742   -2.1346   -0.0533 C.ar    1  LIG1        0.0457
     44 C         -11.6351   -0.8099   -0.1526 C.ar    1  LIG1        0.0233
     45 N         -10.4864   -0.0660   -0.1508 N.ar    1  LIG1       -0.3576
     46 H         -10.3706    0.9406   -0.1816 H       1  LIG1        0.1654
     47 H         -12.6104   -0.3511   -0.2137 H       1  LIG1        0.0826
     48 C          -9.0588   -3.4577    0.1601 C.3     1  LIG1       -0.0359
     49 H          -8.2841   -3.3646    0.9283 H       1  LIG1        0.0279
     50 H          -8.5614   -3.7695   -0.7671 H       1  LIG1        0.0279
     51 H          -9.7209   -4.2712    0.4680 H       1  LIG1        0.0279
     52 N         -12.1227   -3.2645    0.0414 N.pl3   1  LIG1       -0.3566
     53 H         -13.0978   -2.9938    0.0771 H       1  LIG1        0.1424
     54 H         -12.0006   -3.8936   -0.7448 H       1  LIG1        0.1424
@<TRIPOS>BOND
     1    10     8    1
     2    23    21    1
     3    36    34    1
     4    14    12    1
     5    26    25    1
     6    40    38    1
     7    50    48    1
     8    54    52    1
     9    47    44    1
    10    46    45    1
    11    44    45   ar
    12    44    43   ar
    13    45    41   ar
    14    11     8    1
    15     8     2    1
    16     8     9    1
    17     7     1    1
    18     2     1   ar
    19     2     3   ar
    20     1     5   ar
    21     3    12    1
    22     3     4   ar
    23     5     6    1
    24     5     4   ar
    25    12    13    1
    26     4    15    1
    27    38    30    1
    28    38    39    1
    29    33    32    1
    30    20    19    1
    31    15    19   ar
    32    15    16   ar
    33    19    18   ar
    34    30    29   ar
    35    30    31   ar
    36    16    21    1
    37    16    17   ar
    38    34    29    1
    39    34    35    1
    40    34    37    1
    41    29    28   ar
    42    21    24    1
    43    21    22    1
    44    41    31    1
    45    41    42   ar
    46    18    28    1
    47    18    17   ar
    48    28    32   ar
    49    31    32   ar
    50    17    25    1
    51    25    27    1
    52    43    42   ar
    53    43    52    1
    54    42    48    1
    55    52    53    1
    56    48    51    1
    57    48    49    1
