@<TRIPOS>MOLECULE
mol_data/opt/cam/geoms/mol2/13ih13ih-13ih-13ih.out
 54 57 0 0 0
SMALL
GASTEIGER

@<TRIPOS>ATOM
      1 C           1.3407   -0.3793   -0.0157 C.ar    1  LIG1        0.0069
      2 C           0.9251    0.7485    0.6442 C.ar    1  LIG1       -0.0118
      3 C          -0.5003    0.6967    0.6737 C.ar    1  LIG1        0.0546
      4 C          -0.9063   -0.4616    0.0344 C.ar    1  LIG1        0.0844
      5 N           0.2332   -1.1051   -0.3757 N.ar    1  LIG1       -0.3578
      6 H           0.2443   -1.9597   -0.9043 H       1  LIG1        0.1654
      7 H           2.3362   -0.7218   -0.2548 H       1  LIG1        0.0810
      8 C           1.7816    1.8282    1.2250 C.3     1  LIG1       -0.0365
      9 H           1.6260    1.9350    2.3043 H       1  LIG1        0.0279
     10 H           1.5699    2.8041    0.7739 H       1  LIG1        0.0279
     11 H           2.8418    1.6185    1.0662 H       1  LIG1        0.0279
     12 N          -1.4069    1.6440    1.2504 N.pl3   1  LIG1       -0.3561
     13 H          -1.2951    1.6902    2.2598 H       1  LIG1        0.1424
     14 H          -1.2299    2.5786    0.8935 H       1  LIG1        0.1424
     15 C          -2.2431   -0.9649   -0.2021 C.ar    1  LIG1        0.0699
     16 C          -2.7170   -2.1676   -0.7095 C.ar    1  LIG1       -0.0024
     17 C          -4.1352   -2.0817   -0.6911 C.ar    1  LIG1        0.0552
     18 C          -4.4894   -0.8553   -0.1563 C.ar    1  LIG1        0.0849
     19 N          -3.3165   -0.1870    0.1231 N.ar    1  LIG1       -0.3501
     20 H          -3.1904    0.6850    0.6275 H       1  LIG1        0.1661
     21 C          -1.9334   -3.3557   -1.1762 C.3     1  LIG1       -0.0359
     22 H          -1.1219   -3.6075   -0.4842 H       1  LIG1        0.0279
     23 H          -1.4946   -3.2231   -2.1741 H       1  LIG1        0.0279
     24 H          -2.5806   -4.2353   -1.2238 H       1  LIG1        0.0279
     25 N          -5.0119   -3.0975   -1.1231 N.pl3   1  LIG1       -0.3561
     26 H          -5.9644   -2.7543   -1.1718 H       1  LIG1        0.1424
     27 H          -4.7521   -3.4552   -2.0353 H       1  LIG1        0.1424
     28 C          -5.7954   -0.2621    0.0634 C.ar    1  LIG1        0.0699
     29 C          -6.9454   -0.7634    0.6428 C.ar    1  LIG1       -0.0024
     30 C          -7.9221    0.2735    0.5832 C.ar    1  LIG1        0.0552
     31 C          -7.3491    1.3821   -0.0120 C.ar    1  LIG1        0.0849
     32 N          -6.0557    1.0411   -0.3128 N.ar    1  LIG1       -0.3501
     33 H          -5.4282    1.6012   -0.8645 H       1  LIG1        0.1661
     34 C          -7.1268   -2.1007    1.2898 C.3     1  LIG1       -0.0359
     35 H          -6.1816   -2.6438    1.3400 H       1  LIG1        0.0279
     36 H          -7.8397   -2.7347    0.7486 H       1  LIG1        0.0279
     37 H          -7.5105   -1.9974    2.3110 H       1  LIG1        0.0279
     38 N          -9.2703    0.2407    1.0678 N.pl3   1  LIG1       -0.3561
     39 H          -9.7653   -0.5654    0.6970 H       1  LIG1        0.1424
     40 H          -9.2899    0.1522    2.0807 H       1  LIG1        0.1424
     41 C          -7.9245    2.6773   -0.3060 C.ar    1  LIG1        0.0695
     42 C          -7.3870    3.8444   -0.8295 C.ar    1  LIG1       -0.0031
     43 C          -8.4543    4.7839   -0.8996 C.ar    1  LIG1        0.0457
     44 C          -9.5886    4.1717   -0.4161 C.ar    1  LIG1        0.0233
     45 N          -9.2497    2.8973   -0.0514 N.ar    1  LIG1       -0.3576
     46 H          -9.8216    2.1738    0.3702 H       1  LIG1        0.1654
     47 H         -10.5930    4.5491   -0.2979 H       1  LIG1        0.0826
     48 C          -5.9700    4.1308   -1.2182 C.3     1  LIG1       -0.0359
     49 H          -5.8279    5.2110   -1.3052 H       1  LIG1        0.0279
     50 H          -5.6862    3.6876   -2.1822 H       1  LIG1        0.0279
     51 H          -5.2578    3.7748   -0.4656 H       1  LIG1        0.0279
     52 N          -8.3025    6.1218   -1.3374 N.pl3   1  LIG1       -0.3566
     53 H          -8.0675    6.1724   -2.3229 H       1  LIG1        0.1424
     54 H          -9.1476    6.6595   -1.1889 H       1  LIG1        0.1424
@<TRIPOS>BOND
     1    53    52    1
     2    50    48    1
     3    23    21    1
     4    27    25    1
     5    52    54    1
     6    52    43    1
     7    49    48    1
     8    24    21    1
     9    48    42    1
    10    48    51    1
    11    21    16    1
    12    21    22    1
    13    26    25    1
    14    25    17    1
    15     6     5    1
    16    43    42   ar
    17    43    44   ar
    18    33    32    1
    19    42    41   ar
    20    16    17   ar
    21    16    15   ar
    22    17    18   ar
    23    44    47    1
    24    44    45   ar
    25     5     1   ar
    26     5     4   ar
    27    32    31   ar
    28    32    28   ar
    29    41    45   ar
    30    41    31    1
    31     7     1    1
    32    15     4    1
    33    15    19   ar
    34    18    28    1
    35    18    19   ar
    36    45    46    1
    37     1     2   ar
    38    31    30   ar
    39     4     3   ar
    40    28    29   ar
    41    19    20    1
    42    30    29   ar
    43    30    38    1
    44    29    34    1
    45     2     3   ar
    46     2     8    1
    47     3    12    1
    48    39    38    1
    49    36    34    1
    50    10     8    1
    51    14    12    1
    52    11     8    1
    53    38    40    1
    54     8     9    1
    55    12    13    1
    56    34    35    1
    57    34    37    1
