@<TRIPOS>MOLECULE
mol_data/opt/cam/geoms/mol2/13ii6de6lh-13ea-.out
 53 56 0 0 0
SMALL
GASTEIGER

@<TRIPOS>ATOM
      1 C           1.4100   -0.2523    0.1779 C.ar    1  LIG1        0.0053
      2 C           0.9725    1.0502    0.1344 C.ar    1  LIG1       -0.0297
      3 C          -0.4484    1.0105    0.0936 C.ar    1  LIG1       -0.0222
      4 C          -0.8269   -0.3286    0.1111 C.ar    1  LIG1        0.0524
      5 N           0.3295   -1.0761    0.1649 N.ar    1  LIG1       -0.3601
      6 H           0.3717   -2.0794    0.2433 H       1  LIG1        0.1654
      7 H           2.4136   -0.6486    0.2204 H       1  LIG1        0.0810
      8 C           1.8308    2.2764    0.1416 C.3     1  LIG1       -0.0380
      9 H           1.6117    2.9213    0.9992 H       1  LIG1        0.0278
     10 H           1.6883    2.8805   -0.7603 H       1  LIG1        0.0278
     11 H           2.8890    2.0106    0.1957 H       1  LIG1        0.0278
     12 C          -1.3263    2.2250    0.0912 C.3     1  LIG1       -0.0375
     13 H          -2.2707    2.0520    0.6126 H       1  LIG1        0.0278
     14 H          -1.5662    2.5680   -0.9224 H       1  LIG1        0.0278
     15 H          -0.8239    3.0555    0.5935 H       1  LIG1        0.0278
     16 C          -2.5097   -2.1659    0.6412 C.ar    1  LIG1        0.1499
     17 C          -2.1592   -0.9239    0.0728 C.ar    1  LIG1        0.0356
     18 C          -3.2105   -0.2635   -0.5703 C.ar    1  LIG1       -0.0324
     19 C          -4.4957   -0.7945   -0.5993 C.ar    1  LIG1        0.0515
     20 C          -4.7249   -2.0387    0.0296 C.ar    1  LIG1        0.0930
     21 N          -3.7325   -2.6936    0.6179 N.ar    1  LIG1       -0.2343
     22 H          -3.0227    0.6673   -1.0877 H       1  LIG1        0.0638
     23 N          -0.7148   -3.6491    1.8003 N.1     1  LIG1       -0.1893
     24 C          -1.5266   -2.9910    1.3041 C.1     1  LIG1        0.1198
     25 C          -5.5256   -0.0884   -1.2975 C.1     1  LIG1       -0.0675
     26 C          -6.3617    0.5338   -1.8992 C.1     1  LIG1       -0.1138
     27 H          -7.1102    1.0704   -2.4361 H       1  LIG1        0.1232
     28 C          -6.2887   -3.9840   -0.3796 C.ar    1  LIG1        0.2246
     29 C          -6.0659   -2.6691    0.0780 C.ar    1  LIG1        0.0648
     30 C          -7.1555   -2.0113    0.6075 C.ar    1  LIG1       -0.0246
     31 C          -8.4213   -2.6114    0.7031 C.ar    1  LIG1        0.0532
     32 C          -8.5345   -3.9115    0.1909 C.ar    1  LIG1        0.1127
     33 N          -7.4632   -4.5607   -0.3185 N.ar    1  LIG1       -0.2090
     34 H          -7.0286   -1.0037    0.9922 H       1  LIG1        0.0645
     35 O          -5.2454   -4.6379   -0.9304 O.3     1  LIG1       -0.4792
     36 C          -5.4775   -5.9593   -1.3851 C.3     1  LIG1        0.0804
     37 H          -4.5361   -6.2882   -1.8243 H       1  LIG1        0.0660
     38 H          -5.7487   -6.6208   -0.5568 H       1  LIG1        0.0660
     39 H          -6.2757   -5.9897   -2.1315 H       1  LIG1        0.0660
     40 N          -9.4352   -1.9496    1.3777 N.pl3   1  LIG1       -0.3563
     41 H          -9.2705   -0.9620    1.5041 H       1  LIG1        0.1424
     42 H         -10.3850   -2.1393    1.0889 H       1  LIG1        0.1424
     43 C          -9.7493   -4.7385    0.2159 C.ar    1  LIG1        0.0824
     44 C         -11.1277   -4.5201    0.1611 C.ar    1  LIG1        0.0514
     45 C         -11.7610   -5.7994    0.1908 C.ar    1  LIG1       -0.0283
     46 C         -10.7738   -6.7434    0.2478 C.ar    1  LIG1        0.0034
     47 N          -9.5760   -6.0919    0.2615 N.ar    1  LIG1       -0.3584
     48 H          -8.6518   -6.4942    0.2291 H       1  LIG1        0.1654
     49 H         -10.8293   -7.8204    0.2834 H       1  LIG1        0.0807
     50 C         -11.8278   -3.2958   -0.0053 C.1     1  LIG1       -0.0675
     51 C         -12.4515   -2.2731   -0.1507 C.1     1  LIG1       -0.1138
     52 H         -13.0073   -1.3773   -0.3047 H       1  LIG1        0.1232
     53 H         -12.8255   -5.9740    0.1605 H       1  LIG1        0.0645
@<TRIPOS>BOND
     1    27    26    1
     2    39    36    1
     3    26    25    3
     4    37    36    1
     5    36    35    1
     6    36    38    1
     7    25    19    1
     8    22    18    1
     9    35    28    1
    10    14    12    1
    11    10     8    1
    12    19    18   ar
    13    19    20   ar
    14    18    17   ar
    15    28    33   ar
    16    28    29   ar
    17    33    32   ar
    18    52    51    1
    19    51    50    3
    20    50    44    1
    21    20    29    1
    22    20    21   ar
    23    17     4    1
    24    17    16   ar
    25    29    30   ar
    26    12     3    1
    27    12    15    1
    28    12    13    1
    29     3     4   ar
    30     3     2   ar
    31     4     5   ar
    32     2     8    1
    33     2     1   ar
    34     8    11    1
    35     8     9    1
    36    53    45    1
    37    44    45   ar
    38    44    43   ar
    39     5     1   ar
    40     5     6    1
    41     1     7    1
    42    45    46   ar
    43    32    43    1
    44    32    31   ar
    45    43    47   ar
    46    48    47    1
    47    46    47   ar
    48    46    49    1
    49    30    31   ar
    50    30    34    1
    51    21    16   ar
    52    16    24    1
    53    31    40    1
    54    42    40    1
    55    24    23    3
    56    40    41    1
