@<TRIPOS>MOLECULE
mol_data/opt/cam/geoms/mol2/13ii4hh13il12ii-.out
 58 61 0 0 0
SMALL
GASTEIGER

@<TRIPOS>ATOM
      1 C           0.9932    0.5924   -1.3423 C.ar    1  LIG1        0.0053
      2 C           1.0489    1.0377   -0.0469 C.ar    1  LIG1       -0.0297
      3 C          -0.2029    0.7144    0.5651 C.ar    1  LIG1       -0.0223
      4 C          -0.9795    0.0842   -0.3900 C.ar    1  LIG1        0.0515
      5 N          -0.2271    0.0062   -1.5414 N.ar    1  LIG1       -0.3601
      6 H          -0.5815   -0.3338   -2.4194 H       1  LIG1        0.1654
      7 H           1.7272    0.6485   -2.1327 H       1  LIG1        0.0810
      8 C           2.2061    1.7117    0.6205 C.3     1  LIG1       -0.0380
      9 H           2.5699    1.1357    1.4785 H       1  LIG1        0.0278
     10 H           1.9365    2.7046    0.9963 H       1  LIG1        0.0278
     11 H           3.0430    1.8362   -0.0711 H       1  LIG1        0.0278
     12 C          -0.5480    0.9419    2.0049 C.3     1  LIG1       -0.0375
     13 H          -1.5009    0.4796    2.2642 H       1  LIG1        0.0278
     14 H          -0.6271    2.0080    2.2464 H       1  LIG1        0.0278
     15 H           0.2229    0.5235    2.6607 H       1  LIG1        0.0278
     16 C          -3.4468    0.2483    0.0681 C.ar    1  LIG1        0.0345
     17 C          -4.7016   -0.3610    0.0542 C.ar    1  LIG1       -0.0295
     18 C          -2.3304   -0.4983   -0.3458 C.ar    1  LIG1        0.0209
     19 C          -4.9039   -1.6725   -0.3752 C.ar    1  LIG1        0.0211
     20 H          -5.5516    0.2032    0.4209 H       1  LIG1        0.0643
     21 C          -2.5347   -1.8100   -0.7840 C.ar    1  LIG1       -0.0295
     22 C          -3.7847   -2.4107   -0.8142 C.ar    1  LIG1        0.0345
     23 H          -1.6686   -2.3851   -1.1031 H       1  LIG1        0.0643
     24 N          -3.3133    1.5597    0.5276 N.pl3   1  LIG1       -0.3574
     25 H          -2.4603    2.0117    0.2264 H       1  LIG1        0.1423
     26 H          -4.1285    2.1373    0.3830 H       1  LIG1        0.1423
     27 N          -3.9221   -3.7626   -1.2212 N.pl3   1  LIG1       -0.3574
     28 H          -4.6582   -3.8896   -1.9079 H       1  LIG1        0.1423
     29 H          -3.0550   -4.1349   -1.5875 H       1  LIG1        0.1423
     30 C          -6.2526   -2.2499   -0.3403 C.ar    1  LIG1        0.0553
     31 C          -7.5027   -1.6618   -0.4898 C.ar    1  LIG1        0.0173
     32 C          -8.4542   -2.6959   -0.3184 C.ar    1  LIG1        0.1518
     33 C          -7.7900   -3.8846   -0.0611 C.ar    1  LIG1        0.1252
     34 N          -6.4543   -3.5852   -0.0932 N.ar    1  LIG1       -0.3485
     35 H          -5.7049   -4.2505    0.0367 H       1  LIG1        0.1661
     36 C          -7.8534   -0.2422   -0.8050 C.3     1  LIG1       -0.0342
     37 H          -8.8385   -0.1998   -1.2751 H       1  LIG1        0.0279
     38 H          -7.1256    0.2146   -1.4803 H       1  LIG1        0.0279
     39 H          -7.9071    0.3823    0.0941 H       1  LIG1        0.0279
     40 O          -9.8090   -2.5056   -0.4153 O.3     1  LIG1       -0.4926
     41 C         -10.3852   -3.0492   -1.5945 C.3     1  LIG1        0.0789
     42 H         -11.4441   -2.7856   -1.5784 H       1  LIG1        0.0660
     43 H          -9.9179   -2.6253   -2.4906 H       1  LIG1        0.0660
     44 H         -10.2841   -4.1395   -1.6225 H       1  LIG1        0.0660
     45 C          -8.2297   -5.2415    0.1838 C.ar    1  LIG1        0.1576
     46 C          -9.3528   -5.8194    0.7030 C.ar    1  LIG1       -0.0003
     47 C          -9.1109   -7.2402    0.6878 C.ar    1  LIG1       -0.0092
     48 C          -7.8674   -7.4048    0.1805 C.ar    1  LIG1        0.0958
     49 O          -7.3116   -6.2059   -0.1372 O.2     1  LIG1       -0.4608
     50 H          -7.2595   -8.2755   -0.0104 H       1  LIG1        0.1032
     51 C         -10.5759   -5.1554    1.2495 C.3     1  LIG1       -0.0358
     52 H         -10.6942   -5.3746    2.3163 H       1  LIG1        0.0279
     53 H         -11.4806   -5.5178    0.7488 H       1  LIG1        0.0279
     54 H         -10.5323   -4.0737    1.1239 H       1  LIG1        0.0279
     55 C         -10.0499   -8.3016    1.1611 C.3     1  LIG1       -0.0365
     56 H          -9.6120   -9.2960    1.0491 H       1  LIG1        0.0279
     57 H         -10.9892   -8.2846    0.5991 H       1  LIG1        0.0279
     58 H         -10.3053   -8.1661    2.2170 H       1  LIG1        0.0279
@<TRIPOS>BOND
     1    43    41    1
     2     6     5    1
     3     7     1    1
     4    28    27    1
     5    44    41    1
     6    41    42    1
     7    41    40    1
     8    29    27    1
     9     5     1   ar
    10     5     4   ar
    11    38    36    1
    12     1     2   ar
    13    37    36    1
    14    27    22    1
    15    23    21    1
    16    22    21   ar
    17    22    19   ar
    18    36    31    1
    19    36    39    1
    20    21    18   ar
    21    31    30   ar
    22    31    32   ar
    23    40    32    1
    24     4    18    1
    25     4     3   ar
    26    19    30    1
    27    19    17   ar
    28    18    16   ar
    29    30    34   ar
    30    32    33   ar
    31    49    48   ar
    32    49    45   ar
    33    34    33   ar
    34    34    35    1
    35    11     8    1
    36    33    45    1
    37     2     3   ar
    38     2     8    1
    39    50    48    1
    40    17    16   ar
    41    17    20    1
    42    16    24    1
    43    48    47   ar
    44    45    46   ar
    45    25    24    1
    46    26    24    1
    47     3    12    1
    48    57    55    1
    49     8    10    1
    50     8     9    1
    51    47    46   ar
    52    47    55    1
    53    46    51    1
    54    53    51    1
    55    56    55    1
    56    54    51    1
    57    55    58    1
    58    51    52    1
    59    12    14    1
    60    12    13    1
    61    12    15    1
