@<TRIPOS>MOLECULE
mol_data/opt/cam/geoms/mol2/13ii13ii.out
 30 31 0 0 0
SMALL
GASTEIGER

@<TRIPOS>ATOM
      1 C           1.0894   -0.3097   -0.7155 C.ar    1  LIG1        0.0054
      2 C           0.8399    0.9364   -0.2004 C.ar    1  LIG1       -0.0296
      3 C          -0.5279    0.9548    0.2153 C.ar    1  LIG1       -0.0209
      4 C          -1.0630   -0.2845   -0.0710 C.ar    1  LIG1        0.0663
      5 N          -0.0576   -1.0517   -0.6224 N.ar    1  LIG1       -0.3590
      6 H          -0.2069   -1.9538   -1.0424 H       1  LIG1        0.1654
      7 H           1.9955   -0.7233   -1.1332 H       1  LIG1        0.0810
      8 C           1.8156    2.0635   -0.0710 C.3     1  LIG1       -0.0380
      9 H           1.9469    2.3691    0.9729 H       1  LIG1        0.0278
     10 H           1.4853    2.9502   -0.6227 H       1  LIG1        0.0278
     11 H           2.7982    1.7815   -0.4572 H       1  LIG1        0.0278
     12 C          -1.2266    2.0941    0.8877 C.3     1  LIG1       -0.0374
     13 H          -2.1961    1.7788    1.2793 H       1  LIG1        0.0278
     14 H          -1.4023    2.9318    0.2033 H       1  LIG1        0.0278
     15 H          -0.6365    2.4846    1.7236 H       1  LIG1        0.0278
     16 C          -2.3954   -0.8353    0.1421 C.ar    1  LIG1        0.0663
     17 C          -3.6438   -0.3844   -0.2353 C.ar    1  LIG1       -0.0209
     18 C          -4.6021   -1.3366    0.2327 C.ar    1  LIG1       -0.0296
     19 C          -3.9056   -2.3321    0.8686 C.ar    1  LIG1        0.0054
     20 N          -2.5706   -2.0356    0.7995 N.ar    1  LIG1       -0.3590
     21 H          -1.8379   -2.5161    1.2940 H       1  LIG1        0.1654
     22 H          -4.2589   -3.2284    1.3568 H       1  LIG1        0.0810
     23 C          -3.9441    0.8437   -1.0352 C.3     1  LIG1       -0.0374
     24 H          -4.6031    0.6167   -1.8799 H       1  LIG1        0.0278
     25 H          -3.0266    1.2822   -1.4334 H       1  LIG1        0.0278
     26 H          -4.4464    1.6128   -0.4374 H       1  LIG1        0.0278
     27 C          -6.0839   -1.2640    0.0388 C.3     1  LIG1       -0.0380
     28 H          -6.5836   -2.1266    0.4866 H       1  LIG1        0.0278
     29 H          -6.3539   -1.2412   -1.0228 H       1  LIG1        0.0278
     30 H          -6.5081   -0.3627    0.4941 H       1  LIG1        0.0278
@<TRIPOS>BOND
     1    24    23    1
     2    25    23    1
     3     7     1    1
     4     6     5    1
     5    23    26    1
     6    23    17    1
     7    29    27    1
     8     1     5   ar
     9     1     2   ar
    10    10     8    1
    11     5     4   ar
    12    11     8    1
    13    17    16   ar
    14    17    18   ar
    15     2     8    1
    16     2     3   ar
    17     8     9    1
    18     4    16    1
    19     4     3   ar
    20    27    18    1
    21    27    28    1
    22    27    30    1
    23    16    20   ar
    24    14    12    1
    25     3    12    1
    26    18    19   ar
    27    20    19   ar
    28    20    21    1
    29    19    22    1
    30    12    13    1
    31    12    15    1
