@<TRIPOS>MOLECULE
mol_data/opt/cam/geoms/mol2/13ii6fa-13ia-12fh-12fl-6ea-4ei-6lf-.out
 99 106 0 0 0
SMALL
GASTEIGER

@<TRIPOS>ATOM
      1 C          -0.1587    1.1624   -1.4210 C.ar    1  LIG1        0.0053
      2 C          -0.1064    1.8432   -0.2347 C.ar    1  LIG1       -0.0297
      3 C          -1.2868    1.5046    0.5012 C.ar    1  LIG1       -0.0221
      4 C          -2.0202    0.6296   -0.2716 C.ar    1  LIG1        0.0548
      5 N          -1.2998    0.3998   -1.4343 N.ar    1  LIG1       -0.3600
      6 H          -1.6934   -0.0272   -2.2584 H       1  LIG1        0.1654
      7 H           0.5344    1.1474   -2.2490 H       1  LIG1        0.0810
      8 C           0.9881    2.7512    0.2296 C.3     1  LIG1       -0.0380
      9 H           1.4553    2.3844    1.1499 H       1  LIG1        0.0278
     10 H           0.6139    3.7583    0.4410 H       1  LIG1        0.0278
     11 H           1.7728    2.8409   -0.5252 H       1  LIG1        0.0278
     12 C          -1.6139    1.9843    1.8805 C.3     1  LIG1       -0.0375
     13 H          -2.4468    1.4243    2.3103 H       1  LIG1        0.0278
     14 H          -1.8865    3.0457    1.8902 H       1  LIG1        0.0278
     15 H          -0.7561    1.8710    2.5511 H       1  LIG1        0.0278
     16 C          -3.4699   -1.4207   -0.2519 C.ar    1  LIG1        0.2222
     17 C          -3.3050   -0.0368   -0.0340 C.ar    1  LIG1        0.0599
     18 C          -4.4320    0.6370    0.4293 C.ar    1  LIG1       -0.0454
     19 C          -5.6261   -0.0319    0.6432 C.ar    1  LIG1       -0.0334
     20 C          -5.6845   -1.4012    0.3681 C.ar    1  LIG1        0.0912
     21 N          -4.5990   -2.0710   -0.0703 N.ar    1  LIG1       -0.2110
     22 H          -4.3674    1.7053    0.6083 H       1  LIG1        0.0626
     23 O          -2.4480   -2.1924   -0.6916 O.3     1  LIG1       -0.4919
     24 H          -1.6240   -1.6857   -0.6482 H       1  LIG1        0.2937
     25 H          -6.4940    0.4977    1.0078 H       1  LIG1        0.0640
     26 C          -6.8832   -2.2053    0.5273 C.ar    1  LIG1        0.0685
     27 C          -8.2128   -1.9166    0.8366 C.ar    1  LIG1       -0.0230
     28 C          -8.9147   -3.1396    0.8048 C.ar    1  LIG1       -0.0297
     29 C          -8.0109   -4.1409    0.4834 C.ar    1  LIG1        0.0866
     30 N          -6.7955   -3.5581    0.3201 N.ar    1  LIG1       -0.3503
     31 H          -5.9349   -4.0261    0.0778 H       1  LIG1        0.1660
     32 C          -8.8310   -0.5853    1.1367 C.3     1  LIG1       -0.0376
     33 H          -9.9110   -0.6923    1.2580 H       1  LIG1        0.0278
     34 H          -8.6613    0.1386    0.3332 H       1  LIG1        0.0278
     35 H          -8.4417   -0.1463    2.0617 H       1  LIG1        0.0278
     36 H          -9.9688   -3.2861    0.9897 H       1  LIG1        0.0643
     37 C          -8.1821   -5.5543    0.3078 C.ar    1  LIG1        0.1950
     38 C          -9.2603   -6.3893    0.3165 C.ar    1  LIG1        0.1861
     39 C          -8.7904   -7.7041    0.0333 C.ar    1  LIG1        0.1170
     40 C          -7.4324   -7.5888   -0.1197 C.ar    1  LIG1        0.1987
     41 O          -7.0598   -6.2863    0.0435 O.2     1  LIG1       -0.4444
     42 O         -10.5563   -6.0542    0.5454 O.3     1  LIG1       -0.5019
     43 H         -10.9884   -6.8384    0.9137 H       1  LIG1        0.2924
     44 N          -9.6444   -8.8166    0.0180 N.pl3   1  LIG1       -0.3521
     45 H         -10.3497   -8.7256   -0.7067 H       1  LIG1        0.1425
     46 H          -9.1421   -9.6857   -0.1303 H       1  LIG1        0.1425
     47 C          -6.3928   -8.5421   -0.3776 C.ar    1  LIG1        0.2175
     48 C          -6.4011   -9.8498   -0.7738 C.ar    1  LIG1        0.2092
     49 C          -5.0493  -10.2639   -0.8488 C.ar    1  LIG1        0.2085
     50 C          -4.2716   -9.1905   -0.4926 C.ar    1  LIG1        0.1837
     51 O          -5.0974   -8.1468   -0.2153 O.2     1  LIG1       -0.4439
     52 O          -7.4792  -10.6347   -1.0486 O.3     1  LIG1       -0.5007
     53 H          -7.1507  -11.5419   -1.1270 H       1  LIG1        0.2924
     54 O          -4.7032  -11.5364   -1.2120 O.3     1  LIG1       -0.4884
     55 C          -4.2236  -11.6461   -2.5541 C.3     1  LIG1        0.0791
     56 H          -4.0641  -12.7084   -2.7409 H       1  LIG1        0.0660
     57 H          -4.9578  -11.2515   -3.2636 H       1  LIG1        0.0660
     58 H          -3.2793  -11.1078   -2.6766 H       1  LIG1        0.0660
     59 C          -2.1294   -7.8321   -0.2882 C.ar    1  LIG1        0.1246
     60 C          -2.8346   -9.0553   -0.3279 C.ar    1  LIG1        0.0549
     61 C          -2.0706  -10.2227   -0.2029 C.ar    1  LIG1       -0.0463
     62 C          -0.7020  -10.1583   -0.0487 C.ar    1  LIG1       -0.0349
     63 C          -0.0893   -8.9023   -0.0034 C.ar    1  LIG1        0.0736
     64 N          -0.8012   -7.7832   -0.1316 N.ar    1  LIG1       -0.2377
     65 H          -2.5719  -11.1838   -0.2192 H       1  LIG1        0.0626
     66 C          -2.7529   -6.5447   -0.4201 C.1     1  LIG1       -0.0491
     67 C          -3.1736   -5.4214   -0.5221 C.1     1  LIG1       -0.1124
     68 H          -3.5044   -4.4052   -0.5960 H       1  LIG1        0.1232
     69 H          -0.1177  -11.0631    0.0410 H       1  LIG1        0.0639
     70 C           2.2241   -9.5755    0.8597 C.ar    1  LIG1        0.0344
     71 C           3.5977   -9.3069    0.8913 C.ar    1  LIG1       -0.0376
     72 C           1.3820   -8.7211    0.1249 C.ar    1  LIG1        0.0160
     73 C           4.1596   -8.2280    0.2217 C.ar    1  LIG1       -0.0086
     74 H           4.2391   -9.9704    1.4609 H       1  LIG1        0.0636
     75 C           1.9582   -7.6233   -0.5160 C.ar    1  LIG1       -0.0479
     76 C           3.3202   -7.3539   -0.4909 C.ar    1  LIG1       -0.0419
     77 H           1.2911   -6.9496   -1.0414 H       1  LIG1        0.0627
     78 C           1.7605  -10.6896    1.6340 C.1     1  LIG1       -0.0690
     79 C           1.4396  -11.6312    2.3132 C.1     1  LIG1       -0.1139
     80 H           1.1388  -12.4551    2.9183 H       1  LIG1        0.1232
     81 C           3.8587   -6.1423   -1.2003 C.3     1  LIG1       -0.0391
     82 H           3.0465   -5.4851   -1.5159 H       1  LIG1        0.0278
     83 H           4.4314   -6.4372   -2.0833 H       1  LIG1        0.0278
     84 H           4.5308   -5.5699   -0.5547 H       1  LIG1        0.0278
     85 C           6.4987   -8.0802   -0.7723 C.ar    1  LIG1        0.2226
     86 C           5.6265   -8.0089    0.3374 C.ar    1  LIG1        0.0474
     87 C           6.2105   -7.7700    1.5681 C.ar    1  LIG1       -0.0059
     88 C           7.5929   -7.5956    1.6684 C.ar    1  LIG1        0.1357
     89 C           8.3436   -7.6747    0.5113 C.ar    1  LIG1        0.0728
     90 N           7.8010   -7.9169   -0.6877 N.ar    1  LIG1       -0.2172
     91 H           5.6013   -7.7065    2.4631 H       1  LIG1        0.0662
     92 H           9.4248   -7.5432    0.5388 H       1  LIG1        0.0868
     93 O           5.9434   -8.3462   -1.9765 O.3     1  LIG1       -0.4792
     94 C           6.8321   -8.4624   -3.0786 C.3     1  LIG1        0.0804
     95 H           6.2024   -8.6866   -3.9392 H       1  LIG1        0.0660
     96 H           7.3838   -7.5334   -3.2428 H       1  LIG1        0.0660
     97 H           7.5547   -9.2664   -2.9181 H       1  LIG1        0.0660
     98 O           8.1221   -7.3549    2.9000 O.3     1  LIG1       -0.5052
     99 H           9.0783   -7.2537    2.8230 H       1  LIG1        0.2922
@<TRIPOS>BOND
     1    95    94    1
     2    57    55    1
     3    96    94    1
     4    94    97    1
     5    94    93    1
     6    56    55    1
     7    58    55    1
     8    55    54    1
     9     6     5    1
    10     7     1    1
    11    83    81    1
    12    93    85    1
    13    82    81    1
    14     5     1   ar
    15     5     4   ar
    16     1     2   ar
    17    54    49    1
    18    81    84    1
    19    81    76    1
    20    53    52    1
    21    52    48    1
    22    77    75    1
    23    49    48   ar
    24    49    50   ar
    25    48    47   ar
    26    85    90   ar
    27    85    86   ar
    28    45    44    1
    29    23    24    1
    30    23    16    1
    31    90    89   ar
    32    68    67    1
    33    11     8    1
    34    67    66    3
    35    75    76   ar
    36    75    72   ar
    37    50    60    1
    38    50    51   ar
    39    76    73   ar
    40    66    59    1
    41    47    51   ar
    42    47    40    1
    43    60    59   ar
    44    60    61   ar
    45    59    64   ar
    46     4    17    1
    47     4     3   ar
    48    16    21   ar
    49    16    17   ar
    50     2     8    1
    51     2     3   ar
    52    65    61    1
    53    61    62   ar
    54    64    63   ar
    55    46    44    1
    56    40    39   ar
    57    40    41   ar
    58    21    20   ar
    59    62    63   ar
    60    62    69    1
    61    17    18   ar
    62    63    72    1
    63    44    39    1
    64    39    38   ar
    65    41    37   ar
    66    31    30    1
    67    72    70   ar
    68    73    86    1
    69    73    71   ar
    70     8    10    1
    71     8     9    1
    72    37    38   ar
    73    37    29    1
    74    38    42    1
    75    30    29   ar
    76    30    26   ar
    77    34    32    1
    78    86    87   ar
    79    20    26    1
    80    20    19   ar
    81    18    22    1
    82    18    19   ar
    83    29    28   ar
    84     3    12    1
    85    89    92    1
    86    89    88   ar
    87    26    27   ar
    88    42    43    1
    89    19    25    1
    90    28    27   ar
    91    28    36    1
    92    27    32    1
    93    70    71   ar
    94    70    78    1
    95    71    74    1
    96    32    33    1
    97    32    35    1
    98    87    88   ar
    99    87    91    1
   100    78    79    3
   101    88    98    1
   102    12    14    1
   103    12    13    1
   104    12    15    1
   105    79    80    1
   106    99    98    1
