@<TRIPOS>MOLECULE
mol_data/opt/cam/geoms/mol2/13ii13ii-13ii13ii-.out
 58 61 0 0 0
SMALL
GASTEIGER

@<TRIPOS>ATOM
      1 C           0.9991   -0.2385   -1.5517 C.ar    1  LIG1        0.0054
      2 C           0.8563    0.9788   -0.9358 C.ar    1  LIG1       -0.0296
      3 C          -0.4020    0.9639   -0.2594 C.ar    1  LIG1       -0.0209
      4 C          -0.9825   -0.2685   -0.4952 C.ar    1  LIG1        0.0663
      5 N          -0.1109   -0.9902   -1.2784 N.ar    1  LIG1       -0.3590
      6 H          -0.3191   -1.8968   -1.6606 H       1  LIG1        0.1654
      7 H           1.8064   -0.6250   -2.1558 H       1  LIG1        0.0810
      8 C           1.8389    2.1072   -0.9463 C.3     1  LIG1       -0.0380
      9 H           2.1713    2.3652    0.0652 H       1  LIG1        0.0278
     10 H           1.4097    3.0160   -1.3818 H       1  LIG1        0.0278
     11 H           2.7274    1.8507   -1.5284 H       1  LIG1        0.0278
     12 C          -0.9493    2.0720    0.5862 C.3     1  LIG1       -0.0374
     13 H          -1.8057    1.7357    1.1750 H       1  LIG1        0.0278
     14 H          -1.2718    2.9322   -0.0129 H       1  LIG1        0.0278
     15 H          -0.1946    2.4437    1.2870 H       1  LIG1        0.0278
     16 C          -2.2583   -0.8313   -0.0762 C.ar    1  LIG1        0.0668
     17 C          -2.5927   -2.0800    0.4141 C.ar    1  LIG1       -0.0202
     18 C          -4.0008   -2.0886    0.6420 C.ar    1  LIG1       -0.0202
     19 C          -4.4868   -0.8440    0.2845 C.ar    1  LIG1        0.0668
     20 N          -3.4159   -0.0935   -0.1384 N.ar    1  LIG1       -0.3514
     21 H          -3.4915    0.8064   -0.5824 H       1  LIG1        0.1660
     22 C          -1.6546   -3.2054    0.7232 C.3     1  LIG1       -0.0374
     23 H          -0.6134   -2.8811    0.6621 H       1  LIG1        0.0278
     24 H          -1.7836   -4.0534    0.0400 H       1  LIG1        0.0278
     25 H          -1.8189   -3.5913    1.7347 H       1  LIG1        0.0278
     26 C          -4.7790   -3.2261    1.2272 C.3     1  LIG1       -0.0374
     27 H          -4.2770   -3.6354    2.1099 H       1  LIG1        0.0278
     28 H          -4.8973   -4.0567    0.5209 H       1  LIG1        0.0278
     29 H          -5.7764   -2.9067    1.5371 H       1  LIG1        0.0278
     30 C          -5.8350   -0.2974    0.2854 C.ar    1  LIG1        0.0668
     31 C          -6.3205    0.9471    0.6437 C.ar    1  LIG1       -0.0202
     32 C          -7.7288    0.9386    0.4176 C.ar    1  LIG1       -0.0202
     33 C          -8.0639   -0.3100   -0.0725 C.ar    1  LIG1        0.0668
     34 N          -6.9064   -1.0478   -0.1363 N.ar    1  LIG1       -0.3514
     35 H          -6.8313   -1.9477   -0.5806 H       1  LIG1        0.1660
     36 C          -5.5415    2.0846    1.2281 C.3     1  LIG1       -0.0374
     37 H          -6.0425    2.4937    2.1115 H       1  LIG1        0.0278
     38 H          -5.4241    2.9153    0.5218 H       1  LIG1        0.0278
     39 H          -4.5438    1.7651    1.5368 H       1  LIG1        0.0278
     40 C          -8.6666    2.0639    0.7280 C.3     1  LIG1       -0.0374
     41 H          -9.7079    1.7396    0.6682 H       1  LIG1        0.0278
     42 H          -8.5385    2.9121    0.0448 H       1  LIG1        0.0278
     43 H          -8.5010    2.4496    1.7393 H       1  LIG1        0.0278
     44 C          -9.3402   -0.8727   -0.4901 C.ar    1  LIG1        0.0663
     45 C          -9.9204   -2.1052   -0.2537 C.ar    1  LIG1       -0.0209
     46 C         -11.1795   -2.1200   -0.9285 C.ar    1  LIG1       -0.0296
     47 C         -11.3231   -0.9025   -1.5441 C.ar    1  LIG1        0.0054
     48 N         -10.2128   -0.1509   -1.2721 N.ar    1  LIG1       -0.3590
     49 H         -10.0050    0.7557   -1.6544 H       1  LIG1        0.1654
     50 H         -12.1312   -0.5160   -2.1472 H       1  LIG1        0.0810
     51 C          -9.3721   -3.2135    0.5910 C.3     1  LIG1       -0.0374
     52 H          -8.5149   -2.8773    1.1788 H       1  LIG1        0.0278
     53 H          -9.0503   -4.0735   -0.0086 H       1  LIG1        0.0278
     54 H         -10.1259   -3.5853    1.2926 H       1  LIG1        0.0278
     55 C         -12.1622   -3.2484   -0.9381 C.3     1  LIG1       -0.0380
     56 H         -12.4934   -3.5066    0.0738 H       1  LIG1        0.0278
     57 H         -11.7335   -4.1571   -1.3743 H       1  LIG1        0.0278
     58 H         -13.0514   -2.9918   -1.5190 H       1  LIG1        0.0278
@<TRIPOS>BOND
     1     7     1    1
     2    50    47    1
     3     6     5    1
     4    49    48    1
     5     1     5   ar
     6     1     2   ar
     7    47    48   ar
     8    47    46   ar
     9    11     8    1
    10    58    55    1
    11    10     8    1
    12    57    55    1
    13     5     4   ar
    14    48    44   ar
    15     8     2    1
    16     8     9    1
    17    55    46    1
    18    55    56    1
    19     2     3   ar
    20    46    45   ar
    21    21    20    1
    22    35    34    1
    23     4     3   ar
    24     4    16    1
    25    44    45   ar
    26    44    33    1
    27     3    12    1
    28    45    51    1
    29    20    16   ar
    30    20    19   ar
    31    34    33   ar
    32    34    30   ar
    33    16    17   ar
    34    33    32   ar
    35    14    12    1
    36    53    51    1
    37    24    22    1
    38    42    40    1
    39    19    30    1
    40    19    18   ar
    41    30    31   ar
    42    17    18   ar
    43    17    22    1
    44    32    31   ar
    45    32    40    1
    46    28    26    1
    47    38    36    1
    48    12    13    1
    49    12    15    1
    50    51    52    1
    51    51    54    1
    52    18    26    1
    53    31    36    1
    54    23    22    1
    55    41    40    1
    56    22    25    1
    57    40    43    1
    58    26    29    1
    59    26    27    1
    60    36    39    1
    61    36    37    1
