@<TRIPOS>MOLECULE
mol_data/opt/cam/geoms/mol2/13ii13ii-13ii-13ii.out
 58 61 0 0 0
SMALL
GASTEIGER

@<TRIPOS>ATOM
      1 C           1.1772   -0.7738   -1.4092 C.ar    1  LIG1        0.0054
      2 C           1.0169    0.5719   -1.1971 C.ar    1  LIG1       -0.0296
      3 C          -0.2913    0.7600   -0.6548 C.ar    1  LIG1       -0.0209
      4 C          -0.8822   -0.4867   -0.5606 C.ar    1  LIG1        0.0663
      5 N           0.0305   -1.4092   -1.0183 N.ar    1  LIG1       -0.3590
      6 H          -0.1697   -2.3884   -1.1306 H       1  LIG1        0.1654
      7 H           2.0196   -1.3232   -1.8023 H       1  LIG1        0.0810
      8 C           2.0251    1.6457   -1.4609 C.3     1  LIG1       -0.0380
      9 H           2.2837    2.1929   -0.5477 H       1  LIG1        0.0278
     10 H           1.6539    2.3839   -2.1800 H       1  LIG1        0.0278
     11 H           2.9497    1.2272   -1.8658 H       1  LIG1        0.0278
     12 C          -0.8751    2.0710   -0.2272 C.3     1  LIG1       -0.0374
     13 H          -1.7909    1.9271    0.3506 H       1  LIG1        0.0278
     14 H          -1.1151    2.7169   -1.0804 H       1  LIG1        0.0278
     15 H          -0.1740    2.6298    0.4012 H       1  LIG1        0.0278
     16 C          -2.2009   -0.8987   -0.1017 C.ar    1  LIG1        0.0668
     17 C          -2.6075   -1.9610    0.6831 C.ar    1  LIG1       -0.0202
     18 C          -4.0300   -1.8971    0.7882 C.ar    1  LIG1       -0.0202
     19 C          -4.4513   -0.8016    0.0625 C.ar    1  LIG1        0.0668
     20 N          -3.3276   -0.1930   -0.4545 N.ar    1  LIG1       -0.3514
     21 H          -3.3431    0.5128   -1.1725 H       1  LIG1        0.1660
     22 C          -1.7300   -2.9621    1.3687 C.3     1  LIG1       -0.0374
     23 H          -0.6785   -2.6713    1.3147 H       1  LIG1        0.0278
     24 H          -1.8256   -3.9641    0.9336 H       1  LIG1        0.0278
     25 H          -1.9900   -3.0560    2.4282 H       1  LIG1        0.0278
     26 C          -4.8907   -2.8079    1.6052 C.3     1  LIG1       -0.0374
     27 H          -4.4955   -2.9235    2.6200 H       1  LIG1        0.0278
     28 H          -4.9562   -3.8126    1.1727 H       1  LIG1        0.0278
     29 H          -5.9062   -2.4144    1.6840 H       1  LIG1        0.0278
     30 C          -5.7774   -0.2455   -0.1663 C.ar    1  LIG1        0.0668
     31 C          -6.9458   -0.8207   -0.6264 C.ar    1  LIG1       -0.0202
     32 C          -7.9396    0.2011   -0.6683 C.ar    1  LIG1       -0.0202
     33 C          -7.3464    1.3771   -0.2470 C.ar    1  LIG1        0.0668
     34 N          -6.0350    1.0896    0.0470 N.ar    1  LIG1       -0.3514
     35 H          -5.3749    1.7521    0.4190 H       1  LIG1        0.1660
     36 C          -7.1358   -2.2447   -1.0440 C.3     1  LIG1       -0.0374
     37 H          -7.7677   -2.8010   -0.3421 H       1  LIG1        0.0278
     38 H          -6.1764   -2.7627   -1.1055 H       1  LIG1        0.0278
     39 H          -7.6171   -2.3094   -2.0254 H       1  LIG1        0.0278
     40 C          -9.3678    0.0070   -1.0749 C.3     1  LIG1       -0.0374
     41 H          -9.8112   -0.8513   -0.5601 H       1  LIG1        0.0278
     42 H          -9.4715   -0.1846   -2.1499 H       1  LIG1        0.0278
     43 H          -9.9724    0.8836   -0.8315 H       1  LIG1        0.0278
     44 C          -7.8746    2.7266   -0.1005 C.ar    1  LIG1        0.0663
     45 C          -7.7349    3.6606    0.9092 C.ar    1  LIG1       -0.0209
     46 C          -8.4585    4.8274    0.5142 C.ar    1  LIG1       -0.0296
     47 C          -9.0142    4.5629   -0.7117 C.ar    1  LIG1        0.0054
     48 N          -8.6634    3.2920   -1.0763 N.ar    1  LIG1       -0.3590
     49 H          -8.8663    2.8530   -1.9581 H       1  LIG1        0.1654
     50 H          -9.6345    5.1797   -1.3449 H       1  LIG1        0.0810
     51 C          -7.0073    3.4857    2.2065 C.3     1  LIG1       -0.0374
     52 H          -7.6279    3.7986    3.0524 H       1  LIG1        0.0278
     53 H          -6.0897    4.0845    2.2532 H       1  LIG1        0.0278
     54 H          -6.7338    2.4410    2.3724 H       1  LIG1        0.0278
     55 C          -8.5970    6.0897    1.3058 C.3     1  LIG1       -0.0380
     56 H          -9.2228    6.8165    0.7821 H       1  LIG1        0.0278
     57 H          -7.6263    6.5621    1.4910 H       1  LIG1        0.0278
     58 H          -9.0540    5.9067    2.2845 H       1  LIG1        0.0278
@<TRIPOS>BOND
     1    10     8    1
     2    42    40    1
     3    39    36    1
     4    49    48    1
     5    11     8    1
     6     7     1    1
     7     8     2    1
     8     8     9    1
     9     1     2   ar
    10     1     5   ar
    11    50    47    1
    12     2     3   ar
    13    21    20    1
    14     6     5    1
    15    38    36    1
    16    14    12    1
    17    48    47   ar
    18    48    44   ar
    19    40    43    1
    20    40    32    1
    21    40    41    1
    22    36    31    1
    23    36    37    1
    24     5     4   ar
    25    47    46   ar
    26    32    31   ar
    27    32    33   ar
    28     3     4   ar
    29     3    12    1
    30    31    30   ar
    31     4    16    1
    32    20    16   ar
    33    20    19   ar
    34    33    44    1
    35    33    34   ar
    36    12    13    1
    37    12    15    1
    38    30    34   ar
    39    30    19    1
    40    16    17   ar
    41    44    45   ar
    42    34    35    1
    43    19    18   ar
    44    46    45   ar
    45    46    55    1
    46    17    18   ar
    47    17    22    1
    48    56    55    1
    49    18    26    1
    50    45    51    1
    51    24    22    1
    52    28    26    1
    53    55    57    1
    54    55    58    1
    55    23    22    1
    56    22    25    1
    57    26    29    1
    58    26    27    1
    59    51    53    1
    60    51    54    1
    61    51    52    1
