@<TRIPOS>MOLECULE
mol_data/opt/cam/geoms/mol2/13ii13ii-.out
 30 31 0 0 0
SMALL
GASTEIGER

@<TRIPOS>ATOM
      1 C           1.1591   -0.2110   -0.6865 C.ar    1  LIG1        0.0054
      2 C           0.8034    1.0052   -0.1610 C.ar    1  LIG1       -0.0296
      3 C          -0.6042    0.9644    0.0796 C.ar    1  LIG1       -0.0209
      4 C          -1.0549   -0.2810   -0.3163 C.ar    1  LIG1        0.0663
      5 N           0.0348   -0.9854   -0.7741 N.ar    1  LIG1       -0.3590
      6 H          -0.0225   -1.8999   -1.1886 H       1  LIG1        0.1654
      7 H           2.1244   -0.5819   -0.9976 H       1  LIG1        0.0810
      8 C           1.7147    2.1558    0.1298 C.3     1  LIG1       -0.0380
      9 H           1.7015    2.4256    1.1917 H       1  LIG1        0.0278
     10 H           1.4283    3.0529   -0.4298 H       1  LIG1        0.0278
     11 H           2.7477    1.9178   -0.1355 H       1  LIG1        0.0278
     12 C          -1.4155    2.0625    0.6947 C.3     1  LIG1       -0.0374
     13 H          -2.4165    1.7148    0.9602 H       1  LIG1        0.0278
     14 H          -1.5261    2.9232    0.0240 H       1  LIG1        0.0278
     15 H          -0.9451    2.4376    1.6096 H       1  LIG1        0.0278
     16 C          -2.3872   -0.8712   -0.3159 C.ar    1  LIG1        0.0663
     17 C          -2.8376   -2.1167    0.0800 C.ar    1  LIG1       -0.0209
     18 C          -4.2454   -2.1574   -0.1597 C.ar    1  LIG1       -0.0296
     19 C          -4.6015   -0.9412   -0.6847 C.ar    1  LIG1        0.0054
     20 N          -3.4772   -0.1667   -0.7729 N.ar    1  LIG1       -0.3590
     21 H          -3.4202    0.7479   -1.1872 H       1  LIG1        0.1654
     22 H          -5.5669   -0.5702   -0.9952 H       1  LIG1        0.0810
     23 C          -2.0259   -3.2149    0.6943 C.3     1  LIG1       -0.0374
     24 H          -1.0248   -2.8672    0.9592 H       1  LIG1        0.0278
     25 H          -1.9157   -4.0755    0.0233 H       1  LIG1        0.0278
     26 H          -2.4957   -3.5902    1.6094 H       1  LIG1        0.0278
     27 C          -5.1565   -3.3081    0.1316 C.3     1  LIG1       -0.0380
     28 H          -5.1426   -3.5780    1.1933 H       1  LIG1        0.0278
     29 H          -4.8705   -4.2051   -0.4284 H       1  LIG1        0.0278
     30 H          -6.1897   -3.0699   -0.1330 H       1  LIG1        0.0278
@<TRIPOS>BOND
     1     6     5    1
     2    21    20    1
     3     7     1    1
     4    22    19    1
     5     5     1   ar
     6     5     4   ar
     7    20    19   ar
     8    20    16   ar
     9     1     2   ar
    10    19    18   ar
    11    10     8    1
    12    29    27    1
    13     4    16    1
    14     4     3   ar
    15    16    17   ar
    16     2     3   ar
    17     2     8    1
    18    18    17   ar
    19    18    27    1
    20    11     8    1
    21    30    27    1
    22    25    23    1
    23    14    12    1
    24     3    12    1
    25    17    23    1
    26     8     9    1
    27    27    28    1
    28    23    24    1
    29    23    26    1
    30    12    13    1
    31    12    15    1
