@<TRIPOS>MOLECULE
mol_data/opt/cam/geoms/mol2/13ii13ii13ii-13ii-.out
 58 61 0 0 0
SMALL
GASTEIGER

@<TRIPOS>ATOM
      1 C           1.2034   -0.0420    0.0002 C.ar    1  LIG1        0.0054
      2 C           0.7412    0.9193   -0.8617 C.ar    1  LIG1       -0.0296
      3 C          -0.6850    0.8234   -0.8749 C.ar    1  LIG1       -0.0209
      4 C          -1.0379   -0.1923   -0.0092 C.ar    1  LIG1        0.0663
      5 N           0.1275   -0.7231    0.5032 N.ar    1  LIG1       -0.3590
      6 H           0.1572   -1.3956    1.2509 H       1  LIG1        0.1654
      7 H           2.2136   -0.2946    0.2866 H       1  LIG1        0.0810
      8 C           1.5683    1.8759   -1.6616 C.3     1  LIG1       -0.0380
      9 H           1.3287    2.9174   -1.4217 H       1  LIG1        0.0278
     10 H           1.4057    1.7519   -2.7379 H       1  LIG1        0.0278
     11 H           2.6344    1.7302   -1.4713 H       1  LIG1        0.0278
     12 C          -1.6121    1.6380   -1.7208 C.3     1  LIG1       -0.0374
     13 H          -2.6214    1.2215   -1.7034 H       1  LIG1        0.0278
     14 H          -1.2773    1.6654   -2.7631 H       1  LIG1        0.0278
     15 H          -1.6771    2.6777   -1.3799 H       1  LIG1        0.0278
     16 C          -2.3352   -0.7393    0.3625 C.ar    1  LIG1        0.0668
     17 C          -3.4857   -0.1361    0.8275 C.ar    1  LIG1       -0.0202
     18 C          -4.4513   -1.1644    1.0480 C.ar    1  LIG1       -0.0202
     19 C          -3.8592   -2.3685    0.7154 C.ar    1  LIG1        0.0668
     20 N          -2.5697   -2.0970    0.3203 N.ar    1  LIG1       -0.3514
     21 H          -1.9785   -2.7586   -0.1557 H       1  LIG1        0.1660
     22 C          -3.6692    1.3187    1.1236 C.3     1  LIG1       -0.0374
     23 H          -4.0812    1.4717    2.1268 H       1  LIG1        0.0278
     24 H          -4.3573    1.8002    0.4198 H       1  LIG1        0.0278
     25 H          -2.7157    1.8480    1.0686 H       1  LIG1        0.0278
     26 C          -5.8249   -0.9588    1.6075 C.3     1  LIG1       -0.0374
     27 H          -6.2774   -1.9076    1.9044 H       1  LIG1        0.0278
     28 H          -6.4976   -0.4756    0.8888 H       1  LIG1        0.0278
     29 H          -5.7991   -0.3151    2.4928 H       1  LIG1        0.0278
     30 C          -4.3722   -3.7295    0.7178 C.ar    1  LIG1        0.0668
     31 C          -3.7873   -4.9297    1.0766 C.ar    1  LIG1       -0.0202
     32 C          -4.7483   -5.9605    0.8476 C.ar    1  LIG1       -0.0202
     33 C          -5.8886   -5.3628    0.3516 C.ar    1  LIG1        0.0668
     34 N          -5.6531   -4.0057    0.2988 N.ar    1  LIG1       -0.3514
     35 H          -6.2341   -3.3496   -0.1972 H       1  LIG1        0.1660
     36 C          -2.4259   -5.1286    1.6673 C.3     1  LIG1       -0.0374
     37 H          -1.9796   -4.1765    1.9627 H       1  LIG1        0.0278
     38 H          -1.7383   -5.6200    0.9684 H       1  LIG1        0.0278
     39 H          -2.4704   -5.7622    2.5591 H       1  LIG1        0.0278
     40 C          -4.5712   -7.4118    1.1642 C.3     1  LIG1       -0.0374
     41 H          -4.1804   -7.5532    2.1775 H       1  LIG1        0.0278
     42 H          -3.8685   -7.9013    0.4805 H       1  LIG1        0.0278
     43 H          -5.5233   -7.9418    1.0952 H       1  LIG1        0.0278
     44 C          -7.1779   -5.9142   -0.0410 C.ar    1  LIG1        0.0663
     45 C          -7.5126   -6.9399   -0.9022 C.ar    1  LIG1       -0.0209
     46 C          -8.9388   -7.0357   -0.9180 C.ar    1  LIG1       -0.0296
     47 C          -9.4189   -6.0646   -0.0771 C.ar    1  LIG1        0.0054
     48 N          -8.3538   -5.3777    0.4405 N.ar    1  LIG1       -0.3590
     49 H          -8.3991   -4.6966    1.1797 H       1  LIG1        0.1654
     50 H         -10.4349   -5.8088    0.1850 H       1  LIG1        0.0810
     51 C          -6.5680   -7.7640   -1.7189 C.3     1  LIG1       -0.0374
     52 H          -5.5592   -7.3472   -1.6851 H       1  LIG1        0.0278
     53 H          -6.8807   -7.8034   -2.7677 H       1  LIG1        0.0278
     54 H          -6.5103   -8.7997   -1.3649 H       1  LIG1        0.0278
     55 C          -9.7489   -8.0016   -1.7241 C.3     1  LIG1       -0.0380
     56 H          -9.5145   -9.0402   -1.4673 H       1  LIG1        0.0278
     57 H          -9.5638   -7.8898   -2.7981 H       1  LIG1        0.0278
     58 H         -10.8188   -7.8538   -1.5579 H       1  LIG1        0.0278
@<TRIPOS>BOND
     1    57    55    1
     2    53    51    1
     3    14    12    1
     4    10     8    1
     5    55    58    1
     6    55    56    1
     7    55    46    1
     8    12    13    1
     9    12    15    1
    10    12     3    1
    11    51    52    1
    12    51    54    1
    13    51    45    1
    14     8    11    1
    15     8     9    1
    16     8     2    1
    17    46    45   ar
    18    46    47   ar
    19    45    44   ar
    20     3     2   ar
    21     3     4   ar
    22     2     1   ar
    23    35    34    1
    24    21    20    1
    25    47    50    1
    26    47    48   ar
    27    44    33    1
    28    44    48   ar
    29     4    16    1
    30     4     5   ar
    31     1     7    1
    32     1     5   ar
    33    34    33   ar
    34    34    30   ar
    35    20    16   ar
    36    20    19   ar
    37    33    32   ar
    38    16    17   ar
    39    24    22    1
    40    48    49    1
    41    42    40    1
    42     5     6    1
    43    19    30    1
    44    19    18   ar
    45    30    31   ar
    46    17    18   ar
    47    17    22    1
    48    32    31   ar
    49    32    40    1
    50    28    26    1
    51    38    36    1
    52    18    26    1
    53    25    22    1
    54    31    36    1
    55    43    40    1
    56    22    23    1
    57    40    41    1
    58    26    27    1
    59    26    29    1
    60    36    37    1
    61    36    39    1
