@<TRIPOS>MOLECULE
mol_data/opt/cam/geoms/mol2/13ii.out
 16 16 0 0 0
SMALL
GASTEIGER

@<TRIPOS>ATOM
      1 C           1.1167   -0.4394    0.0590 C.ar    1  LIG1        0.0048
      2 C           0.7170    0.8715    0.0009 C.ar    1  LIG1       -0.0303
      3 C          -0.7141    0.8738    0.0012 C.ar    1  LIG1       -0.0303
      4 C          -1.1181   -0.4358    0.0594 C.ar    1  LIG1        0.0048
      5 N          -0.0019   -1.2297    0.0943 N.ar    1  LIG1       -0.3665
      6 H          -0.0035   -2.2337    0.1390 H       1  LIG1        0.1648
      7 H          -2.1110   -0.8603    0.0785 H       1  LIG1        0.0809
      8 H           2.1083   -0.8670    0.0776 H       1  LIG1        0.0809
      9 C           1.6022    2.0771   -0.0529 C.3     1  LIG1       -0.0381
     10 H           1.4307    2.7449    0.7985 H       1  LIG1        0.0278
     11 H           1.4298    2.6671   -0.9597 H       1  LIG1        0.0278
     12 H           2.6575    1.7935   -0.0409 H       1  LIG1        0.0278
     13 C          -1.5955    2.0822   -0.0521 C.3     1  LIG1       -0.0381
     14 H          -2.6518    1.8020   -0.0396 H       1  LIG1        0.0278
     15 H          -1.4216    2.6717   -0.9590 H       1  LIG1        0.0278
     16 H          -1.4215    2.7494    0.7992 H       1  LIG1        0.0278
@<TRIPOS>BOND
     1    11     9    1
     2    15    13    1
     3     9    12    1
     4     9     2    1
     5     9    10    1
     6    13    14    1
     7    13     3    1
     8    13    16    1
     9     2     3   ar
    10     2     1   ar
    11     3     4   ar
    12     1     8    1
    13     1     5   ar
    14     4     7    1
    15     4     5   ar
    16     5     6    1
