@<TRIPOS>MOLECULE
mol_data/opt/cam/geoms/mol2/13ii13ii-13ii.out
 44 46 0 0 0
SMALL
GASTEIGER

@<TRIPOS>ATOM
      1 C           1.1442   -0.2984   -1.0398 C.ar    1  LIG1        0.0054
      2 C           0.9138    0.9193   -0.4519 C.ar    1  LIG1       -0.0296
      3 C          -0.4372    0.9143    0.0127 C.ar    1  LIG1       -0.0209
      4 C          -0.9820   -0.3131   -0.3163 C.ar    1  LIG1        0.0663
      5 N          -0.0013   -1.0411   -0.9506 N.ar    1  LIG1       -0.3590
      6 H          -0.1527   -1.9453   -1.3640 H       1  LIG1        0.1654
      7 H           2.0351   -0.6909   -1.5070 H       1  LIG1        0.0810
      8 C           1.8941    2.0397   -0.3016 C.3     1  LIG1       -0.0380
      9 H           2.0630    2.2927    0.7509 H       1  LIG1        0.0278
     10 H           1.5468    2.9530   -0.7966 H       1  LIG1        0.0278
     11 H           2.8621    1.7773   -0.7355 H       1  LIG1        0.0278
     12 C          -1.1044    2.0268    0.7606 C.3     1  LIG1       -0.0374
     13 H          -2.0504    1.6999    1.1982 H       1  LIG1        0.0278
     14 H          -1.3134    2.8917    0.1196 H       1  LIG1        0.0278
     15 H          -0.4722    2.3883    1.5782 H       1  LIG1        0.0278
     16 C          -2.3128   -0.8667   -0.1099 C.ar    1  LIG1        0.0668
     17 C          -2.7301   -2.1157    0.3120 C.ar    1  LIG1       -0.0202
     18 C          -4.1565   -2.1134    0.3127 C.ar    1  LIG1       -0.0202
     19 C          -4.5702   -0.8631   -0.1088 C.ar    1  LIG1        0.0668
     20 N          -3.4404   -0.1195   -0.3510 N.ar    1  LIG1       -0.3514
     21 H          -3.4392    0.7859   -0.7906 H       1  LIG1        0.1660
     22 C          -1.8615   -3.2508    0.7584 C.3     1  LIG1       -0.0374
     23 H          -0.8233   -2.9323    0.8757 H       1  LIG1        0.0278
     24 H          -1.8784   -4.0902    0.0528 H       1  LIG1        0.0278
     25 H          -2.1936   -3.6473    1.7235 H       1  LIG1        0.0278
     26 C          -5.0283   -3.2457    0.7600 C.3     1  LIG1       -0.0374
     27 H          -4.6965   -3.6433    1.7248 H       1  LIG1        0.0278
     28 H          -5.0147   -4.0852    0.0544 H       1  LIG1        0.0278
     29 H          -6.0654   -2.9240    0.8782 H       1  LIG1        0.0278
     30 C          -5.8994   -0.3053   -0.3141 C.ar    1  LIG1        0.0663
     31 C          -6.4400    0.9238    0.0155 C.ar    1  LIG1       -0.0209
     32 C          -7.7914    0.9331   -0.4478 C.ar    1  LIG1       -0.0296
     33 C          -8.0262   -0.2839   -1.0355 C.ar    1  LIG1        0.0054
     34 N          -6.8830   -1.0302   -0.9474 N.ar    1  LIG1       -0.3590
     35 H          -6.7350   -1.9348   -1.3610 H       1  LIG1        0.1654
     36 H          -8.9189   -0.6735   -1.5019 H       1  LIG1        0.0810
     37 C          -5.7685    2.0343    0.7627 C.3     1  LIG1       -0.0374
     38 H          -6.3988    2.3978    1.5809 H       1  LIG1        0.0278
     39 H          -5.5575    2.8985    0.1215 H       1  LIG1        0.0278
     40 H          -4.8232    1.7043    1.1994 H       1  LIG1        0.0278
     41 C          -8.7681    2.0566   -0.2965 C.3     1  LIG1       -0.0380
     42 H          -9.7373    1.7973   -0.7296 H       1  LIG1        0.0278
     43 H          -8.4183    2.9688   -0.7919 H       1  LIG1        0.0278
     44 H          -8.9352    2.3101    0.7561 H       1  LIG1        0.0278
@<TRIPOS>BOND
     1     7     1    1
     2    36    33    1
     3     6     5    1
     4    35    34    1
     5     1     5   ar
     6     1     2   ar
     7    33    34   ar
     8    33    32   ar
     9     5     4   ar
    10    34    30   ar
    11    10     8    1
    12    43    41    1
    13    21    20    1
    14    11     8    1
    15    42    41    1
    16     2     8    1
    17     2     3   ar
    18    32    41    1
    19    32    31   ar
    20    20    16   ar
    21    20    19   ar
    22     4    16    1
    23     4     3   ar
    24    30    19    1
    25    30    31   ar
    26     8     9    1
    27    41    44    1
    28    16    17   ar
    29    19    18   ar
    30     3    12    1
    31    31    37    1
    32    24    22    1
    33    28    26    1
    34    14    12    1
    35    39    37    1
    36    17    18   ar
    37    17    22    1
    38    18    26    1
    39    22    23    1
    40    22    25    1
    41    26    29    1
    42    26    27    1
    43    12    13    1
    44    12    15    1
    45    37    40    1
    46    37    38    1
