@<TRIPOS>MOLECULE
mol_data/opt/cam/geoms/mol2/13ii13ii-13ii-13ii-.out
 58 61 0 0 0
SMALL
GASTEIGER

@<TRIPOS>ATOM
      1 C           1.2088   -0.5411   -0.8621 C.ar    1  LIG1        0.0054
      2 C           0.9810    0.7751   -0.5500 C.ar    1  LIG1       -0.0296
      3 C          -0.3788    0.8777   -0.1244 C.ar    1  LIG1       -0.0209
      4 C          -0.9311   -0.3880   -0.1979 C.ar    1  LIG1        0.0663
      5 N           0.0535   -1.2401   -0.6425 N.ar    1  LIG1       -0.3590
      6 H          -0.1000   -2.2101   -0.8593 H       1  LIG1        0.1654
      7 H           2.1040   -1.0297   -1.2171 H       1  LIG1        0.0810
      8 C           1.9710    1.8950   -0.6187 C.3     1  LIG1       -0.0380
      9 H           2.1246    2.3619    0.3604 H       1  LIG1        0.0278
     10 H           1.6426    2.6866   -1.3010 H       1  LIG1        0.0278
     11 H           2.9433    1.5404   -0.9693 H       1  LIG1        0.0278
     12 C          -1.0469    2.1281    0.3576 C.3     1  LIG1       -0.0374
     13 H          -2.0114    1.9082    0.8209 H       1  LIG1        0.0278
     14 H          -1.2199    2.8457   -0.4537 H       1  LIG1        0.0278
     15 H          -0.4330    2.6424    1.1042 H       1  LIG1        0.0278
     16 C          -2.2715   -0.8755    0.0927 C.ar    1  LIG1        0.0668
     17 C          -2.7124   -2.0143    0.7396 C.ar    1  LIG1       -0.0202
     18 C          -4.1399   -1.9983    0.7127 C.ar    1  LIG1       -0.0202
     19 C          -4.5295   -0.8538    0.0465 C.ar    1  LIG1        0.0668
     20 N          -3.3846   -0.1714   -0.3041 N.ar    1  LIG1       -0.3514
     21 H          -3.3595    0.5973   -0.9537 H       1  LIG1        0.1660
     22 C          -1.8679   -3.0486    1.4175 C.3     1  LIG1       -0.0374
     23 H          -0.8291   -2.7210    1.4997 H       1  LIG1        0.0278
     24 H          -1.8781   -4.0070    0.8849 H       1  LIG1        0.0278
     25 H          -2.2290   -3.2512    2.4311 H       1  LIG1        0.0278
     26 C          -5.0397   -2.9999    1.3645 C.3     1  LIG1       -0.0374
     27 H          -4.7196   -3.2119    2.3901 H       1  LIG1        0.0278
     28 H          -5.0505   -3.9566    0.8302 H       1  LIG1        0.0278
     29 H          -6.0669   -2.6316    1.4035 H       1  LIG1        0.0278
     30 C          -5.8449   -0.3115   -0.2582 C.ar    1  LIG1        0.0668
     31 C          -6.9604   -0.8815   -0.8354 C.ar    1  LIG1       -0.0202
     32 C          -7.9742    0.1244   -0.8961 C.ar    1  LIG1       -0.0202
     33 C          -7.4472    1.2782   -0.3553 C.ar    1  LIG1        0.0668
     34 N          -6.1399    1.0121   -0.0008 N.ar    1  LIG1       -0.3514
     35 H          -5.6073    1.5876    0.6321 H       1  LIG1        0.1660
     36 C          -7.0719   -2.2702   -1.3804 C.3     1  LIG1       -0.0374
     37 H          -7.7342   -2.8994   -0.7752 H       1  LIG1        0.0278
     38 H          -6.0939   -2.7548   -1.4133 H       1  LIG1        0.0278
     39 H          -7.4795   -2.2657   -2.3968 H       1  LIG1        0.0278
     40 C          -9.3284   -0.0326   -1.5116 C.3     1  LIG1       -0.0374
     41 H          -9.9820   -0.6746   -0.9106 H       1  LIG1        0.0278
     42 H          -9.2626   -0.4875   -2.5057 H       1  LIG1        0.0278
     43 H          -9.8213    0.9359   -1.6175 H       1  LIG1        0.0278
     44 C          -8.0179    2.6039   -0.1630 C.ar    1  LIG1        0.0663
     45 C          -9.1927    3.0186    0.4319 C.ar    1  LIG1       -0.0209
     46 C          -9.2312    4.4454    0.3522 C.ar    1  LIG1       -0.0296
     47 C          -8.0810    4.8469   -0.2771 C.ar    1  LIG1        0.0054
     48 N          -7.3412    3.7336   -0.5738 N.ar    1  LIG1       -0.3590
     49 H          -6.5147    3.7154   -1.1470 H       1  LIG1        0.1654
     50 H          -7.7327    5.8379   -0.5285 H       1  LIG1        0.0810
     51 C         -10.2136    2.1491    1.0953 C.3     1  LIG1       -0.0374
     52 H          -9.8402    1.1294    1.2118 H       1  LIG1        0.0278
     53 H         -11.1467    2.0964    0.5229 H       1  LIG1        0.0278
     54 H         -10.4712    2.5285    2.0897 H       1  LIG1        0.0278
     55 C         -10.3161    5.3289    0.8828 C.3     1  LIG1       -0.0380
     56 H         -10.4512    5.2017    1.9625 H       1  LIG1        0.0278
     57 H         -11.2816    5.1115    0.4135 H       1  LIG1        0.0278
     58 H         -10.0909    6.3828    0.7016 H       1  LIG1        0.0278
@<TRIPOS>BOND
     1    42    40    1
     2    39    36    1
     3    43    40    1
     4    40    41    1
     5    40    32    1
     6    38    36    1
     7    36    31    1
     8    36    37    1
     9    10     8    1
    10     7     1    1
    11    49    48    1
    12    11     8    1
    13    21    20    1
    14    32    31   ar
    15    32    33   ar
    16     1     5   ar
    17     1     2   ar
    18     6     5    1
    19    31    30   ar
    20     5     4   ar
    21     8     2    1
    22     8     9    1
    23    48    47   ar
    24    48    44   ar
    25     2     3   ar
    26    50    47    1
    27    14    12    1
    28    33    44    1
    29    33    34   ar
    30    20    19   ar
    31    20    16   ar
    32    47    46   ar
    33    30    34   ar
    34    30    19    1
    35     4     3   ar
    36     4    16    1
    37    44    45   ar
    38     3    12    1
    39    34    35    1
    40    19    18   ar
    41    16    17   ar
    42    46    45   ar
    43    46    55    1
    44    12    13    1
    45    12    15    1
    46    57    55    1
    47    45    51    1
    48    53    51    1
    49    58    55    1
    50    18    17   ar
    51    18    26    1
    52    17    22    1
    53    28    26    1
    54    55    56    1
    55    24    22    1
    56    51    52    1
    57    51    54    1
    58    26    29    1
    59    26    27    1
    60    22    23    1
    61    22    25    1
