@<TRIPOS>MOLECULE
mol_data/opt/cam/geoms/mol2/13ii13ii-4ii13ii.out
 60 63 0 0 0
SMALL
GASTEIGER

@<TRIPOS>ATOM
      1 C           1.1459   -0.8077   -1.3463 C.ar    1  LIG1        0.0054
      2 C           1.0454    0.5335   -1.0767 C.ar    1  LIG1       -0.0296
      3 C          -0.2398    0.7506   -0.4920 C.ar    1  LIG1       -0.0209
      4 C          -0.8780   -0.4747   -0.4317 C.ar    1  LIG1        0.0663
      5 N          -0.0152   -1.4129   -0.9503 N.ar    1  LIG1       -0.3590
      6 H          -0.2574   -2.3783   -1.0943 H       1  LIG1        0.1654
      7 H           1.9555   -1.3734   -1.7830 H       1  LIG1        0.0810
      8 C           2.0892    1.5766   -1.3248 C.3     1  LIG1       -0.0380
      9 H           2.3936    2.0746   -0.3976 H       1  LIG1        0.0278
     10 H           1.7298    2.3581   -2.0028 H       1  LIG1        0.0278
     11 H           2.9853    1.1390   -1.7716 H       1  LIG1        0.0278
     12 C          -0.7593    2.0647    0.0037 C.3     1  LIG1       -0.0374
     13 H          -1.6597    1.9336    0.6083 H       1  LIG1        0.0278
     14 H          -1.0032    2.7514   -0.8160 H       1  LIG1        0.0278
     15 H          -0.0164    2.5734    0.6267 H       1  LIG1        0.0278
     16 C          -2.1999   -0.8530    0.0464 C.ar    1  LIG1        0.0668
     17 C          -2.6281   -1.9235    0.8085 C.ar    1  LIG1       -0.0203
     18 C          -4.0444   -1.8133    0.9435 C.ar    1  LIG1       -0.0216
     19 C          -4.4405   -0.6743    0.2689 C.ar    1  LIG1        0.0504
     20 N          -3.3075   -0.0979   -0.2555 N.ar    1  LIG1       -0.3526
     21 H          -3.3033    0.6646   -0.9123 H       1  LIG1        0.1660
     22 C          -1.7743   -2.9797    1.4392 C.3     1  LIG1       -0.0374
     23 H          -0.7135   -2.7301    1.3637 H       1  LIG1        0.0278
     24 H          -1.9222   -3.9637    0.9781 H       1  LIG1        0.0278
     25 H          -2.0087   -3.0952    2.5025 H       1  LIG1        0.0278
     26 C          -4.9110   -2.7404    1.7373 C.3     1  LIG1       -0.0374
     27 H          -4.5197   -2.8787    2.7510 H       1  LIG1        0.0278
     28 H          -4.9698   -3.7360    1.2828 H       1  LIG1        0.0278
     29 H          -5.9288   -2.3557    1.8244 H       1  LIG1        0.0278
     30 C          -6.0719    1.2492    0.3589 C.ar    1  LIG1       -0.0407
     31 C          -7.3644    1.7059    0.1238 C.ar    1  LIG1       -0.0488
     32 C          -5.7777   -0.0933    0.0618 C.ar    1  LIG1        0.0018
     33 C          -8.3850    0.8906   -0.3720 C.ar    1  LIG1        0.0017
     34 H          -7.5986    2.7449    0.3354 H       1  LIG1        0.0627
     35 C          -6.7987   -0.9095   -0.4320 C.ar    1  LIG1       -0.0488
     36 C          -8.0966   -0.4578   -0.6466 C.ar    1  LIG1       -0.0407
     37 H          -6.5615   -1.9453   -0.6556 H       1  LIG1        0.0627
     38 C          -5.0459    2.1892    0.9400 C.3     1  LIG1       -0.0391
     39 H          -5.5349    3.0360    1.4263 H       1  LIG1        0.0278
     40 H          -4.3781    2.6019    0.1758 H       1  LIG1        0.0278
     41 H          -4.4168    1.6842    1.6767 H       1  LIG1        0.0278
     42 C          -9.1458   -1.4211   -1.1424 C.3     1  LIG1       -0.0391
     43 H          -8.8486   -2.4513   -0.9343 H       1  LIG1        0.0278
     44 H          -9.3004   -1.3475   -2.2249 H       1  LIG1        0.0278
     45 H         -10.1116   -1.2367   -0.6671 H       1  LIG1        0.0278
     46 C          -9.7263    1.4683   -0.5675 C.ar    1  LIG1        0.0499
     47 C         -10.5337    2.1900    0.2905 C.ar    1  LIG1       -0.0223
     48 C         -11.7240    2.5292   -0.4243 C.ar    1  LIG1       -0.0297
     49 C         -11.5989    2.0084   -1.6865 C.ar    1  LIG1        0.0053
     50 N         -10.3980    1.3576   -1.7642 N.ar    1  LIG1       -0.3602
     51 H         -10.0083    0.9504   -2.5968 H       1  LIG1        0.1654
     52 H         -12.2727    2.0493   -2.5295 H       1  LIG1        0.0810
     53 C         -10.2612    2.5278    1.7234 C.3     1  LIG1       -0.0375
     54 H         -11.0946    2.2261    2.3669 H       1  LIG1        0.0278
     55 H         -10.1224    3.6051    1.8704 H       1  LIG1        0.0278
     56 H          -9.3625    2.0262    2.0874 H       1  LIG1        0.0278
     57 C         -12.8884    3.2969    0.1174 C.3     1  LIG1       -0.0380
     58 H         -13.6676    3.4185   -0.6391 H       1  LIG1        0.0278
     59 H         -12.5940    4.2972    0.4527 H       1  LIG1        0.0278
     60 H         -13.3413    2.7935    0.9788 H       1  LIG1        0.0278
@<TRIPOS>BOND
     1    51    50    1
     2    52    49    1
     3    44    42    1
     4    10     8    1
     5     7     1    1
     6    11     8    1
     7    50    49   ar
     8    50    46   ar
     9    49    48   ar
    10     1     2   ar
    11     1     5   ar
    12     8     2    1
    13     8     9    1
    14    42    43    1
    15    42    45    1
    16    42    36    1
    17     6     5    1
    18     2     3   ar
    19     5     4   ar
    20    21    20    1
    21    14    12    1
    22    37    35    1
    23    36    35   ar
    24    36    33   ar
    25    58    57    1
    26    46    33    1
    27    46    47   ar
    28     3     4   ar
    29     3    12    1
    30    35    32   ar
    31     4    16    1
    32    48    57    1
    33    48    47   ar
    34    33    31   ar
    35    20    16   ar
    36    20    19   ar
    37    12    13    1
    38    12    15    1
    39    16    17   ar
    40    32    19    1
    41    32    30   ar
    42    57    59    1
    43    57    60    1
    44    31    34    1
    45    31    30   ar
    46    40    38    1
    47    19    18   ar
    48    47    53    1
    49    30    38    1
    50    17    18   ar
    51    17    22    1
    52    38    39    1
    53    38    41    1
    54    18    26    1
    55    24    22    1
    56    28    26    1
    57    23    22    1
    58    22    25    1
    59    53    55    1
    60    53    56    1
    61    53    54    1
    62    26    29    1
    63    26    27    1
