@<TRIPOS>MOLECULE
mol_data/opt/cam/geoms/mol2/13ii13ii13ii13ii-.out
 58 61 0 0 0
SMALL
GASTEIGER

@<TRIPOS>ATOM
      1 C           0.0876    0.7906   -2.6590 C.ar    1  LIG1        0.0054
      2 C           0.5421    1.2979   -1.4690 C.ar    1  LIG1       -0.0296
      3 C          -0.3689    0.8705   -0.4533 C.ar    1  LIG1       -0.0209
      4 C          -1.3512    0.1215   -1.0682 C.ar    1  LIG1        0.0663
      5 N          -1.0479    0.0658   -2.4133 N.ar    1  LIG1       -0.3590
      6 H          -1.6696   -0.3002   -3.1148 H       1  LIG1        0.1654
      7 H           0.4897    0.8860   -3.6569 H       1  LIG1        0.0810
      8 C           1.7720    2.1237   -1.2587 C.3     1  LIG1       -0.0380
      9 H           2.4772    1.6353   -0.5773 H       1  LIG1        0.0278
     10 H           1.5344    3.1005   -0.8240 H       1  LIG1        0.0278
     11 H           2.2950    2.3006   -2.2019 H       1  LIG1        0.0278
     12 C          -0.2413    1.1430    1.0121 C.3     1  LIG1       -0.0374
     13 H          -0.9615    0.5518    1.5818 H       1  LIG1        0.0278
     14 H          -0.4158    2.1981    1.2512 H       1  LIG1        0.0278
     15 H           0.7611    0.8955    1.3773 H       1  LIG1        0.0278
     16 C          -2.5164   -0.5703   -0.5311 C.ar    1  LIG1        0.0668
     17 C          -3.5733   -0.1228    0.2364 C.ar    1  LIG1       -0.0202
     18 C          -4.4431   -1.2314    0.4593 C.ar    1  LIG1       -0.0202
     19 C          -3.9025   -2.3225   -0.1920 C.ar    1  LIG1        0.0668
     20 N          -2.7317   -1.9061   -0.7860 N.ar    1  LIG1       -0.3514
     21 H          -2.1181   -2.4935   -1.3261 H       1  LIG1        0.1660
     22 C          -3.7903    1.2746    0.7247 C.3     1  LIG1       -0.0374
     23 H          -3.6725    1.3545    1.8114 H       1  LIG1        0.0278
     24 H          -4.7998    1.6256    0.4873 H       1  LIG1        0.0278
     25 H          -3.0775    1.9618    0.2639 H       1  LIG1        0.0278
     26 C          -5.6944   -1.2126    1.2789 C.3     1  LIG1       -0.0374
     27 H          -6.0735   -2.2251    1.4328 H       1  LIG1        0.0278
     28 H          -6.4904   -0.6287    0.8029 H       1  LIG1        0.0278
     29 H          -5.5172   -0.7659    2.2627 H       1  LIG1        0.0278
     30 C          -4.3487   -3.7066   -0.2892 C.ar    1  LIG1        0.0668
     31 C          -5.5424   -4.2550   -0.7141 C.ar    1  LIG1       -0.0202
     32 C          -5.4272   -5.6723   -0.6067 C.ar    1  LIG1       -0.0202
     33 C          -4.1591   -5.9521   -0.1315 C.ar    1  LIG1        0.0668
     34 N          -3.5166   -4.7505    0.0484 N.ar    1  LIG1       -0.3514
     35 H          -2.5949   -4.6513    0.4406 H       1  LIG1        0.1660
     36 C          -6.7337   -3.5088   -1.2261 C.3     1  LIG1       -0.0374
     37 H          -7.0684   -3.9058   -2.1903 H       1  LIG1        0.0278
     38 H          -6.5004   -2.4505   -1.3605 H       1  LIG1        0.0278
     39 H          -7.5868   -3.5753   -0.5412 H       1  LIG1        0.0278
     40 C          -6.5073   -6.6580   -0.9296 C.3     1  LIG1       -0.0374
     41 H          -6.2531   -7.6578   -0.5702 H       1  LIG1        0.0278
     42 H          -6.6988   -6.7271   -2.0075 H       1  LIG1        0.0278
     43 H          -7.4545   -6.3716   -0.4616 H       1  LIG1        0.0278
     44 C          -3.4949   -7.2150    0.1617 C.ar    1  LIG1        0.0663
     45 C          -2.7188   -7.6148    1.2337 C.ar    1  LIG1       -0.0209
     46 C          -2.3116   -8.9617    0.9869 C.ar    1  LIG1       -0.0296
     47 C          -2.8547   -9.3341   -0.2165 C.ar    1  LIG1        0.0054
     48 N          -3.5722   -8.2784   -0.7083 N.ar    1  LIG1       -0.3590
     49 H          -4.0211   -8.2369   -1.6072 H       1  LIG1        0.1654
     50 H          -2.7888  -10.2692   -0.7527 H       1  LIG1        0.0810
     51 C          -2.3942   -6.8185    2.4599 C.3     1  LIG1       -0.0374
     52 H          -3.0051   -5.9148    2.5217 H       1  LIG1        0.0278
     53 H          -1.3408   -6.5149    2.4924 H       1  LIG1        0.0278
     54 H          -2.5798   -7.4000    3.3687 H       1  LIG1        0.0278
     55 C          -1.4690   -9.8082    1.8883 C.3     1  LIG1       -0.0380
     56 H          -1.9263   -9.9277    2.8766 H       1  LIG1        0.0278
     57 H          -0.4772   -9.3711    2.0470 H       1  LIG1        0.0278
     58 H          -1.3257  -10.8074    1.4699 H       1  LIG1        0.0278
@<TRIPOS>BOND
     1     7     1    1
     2     6     5    1
     3     1     5   ar
     4     1     2   ar
     5     5     4   ar
     6    11     8    1
     7    37    36    1
     8    42    40    1
     9    49    48    1
    10     2     8    1
    11     2     3   ar
    12    38    36    1
    13    21    20    1
    14     8    10    1
    15     8     9    1
    16    36    31    1
    17    36    39    1
    18     4    16    1
    19     4     3   ar
    20    40    32    1
    21    40    41    1
    22    40    43    1
    23    20    16   ar
    24    20    19   ar
    25    50    47    1
    26    31    32   ar
    27    31    30   ar
    28    48    47   ar
    29    48    44   ar
    30    32    33   ar
    31    16    17   ar
    32     3    12    1
    33    30    19    1
    34    30    34   ar
    35    47    46   ar
    36    19    18   ar
    37    33    34   ar
    38    33    44    1
    39    34    35    1
    40    44    45   ar
    41    17    18   ar
    42    17    22    1
    43    25    22    1
    44    18    26    1
    45    24    22    1
    46    22    23    1
    47    28    26    1
    48    46    45   ar
    49    46    55    1
    50    12    14    1
    51    12    15    1
    52    12    13    1
    53    45    51    1
    54    26    27    1
    55    26    29    1
    56    58    55    1
    57    55    57    1
    58    55    56    1
    59    51    53    1
    60    51    52    1
    61    51    54    1
