@<TRIPOS>MOLECULE
mol_data/opt/cam/geoms/mol2/13ii13ii13ii.out
 44 46 0 0 0
SMALL
GASTEIGER

@<TRIPOS>ATOM
      1 C           1.1511   -0.0582    0.6990 C.ar    1  LIG1        0.0054
      2 C           0.8382    0.9492   -0.1770 C.ar    1  LIG1       -0.0296
      3 C          -0.5664    0.8670   -0.4308 C.ar    1  LIG1       -0.0209
      4 C          -1.0586   -0.1877    0.3116 C.ar    1  LIG1        0.0663
      5 N           0.0062   -0.7545    0.9809 N.ar    1  LIG1       -0.3590
      6 H          -0.0895   -1.4614    1.6902 H       1  LIG1        0.1654
      7 H           2.0999   -0.3338    1.1351 H       1  LIG1        0.0810
      8 C           1.7866    1.9370   -0.7800 C.3     1  LIG1       -0.0380
      9 H           1.5112    2.9673   -0.5308 H       1  LIG1        0.0278
     10 H           1.8037    1.8678   -1.8733 H       1  LIG1        0.0278
     11 H           2.8067    1.7726   -0.4243 H       1  LIG1        0.0278
     12 C          -1.3388    1.7319   -1.3762 C.3     1  LIG1       -0.0374
     13 H          -1.4671    2.7509   -0.9936 H       1  LIG1        0.0278
     14 H          -2.3340    1.3201   -1.5567 H       1  LIG1        0.0278
     15 H          -0.8294    1.8165   -2.3419 H       1  LIG1        0.0278
     16 C          -2.3996   -0.7417    0.4349 C.ar    1  LIG1        0.0668
     17 C          -3.6123   -0.1499    0.7177 C.ar    1  LIG1       -0.0202
     18 C          -4.6040   -1.1796    0.7178 C.ar    1  LIG1       -0.0202
     19 C          -3.9671   -2.3693    0.4351 C.ar    1  LIG1        0.0668
     20 N          -2.6202   -2.0979    0.2978 N.ar    1  LIG1       -0.3514
     21 H          -1.9719   -2.7223   -0.1553 H       1  LIG1        0.1660
     22 C          -3.8454    1.2902    1.0483 C.3     1  LIG1       -0.0374
     23 H          -4.4270    1.3966    1.9701 H       1  LIG1        0.0278
     24 H          -4.4018    1.8090    0.2597 H       1  LIG1        0.0278
     25 H          -2.8980    1.8153    1.1860 H       1  LIG1        0.0278
     26 C          -6.0518   -1.0006    1.0486 C.3     1  LIG1       -0.0374
     27 H          -6.5409   -1.9671    1.1865 H       1  LIG1        0.0278
     28 H          -6.5912   -0.4643    0.2600 H       1  LIG1        0.0278
     29 H          -6.1799   -0.4234    1.9704 H       1  LIG1        0.0278
     30 C          -4.4704   -3.7302    0.3121 C.ar    1  LIG1        0.0663
     31 C          -5.5060   -4.2617   -0.4300 C.ar    1  LIG1       -0.0209
     32 C          -5.5353   -5.6684   -0.1761 C.ar    1  LIG1       -0.0296
     33 C          -4.5168   -5.9430    0.6998 C.ar    1  LIG1        0.0054
     34 N          -3.8639   -4.7728    0.9814 N.ar    1  LIG1       -0.3590
     35 H          -3.1610   -4.6505    1.6906 H       1  LIG1        0.1654
     36 H          -4.2056   -6.8808    1.1360 H       1  LIG1        0.0810
     37 C          -6.3995   -3.5225   -1.3754 C.3     1  LIG1       -0.0374
     38 H          -6.4650   -4.0348   -2.3410 H       1  LIG1        0.0278
     39 H          -6.0254   -2.5125   -1.5561 H       1  LIG1        0.0278
     40 H          -7.4225   -3.4325   -0.9926 H       1  LIG1        0.0278
     41 C          -6.4869   -6.6532   -0.7788 C.3     1  LIG1       -0.0380
     42 H          -6.2843   -7.6664   -0.4230 H       1  LIG1        0.0278
     43 H          -6.4173   -6.6679   -1.8721 H       1  LIG1        0.0278
     44 H          -7.5268   -6.4167   -0.5294 H       1  LIG1        0.0278
@<TRIPOS>BOND
     1    15    12    1
     2    38    37    1
     3    10     8    1
     4    43    41    1
     5    14    12    1
     6    39    37    1
     7    12    13    1
     8    12     3    1
     9    37    40    1
    10    37    31    1
    11     8     9    1
    12     8    11    1
    13     8     2    1
    14    41    44    1
    15    41    42    1
    16    41    32    1
    17     3     2   ar
    18     3     4   ar
    19    31    32   ar
    20    31    30   ar
    21     2     1   ar
    22    32    33   ar
    23    21    20    1
    24    24    22    1
    25    28    26    1
    26    20    16   ar
    27    20    19   ar
    28     4    16    1
    29     4     5   ar
    30    30    19    1
    31    30    34   ar
    32    16    17   ar
    33    19    18   ar
    34     1     5   ar
    35     1     7    1
    36    33    34   ar
    37    33    36    1
    38    17    18   ar
    39    17    22    1
    40    18    26    1
    41     5     6    1
    42    34    35    1
    43    22    25    1
    44    22    23    1
    45    26    27    1
    46    26    29    1
