@<TRIPOS>MOLECULE
mol_data/opt/cam/geoms/mol2/13ii13ii13ii-13ii.out
 58 61 0 0 0
SMALL
GASTEIGER

@<TRIPOS>ATOM
      1 C           1.2601   -0.0153    0.2061 C.ar    1  LIG1        0.0054
      2 C           0.8601    0.9765   -0.6521 C.ar    1  LIG1       -0.0296
      3 C          -0.5631    0.8938   -0.7587 C.ar    1  LIG1       -0.0209
      4 C          -0.9773   -0.1455    0.0500 C.ar    1  LIG1        0.0663
      5 N           0.1498   -0.7026    0.6176 N.ar    1  LIG1       -0.3590
      6 H           0.1269   -1.3967    1.3456 H       1  LIG1        0.1654
      7 H           2.2484   -0.2855    0.5478 H       1  LIG1        0.0810
      8 C           1.7426    1.9509   -1.3668 C.3     1  LIG1       -0.0380
      9 H           1.4935    2.9863   -1.1106 H       1  LIG1        0.0278
     10 H           1.6496    1.8612   -2.4547 H       1  LIG1        0.0278
     11 H           2.7934    1.7916   -1.1127 H       1  LIG1        0.0278
     12 C          -1.4278    1.7437   -1.6353 C.3     1  LIG1       -0.0374
     13 H          -1.5097    2.7715   -1.2638 H       1  LIG1        0.0278
     14 H          -2.4386    1.3350   -1.6996 H       1  LIG1        0.0278
     15 H          -1.0242    1.8042   -2.6515 H       1  LIG1        0.0278
     16 C          -2.2987   -0.6928    0.3226 C.ar    1  LIG1        0.0668
     17 C          -3.4738   -0.0947    0.7289 C.ar    1  LIG1       -0.0202
     18 C          -4.4561   -1.1225    0.8621 C.ar    1  LIG1       -0.0202
     19 C          -3.8494   -2.3212    0.5372 C.ar    1  LIG1        0.0668
     20 N          -2.5357   -2.0478    0.2318 N.ar    1  LIG1       -0.3514
     21 H          -1.9194   -2.6999   -0.2252 H       1  LIG1        0.1660
     22 C          -3.6697    1.3528    1.0514 C.3     1  LIG1       -0.0374
     23 H          -4.1476    1.4809    2.0285 H       1  LIG1        0.0278
     24 H          -4.3069    1.8575    0.3166 H       1  LIG1        0.0278
     25 H          -2.7123    1.8772    1.0751 H       1  LIG1        0.0278
     26 C          -5.8614   -0.9231    1.3389 C.3     1  LIG1       -0.0374
     27 H          -6.3316   -1.8739    1.5993 H       1  LIG1        0.0278
     28 H          -6.4897   -0.4330    0.5856 H       1  LIG1        0.0278
     29 H          -5.8895   -0.2880    2.2302 H       1  LIG1        0.0278
     30 C          -4.3667   -3.6792    0.4730 C.ar    1  LIG1        0.0668
     31 C          -3.8149   -4.8894    0.8529 C.ar    1  LIG1       -0.0202
     32 C          -4.7610   -5.9093    0.5385 C.ar    1  LIG1       -0.0202
     33 C          -5.8634   -5.2939   -0.0255 C.ar    1  LIG1        0.0668
     34 N          -5.6107   -3.9435   -0.0475 N.ar    1  LIG1       -0.3514
     35 H          -6.1832   -3.2669   -0.5244 H       1  LIG1        0.1660
     36 C          -2.4992   -5.1054    1.5342 C.3     1  LIG1       -0.0374
     37 H          -2.0681   -4.1594    1.8690 H       1  LIG1        0.0278
     38 H          -1.7675   -5.5953    0.8802 H       1  LIG1        0.0278
     39 H          -2.6098   -5.7462    2.4151 H       1  LIG1        0.0278
     40 C          -4.5996   -7.3679    0.8359 C.3     1  LIG1       -0.0374
     41 H          -4.2765   -7.5284    1.8698 H       1  LIG1        0.0278
     42 H          -3.8462   -7.8420    0.1954 H       1  LIG1        0.0278
     43 H          -5.5407   -7.9056    0.7008 H       1  LIG1        0.0278
     44 C          -7.1092   -5.8365   -0.5479 C.ar    1  LIG1        0.0663
     45 C          -8.4201   -5.4183   -0.4125 C.ar    1  LIG1       -0.0209
     46 C          -9.2352   -6.3219   -1.1609 C.ar    1  LIG1       -0.0296
     47 C          -8.3984   -7.2550   -1.7183 C.ar    1  LIG1        0.0054
     48 N          -7.1167   -6.9614   -1.3409 N.ar    1  LIG1       -0.3590
     49 H          -6.2853   -7.4268   -1.6629 H       1  LIG1        0.1654
     50 H          -8.6199   -8.1044   -2.3472 H       1  LIG1        0.0810
     51 C          -8.9212   -4.2661    0.4022 C.3     1  LIG1       -0.0374
     52 H          -9.7700   -4.5642    1.0262 H       1  LIG1        0.0278
     53 H          -9.2683   -3.4343   -0.2225 H       1  LIG1        0.0278
     54 H          -8.1447   -3.8817    1.0675 H       1  LIG1        0.0278
     55 C         -10.7251   -6.2661   -1.2887 C.3     1  LIG1       -0.0380
     56 H         -11.0989   -7.0872   -1.9052 H       1  LIG1        0.0278
     57 H         -11.0589   -5.3294   -1.7479 H       1  LIG1        0.0278
     58 H         -11.2187   -6.3360   -0.3131 H       1  LIG1        0.0278
@<TRIPOS>BOND
     1    15    12    1
     2    10     8    1
     3    50    47    1
     4    56    55    1
     5    57    55    1
     6    47    48   ar
     7    47    46   ar
     8    14    12    1
     9    49    48    1
    10    12    13    1
    11    12     3    1
    12     8    11    1
    13     8     9    1
    14     8     2    1
    15    48    44   ar
    16    55    46    1
    17    55    58    1
    18    46    45   ar
    19     3     2   ar
    20     3     4   ar
    21     2     1   ar
    22    44    45   ar
    23    44    33    1
    24    35    34    1
    25    45    51    1
    26    21    20    1
    27    53    51    1
    28    34    33   ar
    29    34    30   ar
    30    33    32   ar
    31     4    16    1
    32     4     5   ar
    33    42    40    1
    34     1     7    1
    35     1     5   ar
    36    20    16   ar
    37    20    19   ar
    38    24    22    1
    39    16    17   ar
    40    51    52    1
    41    51    54    1
    42    30    19    1
    43    30    31   ar
    44    19    18   ar
    45    32    40    1
    46    32    31   ar
    47    28    26    1
    48     5     6    1
    49    43    40    1
    50    17    18   ar
    51    17    22    1
    52    40    41    1
    53    31    36    1
    54    18    26    1
    55    38    36    1
    56    22    25    1
    57    22    23    1
    58    26    27    1
    59    26    29    1
    60    36    37    1
    61    36    39    1
