@<TRIPOS>MOLECULE
mol_data/opt/cam/geoms/mol2/13ii13ii13ii13ii.out
 58 61 0 0 0
SMALL
GASTEIGER

@<TRIPOS>ATOM
      1 C           1.2230   -0.1671   -0.1371 C.ar    1  LIG1        0.0054
      2 C           0.7826    0.9437   -0.8097 C.ar    1  LIG1       -0.0296
      3 C          -0.6464    0.9155   -0.7813 C.ar    1  LIG1       -0.0209
      4 C          -1.0227   -0.2132   -0.0811 C.ar    1  LIG1        0.0663
      5 N           0.1303   -0.8737    0.2892 N.ar    1  LIG1       -0.3590
      6 H           0.1498   -1.6614    0.9145 H       1  LIG1        0.1654
      7 H           2.2278   -0.5088    0.0630 H       1  LIG1        0.0810
      8 C           1.6307    1.9819   -1.4744 C.3     1  LIG1       -0.0380
      9 H           1.4553    2.9781   -1.0544 H       1  LIG1        0.0278
     10 H           1.4237    2.0483   -2.5482 H       1  LIG1        0.0278
     11 H           2.6938    1.7570   -1.3580 H       1  LIG1        0.0278
     12 C          -1.5563    1.9001   -1.4456 C.3     1  LIG1       -0.0374
     13 H          -2.5837    1.5307   -1.4639 H       1  LIG1        0.0278
     14 H          -1.2483    2.0890   -2.4793 H       1  LIG1        0.0278
     15 H          -1.5620    2.8688   -0.9330 H       1  LIG1        0.0278
     16 C          -2.3338   -0.7564    0.2450 C.ar    1  LIG1        0.0668
     17 C          -3.4437   -0.1818    0.8269 C.ar    1  LIG1       -0.0202
     18 C          -4.4571   -1.1873    0.9058 C.ar    1  LIG1       -0.0202
     19 C          -3.9353   -2.3456    0.3708 C.ar    1  LIG1        0.0668
     20 N          -2.6301   -2.0830    0.0025 N.ar    1  LIG1       -0.3514
     21 H          -2.1092   -2.6567   -0.6420 H       1  LIG1        0.1660
     22 C          -3.5507    1.2128    1.3570 C.3     1  LIG1       -0.0374
     23 H          -3.9401    1.2197    2.3806 H       1  LIG1        0.0278
     24 H          -4.2261    1.8313    0.7556 H       1  LIG1        0.0278
     25 H          -2.5739    1.7008    1.3659 H       1  LIG1        0.0278
     26 C          -5.8061   -1.0235    1.5311 C.3     1  LIG1       -0.0374
     27 H          -6.3046   -1.9890    1.6384 H       1  LIG1        0.0278
     28 H          -6.4595   -0.3763    0.9356 H       1  LIG1        0.0278
     29 H          -5.7312   -0.5704    2.5254 H       1  LIG1        0.0278
     30 C          -4.5075   -3.6737    0.1973 C.ar    1  LIG1        0.0668
     31 C          -5.6767   -4.0972   -0.4041 C.ar    1  LIG1       -0.0202
     32 C          -5.7183   -5.5201   -0.3085 C.ar    1  LIG1       -0.0202
     33 C          -4.5662   -5.9286    0.3337 C.ar    1  LIG1        0.0668
     34 N          -3.8433   -4.7966    0.6370 N.ar    1  LIG1       -0.3514
     35 H          -2.9531   -4.7913    1.1064 H       1  LIG1        0.1660
     36 C          -6.7016   -3.2335   -1.0689 C.3     1  LIG1       -0.0374
     37 H          -7.6353   -3.1852   -0.4969 H       1  LIG1        0.0278
     38 H          -6.9566   -3.6159   -2.0626 H       1  LIG1        0.0278
     39 H          -6.3331   -2.2121   -1.1857 H       1  LIG1        0.0278
     40 C          -6.8262   -6.3998   -0.7951 C.3     1  LIG1       -0.0374
     41 H          -6.6843   -7.4276   -0.4545 H       1  LIG1        0.0278
     42 H          -6.8863   -6.4182   -1.8892 H       1  LIG1        0.0278
     43 H          -7.7984   -6.0540   -0.4289 H       1  LIG1        0.0278
     44 C          -4.0884   -7.2518    0.7157 C.ar    1  LIG1        0.0663
     45 C          -3.8697   -8.3951   -0.0251 C.ar    1  LIG1       -0.0209
     46 C          -3.3800   -9.3974    0.8692 C.ar    1  LIG1       -0.0296
     47 C          -3.3121   -8.8292    2.1152 C.ar    1  LIG1        0.0054
     48 N          -3.7244   -7.5270    2.0184 N.ar    1  LIG1       -0.3590
     49 H          -3.9141   -6.9158    2.7949 H       1  LIG1        0.1654
     50 H          -2.9969   -9.2514    3.0580 H       1  LIG1        0.0810
     51 C          -4.0559   -8.5505   -1.5013 C.3     1  LIG1       -0.0374
     52 H          -4.8806   -9.2307   -1.7422 H       1  LIG1        0.0278
     53 H          -3.1575   -8.9600   -1.9753 H       1  LIG1        0.0278
     54 H          -4.2740   -7.5881   -1.9691 H       1  LIG1        0.0278
     55 C          -2.9943  -10.7952    0.4997 C.3     1  LIG1       -0.0380
     56 H          -2.6452  -11.3524    1.3725 H       1  LIG1        0.0278
     57 H          -2.1909  -10.8112   -0.2449 H       1  LIG1        0.0278
     58 H          -3.8371  -11.3472    0.0701 H       1  LIG1        0.0278
@<TRIPOS>BOND
     1    10     8    1
     2    14    12    1
     3    38    36    1
     4    53    51    1
     5    54    51    1
     6    42    40    1
     7    52    51    1
     8    51    45    1
     9     8    11    1
    10     8     9    1
    11     8     2    1
    12    13    12    1
    13    12    15    1
    14    12     3    1
    15    39    36    1
    16    36    37    1
    17    36    31    1
    18     2     3   ar
    19     2     1   ar
    20    40    41    1
    21    40    43    1
    22    40    32    1
    23     3     4   ar
    24    21    20    1
    25    31    32   ar
    26    31    30   ar
    27    32    33   ar
    28    57    55    1
    29     1     7    1
    30     1     5   ar
    31     4    16    1
    32     4     5   ar
    33    45    44   ar
    34    45    46   ar
    35    20    16   ar
    36    20    19   ar
    37    58    55    1
    38    30    19    1
    39    30    34   ar
    40    16    17   ar
    41     5     6    1
    42    33    34   ar
    43    33    44    1
    44    19    18   ar
    45    55    46    1
    46    55    56    1
    47    34    35    1
    48    44    48   ar
    49    24    22    1
    50    17    18   ar
    51    17    22    1
    52    46    47   ar
    53    18    26    1
    54    28    26    1
    55    22    25    1
    56    22    23    1
    57    26    27    1
    58    26    29    1
    59    48    47   ar
    60    48    49    1
    61    47    50    1
