@<TRIPOS>MOLECULE
mol_data/opt/cam/geoms/mol2/13il13il-13il-13il-.out
 62 65 0 0 0
SMALL
GASTEIGER

@<TRIPOS>ATOM
      1 C           1.1362   -0.1010    0.7568 C.ar    1  LIG1        0.0087
      2 C           0.7133    1.1736    0.4670 C.ar    1  LIG1        0.0092
      3 C          -0.6944    1.0795    0.2947 C.ar    1  LIG1        0.1495
      4 C          -1.0916   -0.2309    0.4799 C.ar    1  LIG1        0.1057
      5 N           0.0505   -0.9375    0.7659 N.ar    1  LIG1       -0.3563
      6 H           0.0823   -1.9322    0.9076 H       1  LIG1        0.1655
      7 H           2.1303   -0.4745    0.9503 H       1  LIG1        0.0811
      8 C           1.5483    2.4077    0.3369 C.3     1  LIG1       -0.0348
      9 H           1.4777    3.0522    1.2203 H       1  LIG1        0.0279
     10 H           1.2306    3.0025   -0.5241 H       1  LIG1        0.0279
     11 H           2.6028    2.1565    0.2011 H       1  LIG1        0.0279
     12 O          -1.5511    2.1014   -0.0558 O.3     1  LIG1       -0.4927
     13 C          -1.8671    2.9791    1.0171 C.3     1  LIG1        0.0789
     14 H          -2.5443    3.7374    0.6190 H       1  LIG1        0.0660
     15 H          -2.3569    2.4395    1.8359 H       1  LIG1        0.0660
     16 H          -0.9705    3.4723    1.4061 H       1  LIG1        0.0660
     17 C          -2.4076   -0.8169    0.3708 C.ar    1  LIG1        0.0735
     18 C          -2.8866   -2.0915    0.6221 C.ar    1  LIG1        0.0187
     19 C          -4.2690   -2.0636    0.3004 C.ar    1  LIG1        0.1502
     20 C          -4.6092   -0.7968   -0.1396 C.ar    1  LIG1        0.1062
     21 N          -3.4561   -0.0472   -0.0665 N.ar    1  LIG1       -0.3486
     22 H          -3.3127    0.8741   -0.4557 H       1  LIG1        0.1661
     23 C          -2.1506   -3.2879    1.1365 C.3     1  LIG1       -0.0341
     24 H          -1.6316   -3.0840    2.0800 H       1  LIG1        0.0279
     25 H          -1.4121   -3.6654    0.4181 H       1  LIG1        0.0279
     26 H          -2.8586   -4.0994    1.3155 H       1  LIG1        0.0279
     27 O          -5.0996   -3.1441    0.4344 O.3     1  LIG1       -0.4927
     28 C          -6.0623   -3.0175    1.4699 C.3     1  LIG1        0.0789
     29 H          -6.6000   -3.9663    1.5165 H       1  LIG1        0.0660
     30 H          -5.5802   -2.8264    2.4358 H       1  LIG1        0.0660
     31 H          -6.7711   -2.2098    1.2589 H       1  LIG1        0.0660
     32 C          -5.8670   -0.2272   -0.5746 C.ar    1  LIG1        0.0735
     33 C          -6.8882   -0.7589   -1.3423 C.ar    1  LIG1        0.0187
     34 C          -7.8517    0.2749   -1.4751 C.ar    1  LIG1        0.1502
     35 C          -7.4139    1.4057   -0.8142 C.ar    1  LIG1        0.1062
     36 N          -6.1914    1.0804   -0.2795 N.ar    1  LIG1       -0.3486
     37 H          -5.6660    1.6707    0.3429 H       1  LIG1        0.1661
     38 C          -6.9425   -2.1090   -1.9813 C.3     1  LIG1       -0.0341
     39 H          -7.4147   -2.8602   -1.3386 H       1  LIG1        0.0279
     40 H          -5.9385   -2.4747   -2.2046 H       1  LIG1        0.0279
     41 H          -7.5127   -2.0609   -2.9129 H       1  LIG1        0.0279
     42 O          -9.0216    0.2144   -2.2009 O.3     1  LIG1       -0.4927
     43 C         -10.0389   -0.5594   -1.5773 C.3     1  LIG1        0.0789
     44 H         -10.9043   -0.5414   -2.2421 H       1  LIG1        0.0660
     45 H          -9.7182   -1.5964   -1.4356 H       1  LIG1        0.0660
     46 H         -10.3138   -0.1360   -0.6044 H       1  LIG1        0.0660
     47 C          -8.0322    2.7064   -0.6961 C.ar    1  LIG1        0.0730
     48 C          -7.7088    3.8209    0.0608 C.ar    1  LIG1        0.0180
     49 C          -8.6883    4.8012   -0.2513 C.ar    1  LIG1        0.1408
     50 C          -9.5710    4.2779   -1.1682 C.ar    1  LIG1        0.0447
     51 N          -9.1541    2.9937   -1.4242 N.ar    1  LIG1       -0.3561
     52 H          -9.5495    2.3382   -2.0809 H       1  LIG1        0.1655
     53 H         -10.4389    4.6988   -1.6473 H       1  LIG1        0.0844
     54 C          -6.5829    4.0085    1.0289 C.3     1  LIG1       -0.0342
     55 H          -6.5483    3.2147    1.7844 H       1  LIG1        0.0279
     56 H          -6.7081    4.9542    1.5593 H       1  LIG1        0.0279
     57 H          -5.6038    4.0478    0.5340 H       1  LIG1        0.0279
     58 O          -8.6757    6.0332    0.3265 O.3     1  LIG1       -0.4933
     59 C          -9.7183    6.8904   -0.0733 C.3     1  LIG1        0.0789
     60 H          -9.5846    7.8290    0.4651 H       1  LIG1        0.0660
     61 H          -9.6828    7.0839   -1.1533 H       1  LIG1        0.0660
     62 H         -10.7000    6.4663    0.1752 H       1  LIG1        0.0660
@<TRIPOS>BOND
     1    41    38    1
     2    44    43    1
     3    40    38    1
     4    42    43    1
     5    42    34    1
     6    52    51    1
     7    38    33    1
     8    38    39    1
     9    53    50    1
    10    43    45    1
    11    43    46    1
    12    34    33   ar
    13    34    35   ar
    14    51    50   ar
    15    51    47   ar
    16    33    32   ar
    17    50    49   ar
    18    61    59    1
    19    35    47    1
    20    35    36   ar
    21    47    48   ar
    22    32    36   ar
    23    32    20    1
    24    10     8    1
    25    22    21    1
    26    36    37    1
    27    49    48   ar
    28    49    58    1
    29    20    21   ar
    30    20    19   ar
    31    59    62    1
    32    59    58    1
    33    59    60    1
    34    21    17   ar
    35    12     3    1
    36    12    13    1
    37    48    54    1
    38    11     8    1
    39     3     2   ar
    40     3     4   ar
    41    19    27    1
    42    19    18   ar
    43     8     2    1
    44     8     9    1
    45    17     4    1
    46    17    18   ar
    47    25    23    1
    48    27    28    1
    49     2     1   ar
    50     4     5   ar
    51    57    54    1
    52    14    13    1
    53    18    23    1
    54     1     5   ar
    55     1     7    1
    56     5     6    1
    57    13    16    1
    58    13    15    1
    59    54    56    1
    60    54    55    1
    61    23    26    1
    62    23    24    1
    63    31    28    1
    64    28    29    1
    65    28    30    1
