@<TRIPOS>MOLECULE
mol_data/opt/cam/geoms/mol2/13il13il-13il-13il.out
 62 65 0 0 0
SMALL
GASTEIGER

@<TRIPOS>ATOM
      1 C           1.5516   -1.4745    0.8240 C.ar    1  LIG1        0.0087
      2 C           1.0530   -1.2478    2.0836 C.ar    1  LIG1        0.0092
      3 C          -0.2863   -0.8112    1.8924 C.ar    1  LIG1        0.1495
      4 C          -0.5691   -0.7800    0.5400 C.ar    1  LIG1        0.1057
      5 N           0.5750   -1.1948   -0.0965 N.ar    1  LIG1       -0.3563
      6 H           0.6862   -1.2403   -1.0943 H       1  LIG1        0.1655
      7 H           2.5310   -1.8073    0.5152 H       1  LIG1        0.0811
      8 C           1.7637   -1.4040    3.3904 C.3     1  LIG1       -0.0348
      9 H           1.4819   -2.3271    3.9092 H       1  LIG1        0.0279
     10 H           1.5313   -0.5717    4.0606 H       1  LIG1        0.0279
     11 H           2.8467   -1.4286    3.2484 H       1  LIG1        0.0279
     12 O          -1.1742   -0.4234    2.8734 O.3     1  LIG1       -0.4927
     13 C          -1.7424   -1.5094    3.5951 C.3     1  LIG1        0.0789
     14 H          -2.4314   -1.0796    4.3244 H       1  LIG1        0.0660
     15 H          -2.2889   -2.1834    2.9257 H       1  LIG1        0.0660
     16 H          -0.9734   -2.0820    4.1238 H       1  LIG1        0.0660
     17 C          -1.7787   -0.3732   -0.1371 C.ar    1  LIG1        0.0735
     18 C          -2.1624   -0.4095   -1.4687 C.ar    1  LIG1        0.0187
     19 C          -3.4688    0.1373   -1.5077 C.ar    1  LIG1        0.1502
     20 C          -3.8577    0.4974   -0.2295 C.ar    1  LIG1        0.1062
     21 N          -2.8094    0.1705    0.5902 N.ar    1  LIG1       -0.3486
     22 H          -2.7224    0.3669    1.5766 H       1  LIG1        0.1661
     23 C          -1.3882   -0.8919   -2.6550 C.3     1  LIG1       -0.0341
     24 H          -1.1099   -1.9491   -2.5748 H       1  LIG1        0.0279
     25 H          -0.4710   -0.3119   -2.8147 H       1  LIG1        0.0279
     26 H          -1.9883   -0.7756   -3.5598 H       1  LIG1        0.0279
     27 O          -4.2401    0.3059   -2.6371 O.3     1  LIG1       -0.4927
     28 C          -5.0107   -0.8436   -2.9735 C.3     1  LIG1        0.0789
     29 H          -5.5543   -0.6041   -3.8892 H       1  LIG1        0.0660
     30 H          -4.3672   -1.7120   -3.1505 H       1  LIG1        0.0660
     31 H          -5.7229   -1.0862   -2.1771 H       1  LIG1        0.0660
     32 C          -5.0806    1.1223    0.2136 C.ar    1  LIG1        0.0735
     33 C          -5.6274    1.3139    1.4731 C.ar    1  LIG1        0.0187
     34 C          -6.8585    1.9818    1.2593 C.ar    1  LIG1        0.1502
     35 C          -7.0484    2.1821   -0.0960 C.ar    1  LIG1        0.1062
     36 N          -5.9492    1.6462   -0.7138 N.ar    1  LIG1       -0.3486
     37 H          -5.7613    1.6252   -1.7051 H       1  LIG1        0.1661
     38 C          -5.0901    0.8815    2.8007 C.3     1  LIG1       -0.0341
     39 H          -4.7122   -0.1457    2.7694 H       1  LIG1        0.0279
     40 H          -5.8865    0.9140    3.5482 H       1  LIG1        0.0279
     41 H          -4.2770    1.5233    3.1617 H       1  LIG1        0.0279
     42 O          -7.7595    2.3498    2.2361 O.3     1  LIG1       -0.4927
     43 C          -7.4297    3.5803    2.8706 C.3     1  LIG1        0.0789
     44 H          -8.1905    3.7597    3.6326 H       1  LIG1        0.0660
     45 H          -6.4462    3.5271    3.3492 H       1  LIG1        0.0660
     46 H          -7.4289    4.4056    2.1498 H       1  LIG1        0.0660
     47 C          -8.1666    2.7792   -0.7896 C.ar    1  LIG1        0.0730
     48 C          -8.3465    3.1490   -2.1120 C.ar    1  LIG1        0.0180
     49 C          -9.6643    3.6738   -2.1932 C.ar    1  LIG1        0.1408
     50 C         -10.2480    3.6194   -0.9483 C.ar    1  LIG1        0.0447
     51 N          -9.3132    3.0733   -0.1012 N.ar    1  LIG1       -0.3561
     52 H          -9.4284    2.8467    0.8745 H       1  LIG1        0.1655
     53 H         -11.2224    3.9186   -0.6005 H       1  LIG1        0.0844
     54 C          -7.3834    3.0532   -3.2533 C.3     1  LIG1       -0.0342
     55 H          -7.7707    3.6079   -4.1100 H       1  LIG1        0.0279
     56 H          -7.2246    2.0199   -3.5868 H       1  LIG1        0.0279
     57 H          -6.4041    3.4751   -3.0032 H       1  LIG1        0.0279
     58 O         -10.1761    4.1438   -3.3635 O.3     1  LIG1       -0.4933
     59 C         -11.4859    4.6514   -3.2802 C.3     1  LIG1        0.0789
     60 H         -11.7608    4.9925   -4.2786 H       1  LIG1        0.0660
     61 H         -12.1933    3.8776   -2.9543 H       1  LIG1        0.0660
     62 H         -11.5427    5.4954   -2.5801 H       1  LIG1        0.0660
@<TRIPOS>BOND
     1    60    59    1
     2    55    54    1
     3    29    28    1
     4    56    54    1
     5    26    23    1
     6    58    59    1
     7    58    49    1
     8    59    61    1
     9    59    62    1
    10    54    57    1
    11    54    48    1
    12    30    28    1
    13    28    27    1
    14    28    31    1
    15    25    23    1
    16    23    24    1
    17    23    18    1
    18    27    19    1
    19    49    48   ar
    20    49    50   ar
    21    48    47   ar
    22    37    36    1
    23    19    18   ar
    24    19    20   ar
    25    18    17   ar
    26     6     5    1
    27    50    53    1
    28    50    51   ar
    29    47    51   ar
    30    47    35    1
    31    36    35   ar
    32    36    32   ar
    33    20    32    1
    34    20    21   ar
    35    17     4    1
    36    17    21   ar
    37    51    52    1
    38     5     4   ar
    39     5     1   ar
    40    35    34   ar
    41    32    33   ar
    42     7     1    1
    43     4     3   ar
    44    21    22    1
    45     1     2   ar
    46    34    33   ar
    47    34    42    1
    48    33    38    1
    49     3     2   ar
    50     3    12    1
    51     2     8    1
    52    46    43    1
    53    42    43    1
    54    39    38    1
    55    38    41    1
    56    38    40    1
    57    43    45    1
    58    43    44    1
    59    12    13    1
    60    15    13    1
    61    11     8    1
    62     8     9    1
    63     8    10    1
    64    13    16    1
    65    13    14    1
