@<TRIPOS>MOLECULE
mol_data/opt/cam/geoms/mol2/13il13il13il-13il-.out
 62 65 0 0 0
SMALL
GASTEIGER

@<TRIPOS>ATOM
      1 C           1.2858   -0.1612   -0.0182 C.ar    1  LIG1        0.0087
      2 C           0.8713    1.1021   -0.3550 C.ar    1  LIG1        0.0092
      3 C          -0.5559    1.0775   -0.2977 C.ar    1  LIG1        0.1495
      4 C          -0.9674   -0.1903    0.0631 C.ar    1  LIG1        0.1057
      5 N           0.1836   -0.9405    0.2096 N.ar    1  LIG1       -0.3563
      6 H           0.1980   -1.8541    0.6312 H       1  LIG1        0.1655
      7 H           2.2843   -0.5647    0.0592 H       1  LIG1        0.0811
      8 C           1.7402    2.2481   -0.7696 C.3     1  LIG1       -0.0348
      9 H           1.8543    2.9957    0.0229 H       1  LIG1        0.0279
     10 H           1.3240    2.7593   -1.6426 H       1  LIG1        0.0279
     11 H           2.7414    1.8997   -1.0343 H       1  LIG1        0.0279
     12 O          -1.4040    2.0922   -0.6516 O.3     1  LIG1       -0.4927
     13 C          -1.3091    3.2585    0.1493 C.3     1  LIG1        0.0789
     14 H          -2.0925    3.9371   -0.1921 H       1  LIG1        0.0660
     15 H          -1.4675    3.0265    1.2087 H       1  LIG1        0.0660
     16 H          -0.3400    3.7550    0.0371 H       1  LIG1        0.0660
     17 C          -2.2712   -0.8115    0.2005 C.ar    1  LIG1        0.0735
     18 C          -3.4737   -0.3585    0.7079 C.ar    1  LIG1        0.0187
     19 C          -4.3752   -1.4501    0.6096 C.ar    1  LIG1        0.1502
     20 C          -3.7300   -2.5380    0.0556 C.ar    1  LIG1        0.1062
     21 N          -2.4343   -2.1356   -0.1670 N.ar    1  LIG1       -0.3486
     22 H          -1.7952   -2.6206   -0.7752 H       1  LIG1        0.1661
     23 C          -3.7995    0.9926    1.2569 C.3     1  LIG1       -0.0341
     24 H          -4.8434    1.0260    1.5760 H       1  LIG1        0.0279
     25 H          -3.6519    1.7650    0.4998 H       1  LIG1        0.0279
     26 H          -3.1705    1.2484    2.1164 H       1  LIG1        0.0279
     27 O          -5.6975   -1.4479    0.9955 O.3     1  LIG1       -0.4927
     28 C          -5.8853   -1.7049    2.3830 C.3     1  LIG1        0.0789
     29 H          -6.9597   -1.6640    2.5705 H       1  LIG1        0.0660
     30 H          -5.5029   -2.6956    2.6541 H       1  LIG1        0.0660
     31 H          -5.3817   -0.9506    2.9966 H       1  LIG1        0.0660
     32 C          -4.2477   -3.8414   -0.2818 C.ar    1  LIG1        0.0735
     33 C          -3.6335   -5.0046   -0.7209 C.ar    1  LIG1        0.0187
     34 C          -4.6757   -5.9487   -0.8922 C.ar    1  LIG1        0.1502
     35 C          -5.8867   -5.3655   -0.5656 C.ar    1  LIG1        0.1062
     36 N          -5.5980   -4.0797   -0.1914 N.ar    1  LIG1       -0.3486
     37 H          -6.2597   -3.3528    0.0389 H       1  LIG1        0.1661
     38 C          -2.1828   -5.2519   -0.9911 C.3     1  LIG1       -0.0341
     39 H          -1.5524   -5.0258   -0.1240 H       1  LIG1        0.0279
     40 H          -1.8111   -4.6637   -1.8395 H       1  LIG1        0.0279
     41 H          -2.0278   -6.3006   -1.2529 H       1  LIG1        0.0279
     42 O          -4.5218   -7.2486   -1.3255 O.3     1  LIG1       -0.4927
     43 C          -4.2718   -8.1680   -0.2678 C.3     1  LIG1        0.0789
     44 H          -4.1264   -9.1483   -0.7257 H       1  LIG1        0.0660
     45 H          -3.3703   -7.8921    0.2897 H       1  LIG1        0.0660
     46 H          -5.1190   -8.2090    0.4257 H       1  LIG1        0.0660
     47 C          -7.2186   -5.9233   -0.6181 C.ar    1  LIG1        0.0730
     48 C          -8.4315   -5.4769   -0.1213 C.ar    1  LIG1        0.0180
     49 C          -9.3897   -6.4573   -0.4945 C.ar    1  LIG1        0.1408
     50 C          -8.7582   -7.4614   -1.1918 C.ar    1  LIG1        0.0447
     51 N          -7.4280   -7.1194   -1.2521 N.ar    1  LIG1       -0.3561
     52 H          -6.6922   -7.6107   -1.7354 H       1  LIG1        0.1655
     53 H          -9.1312   -8.3688   -1.6362 H       1  LIG1        0.0844
     54 C          -8.7261   -4.2389    0.6660 C.3     1  LIG1       -0.0342
     55 H          -8.0090   -4.0928    1.4811 H       1  LIG1        0.0279
     56 H          -9.7208   -4.3125    1.1100 H       1  LIG1        0.0279
     57 H          -8.7178   -3.3329    0.0479 H       1  LIG1        0.0279
     58 O         -10.7021   -6.3388   -0.1551 O.3     1  LIG1       -0.4933
     59 C         -11.5253   -7.4003   -0.5749 C.3     1  LIG1        0.0789
     60 H         -12.5357   -7.1760   -0.2320 H       1  LIG1        0.0660
     61 H         -11.5271   -7.4948   -1.6687 H       1  LIG1        0.0660
     62 H         -11.1981   -8.3542   -0.1409 H       1  LIG1        0.0660
@<TRIPOS>BOND
     1    40    38    1
     2    52    51    1
     3    61    59    1
     4    10     8    1
     5    53    50    1
     6    42    34    1
     7    42    43    1
     8    41    38    1
     9    51    50   ar
    10    51    47   ar
    11    50    49   ar
    12    11     8    1
    13    38    33    1
    14    38    39    1
    15    34    33   ar
    16    34    35   ar
    17    22    21    1
    18     8     2    1
    19     8     9    1
    20    44    43    1
    21    33    32   ar
    22    12     3    1
    23    12    13    1
    24    47    35    1
    25    47    48   ar
    26    59    60    1
    27    59    58    1
    28    59    62    1
    29    35    36   ar
    30    49    58    1
    31    49    48   ar
    32     2     3   ar
    33     2     1   ar
    34     3     4   ar
    35    32    36   ar
    36    32    20    1
    37    43    45    1
    38    43    46    1
    39    14    13    1
    40    36    37    1
    41    21    20   ar
    42    21    17   ar
    43    48    54    1
    44     1     7    1
    45     1     5   ar
    46    16    13    1
    47    57    54    1
    48    20    19   ar
    49     4    17    1
    50     4     5   ar
    51    13    15    1
    52    17    18   ar
    53     5     6    1
    54    25    23    1
    55    19    18   ar
    56    19    27    1
    57    54    56    1
    58    54    55    1
    59    18    23    1
    60    27    28    1
    61    23    24    1
    62    23    26    1
    63    28    29    1
    64    28    30    1
    65    28    31    1
