@<TRIPOS>MOLECULE
mol_data/opt/cam/geoms/mol2/13il13il-13il13il-.out
 62 65 0 0 0
SMALL
GASTEIGER

@<TRIPOS>ATOM
      1 C           1.3870   -0.3094   -0.8591 C.ar    1  LIG1        0.0087
      2 C           1.0103    1.0040   -0.7188 C.ar    1  LIG1        0.0092
      3 C          -0.3952    0.9786   -0.5068 C.ar    1  LIG1        0.1495
      4 C          -0.8375   -0.3305   -0.5248 C.ar    1  LIG1        0.1057
      5 N           0.2766   -1.1044   -0.7398 N.ar    1  LIG1       -0.3563
      6 H           0.2641   -2.1045   -0.8385 H       1  LIG1        0.1655
      7 H           2.3616   -0.7357   -1.0424 H       1  LIG1        0.0811
      8 C           1.8812    2.2179   -0.7919 C.3     1  LIG1       -0.0348
      9 H           2.1086    2.6269    0.1989 H       1  LIG1        0.0279
     10 H           1.3941    3.0111   -1.3659 H       1  LIG1        0.0279
     11 H           2.8337    1.9896   -1.2757 H       1  LIG1        0.0279
     12 O          -1.2251    2.0692   -0.3545 O.3     1  LIG1       -0.4927
     13 C          -1.1450    2.6773    0.9287 C.3     1  LIG1        0.0789
     14 H          -1.8493    3.5112    0.9286 H       1  LIG1        0.0660
     15 H          -1.4161    1.9670    1.7181 H       1  LIG1        0.0660
     16 H          -0.1383    3.0596    1.1263 H       1  LIG1        0.0660
     17 C          -2.1789   -0.8491   -0.3884 C.ar    1  LIG1        0.0735
     18 C          -2.6791   -2.1390   -0.2995 C.ar    1  LIG1        0.0187
     19 C          -4.0839   -1.9993   -0.1800 C.ar    1  LIG1        0.1502
     20 C          -4.4190   -0.6566   -0.2037 C.ar    1  LIG1        0.1062
     21 N          -3.2366    0.0247   -0.3261 N.ar    1  LIG1       -0.3486
     22 H          -3.1141    1.0205   -0.4364 H       1  LIG1        0.1661
     23 C          -1.9366   -3.4376   -0.3447 C.3     1  LIG1       -0.0341
     24 H          -1.2147   -3.5398    0.4739 H       1  LIG1        0.0279
     25 H          -1.3972   -3.5725   -1.2901 H       1  LIG1        0.0279
     26 H          -2.6408   -4.2689   -0.2704 H       1  LIG1        0.0279
     27 O          -4.9920   -3.0305   -0.0730 O.3     1  LIG1       -0.4927
     28 C          -5.1699   -3.4915    1.2622 C.3     1  LIG1        0.0789
     29 H          -5.8869   -4.3134    1.2215 H       1  LIG1        0.0660
     30 H          -4.2265   -3.8539    1.6845 H       1  LIG1        0.0660
     31 H          -5.5614   -2.6943    1.9043 H       1  LIG1        0.0660
     32 C          -5.7195   -0.0340   -0.1503 C.ar    1  LIG1        0.0735
     33 C          -6.1151    1.2913   -0.0510 C.ar    1  LIG1        0.0187
     34 C          -7.5316    1.2700   -0.0515 C.ar    1  LIG1        0.1502
     35 C          -7.9758   -0.0361   -0.1515 C.ar    1  LIG1        0.1062
     36 N          -6.8496   -0.8147   -0.2043 N.ar    1  LIG1       -0.3486
     37 H          -6.8106   -1.8101   -0.3667 H       1  LIG1        0.1661
     38 C          -5.2635    2.5195    0.0231 C.3     1  LIG1       -0.0341
     39 H          -5.8990    3.4050    0.0922 H       1  LIG1        0.0279
     40 H          -4.6411    2.6481   -0.8699 H       1  LIG1        0.0279
     41 H          -4.5984    2.5155    0.8943 H       1  LIG1        0.0279
     42 O          -8.3549    2.3736    0.0235 O.3     1  LIG1       -0.4927
     43 C          -8.6425    2.7703    1.3597 C.3     1  LIG1        0.0789
     44 H          -9.2664    3.6641    1.2995 H       1  LIG1        0.0660
     45 H          -9.1819    1.9815    1.8960 H       1  LIG1        0.0660
     46 H          -7.7240    3.0071    1.9073 H       1  LIG1        0.0660
     47 C          -9.3265   -0.5437   -0.2283 C.ar    1  LIG1        0.0730
     48 C          -9.8431   -1.8249   -0.1307 C.ar    1  LIG1        0.0180
     49 C         -11.2482   -1.6917   -0.2938 C.ar    1  LIG1        0.1408
     50 C         -11.5560   -0.3635   -0.4792 C.ar    1  LIG1        0.0447
     51 N         -10.3665    0.3242   -0.4307 N.ar    1  LIG1       -0.3561
     52 H         -10.2246    1.3115   -0.5777 H       1  LIG1        0.1655
     53 H         -12.4958    0.1391   -0.6344 H       1  LIG1        0.0844
     54 C          -9.1215   -3.1129    0.1138 C.3     1  LIG1       -0.0342
     55 H          -8.4043   -3.0287    0.9375 H       1  LIG1        0.0279
     56 H          -8.5752   -3.4661   -0.7694 H       1  LIG1        0.0279
     57 H          -9.8386   -3.8926    0.3778 H       1  LIG1        0.0279
     58 O         -12.0783   -2.7691   -0.2447 O.3     1  LIG1       -0.4933
     59 C         -13.4456   -2.4764   -0.4036 C.3     1  LIG1        0.0789
     60 H         -13.9844   -3.4222   -0.3409 H       1  LIG1        0.0660
     61 H         -13.8036   -1.8020    0.3855 H       1  LIG1        0.0660
     62 H         -13.6429   -2.0113   -1.3783 H       1  LIG1        0.0660
@<TRIPOS>BOND
     1    62    59    1
     2    10     8    1
     3    25    23    1
     4    11     8    1
     5     7     1    1
     6    40    38    1
     7     1     5   ar
     8     1     2   ar
     9     6     5    1
    10     8     2    1
    11     8     9    1
    12    56    54    1
    13     5     4   ar
    14     2     3   ar
    15    53    50    1
    16    52    51    1
    17     4     3   ar
    18     4    17    1
    19     3    12    1
    20    50    51   ar
    21    50    49   ar
    22    22    21    1
    23    51    47   ar
    24    59    60    1
    25    59    58    1
    26    59    61    1
    27    17    21   ar
    28    17    18   ar
    29    37    36    1
    30    12    13    1
    31    23    18    1
    32    23    26    1
    33    23    24    1
    34    21    20   ar
    35    18    19   ar
    36    49    58    1
    37    49    48   ar
    38    47    35    1
    39    47    48   ar
    40    36    35   ar
    41    36    32   ar
    42    20    19   ar
    43    20    32    1
    44    19    27    1
    45    35    34   ar
    46    32    33   ar
    47    48    54    1
    48    27    28    1
    49    34    33   ar
    50    34    42    1
    51    33    38    1
    52    38    39    1
    53    38    41    1
    54    42    43    1
    55    54    57    1
    56    54    55    1
    57    14    13    1
    58    13    16    1
    59    13    15    1
    60    29    28    1
    61    28    30    1
    62    28    31    1
    63    44    43    1
    64    43    45    1
    65    43    46    1
