@<TRIPOS>MOLECULE
mol_data/opt/cam/geoms/mol2/13il13il13il13il-.out
 62 65 0 0 0
SMALL
GASTEIGER

@<TRIPOS>ATOM
      1 C           0.6535    0.2431    2.2506 C.ar    1  LIG1        0.0087
      2 C           0.8891    1.0683    1.1802 C.ar    1  LIG1        0.0092
      3 C          -0.2626    0.9617    0.3413 C.ar    1  LIG1        0.1495
      4 C          -1.1544    0.0802    0.9164 C.ar    1  LIG1        0.1057
      5 N          -0.5597   -0.3679    2.0806 N.ar    1  LIG1       -0.3563
      6 H          -1.0510   -0.8807    2.7935 H       1  LIG1        0.1655
      7 H           1.2699    0.0365    3.1129 H       1  LIG1        0.0811
      8 C           2.1329    1.8592    0.9193 C.3     1  LIG1       -0.0348
      9 H           1.9946    2.9298    1.1051 H       1  LIG1        0.0279
     10 H           2.4589    1.7482   -0.1191 H       1  LIG1        0.0279
     11 H           2.9493    1.5205    1.5617 H       1  LIG1        0.0279
     12 O          -0.4379    1.5230   -0.8938 O.3     1  LIG1       -0.4927
     13 C          -0.4353    2.9398   -0.9214 C.3     1  LIG1        0.0789
     14 H          -0.6890    3.2326   -1.9415 H       1  LIG1        0.0660
     15 H          -1.1800    3.3526   -0.2318 H       1  LIG1        0.0660
     16 H           0.5468    3.3538   -0.6707 H       1  LIG1        0.0660
     17 C          -2.4294   -0.4477    0.4670 C.ar    1  LIG1        0.0735
     18 C          -3.5352    0.1670   -0.0875 C.ar    1  LIG1        0.0187
     19 C          -4.5037   -0.8520   -0.2820 C.ar    1  LIG1        0.1502
     20 C          -3.9946   -2.0600    0.1558 C.ar    1  LIG1        0.1062
     21 N          -2.7214   -1.7877    0.6057 N.ar    1  LIG1       -0.3486
     22 H          -2.0870   -2.4764    0.9751 H       1  LIG1        0.1661
     23 C          -3.7197    1.6126   -0.4123 C.3     1  LIG1       -0.0341
     24 H          -4.7838    1.8394   -0.5074 H       1  LIG1        0.0279
     25 H          -3.2287    1.8826   -1.3519 H       1  LIG1        0.0279
     26 H          -3.2988    2.2511    0.3700 H       1  LIG1        0.0279
     27 O          -5.7558   -0.6361   -0.7958 O.3     1  LIG1       -0.4927
     28 C          -5.9007   -1.0313   -2.1527 C.3     1  LIG1        0.0789
     29 H          -6.9157   -0.7654   -2.4522 H       1  LIG1        0.0660
     30 H          -5.1834   -0.5063   -2.7938 H       1  LIG1        0.0660
     31 H          -5.7611   -2.1115   -2.2680 H       1  LIG1        0.0660
     32 C          -4.5370   -3.4062    0.1658 C.ar    1  LIG1        0.0735
     33 C          -5.7911   -3.8889    0.4887 C.ar    1  LIG1        0.0187
     34 C          -5.7184   -5.2982    0.3268 C.ar    1  LIG1        0.1502
     35 C          -4.4474   -5.6552   -0.0746 C.ar    1  LIG1        0.1062
     36 N          -3.7299   -4.4850   -0.1501 N.ar    1  LIG1       -0.3486
     37 H          -2.8539   -4.4007   -0.6396 H       1  LIG1        0.1661
     38 C          -6.9845   -3.1201    0.9608 C.3     1  LIG1       -0.0341
     39 H          -6.9955   -3.0145    2.0520 H       1  LIG1        0.0279
     40 H          -7.9023   -3.6404    0.6735 H       1  LIG1        0.0279
     41 H          -7.0021   -2.1177    0.5305 H       1  LIG1        0.0279
     42 O          -6.7479   -6.1944    0.5142 O.3     1  LIG1       -0.4927
     43 C          -6.9991   -6.4975    1.8813 C.3     1  LIG1        0.0789
     44 H          -7.8353   -7.1987    1.9030 H       1  LIG1        0.0660
     45 H          -6.1213   -6.9582    2.3485 H       1  LIG1        0.0660
     46 H          -7.2707   -5.5980    2.4430 H       1  LIG1        0.0660
     47 C          -3.9157   -6.9572   -0.4068 C.ar    1  LIG1        0.0730
     48 C          -2.6238   -7.3996   -0.6397 C.ar    1  LIG1        0.0180
     49 C          -2.7328   -8.7874   -0.9226 C.ar    1  LIG1        0.1408
     50 C          -4.0566   -9.1572   -0.8539 C.ar    1  LIG1        0.0447
     51 N          -4.7643   -8.0231   -0.5358 N.ar    1  LIG1       -0.3561
     52 H          -5.7624   -7.9328   -0.4238 H       1  LIG1        0.1655
     53 H          -4.5430  -10.1070   -0.9997 H       1  LIG1        0.0844
     54 C          -1.3425   -6.6277   -0.5977 C.3     1  LIG1       -0.0342
     55 H          -1.2977   -5.9587    0.2682 H       1  LIG1        0.0279
     56 H          -1.1818   -6.0228   -1.4995 H       1  LIG1        0.0279
     57 H          -0.4982   -7.3162   -0.5273 H       1  LIG1        0.0279
     58 O          -1.6383   -9.5482   -1.1952 O.3     1  LIG1       -0.4933
     59 C          -1.9015  -10.9119   -1.4250 C.3     1  LIG1        0.0789
     60 H          -0.9434  -11.3935   -1.6215 H       1  LIG1        0.0660
     61 H          -2.3706  -11.3802   -0.5497 H       1  LIG1        0.0660
     62 H          -2.5606  -11.0496   -2.2921 H       1  LIG1        0.0660
@<TRIPOS>BOND
     1    30    28    1
     2    29    28    1
     3    62    59    1
     4    31    28    1
     5    28    27    1
     6    14    13    1
     7    60    59    1
     8    56    54    1
     9    59    58    1
    10    59    61    1
    11    25    23    1
    12    58    49    1
    13    53    50    1
    14    49    50   ar
    15    49    48   ar
    16    13    12    1
    17    13    16    1
    18    13    15    1
    19    12     3    1
    20    50    51   ar
    21    27    19    1
    22    48    54    1
    23    48    47   ar
    24    37    36    1
    25    54    57    1
    26    54    55    1
    27    51    52    1
    28    51    47   ar
    29    24    23    1
    30    23    18    1
    31    23    26    1
    32    47    35    1
    33    19    18   ar
    34    19    20   ar
    35    36    35   ar
    36    36    32   ar
    37    10     8    1
    38    18    17   ar
    39    35    34   ar
    40    20    32    1
    41    20    21   ar
    42    32    33   ar
    43    34    33   ar
    44    34    42    1
    45     3     4   ar
    46     3     2   ar
    47    17    21   ar
    48    17     4    1
    49    33    38    1
    50    42    43    1
    51    41    38    1
    52    21    22    1
    53    40    38    1
    54     4     5   ar
    55     8     9    1
    56     8     2    1
    57     8    11    1
    58    38    39    1
    59     2     1   ar
    60    43    44    1
    61    43    45    1
    62    43    46    1
    63     5     1   ar
    64     5     6    1
    65     1     7    1
