@<TRIPOS>MOLECULE
mol_data/opt/cam/geoms/mol2/13il13dd-13ad-13le-.out
 50 53 0 0 0
SMALL
GASTEIGER

@<TRIPOS>ATOM
      1 C           0.7866   -0.7114    1.4685 C.ar    1  LIG1        0.0087
      2 C           0.7715    0.5375    0.8995 C.ar    1  LIG1        0.0092
      3 C          -0.5371    0.7046    0.3538 C.ar    1  LIG1        0.1496
      4 C          -1.2662   -0.4412    0.6049 C.ar    1  LIG1        0.1067
      5 N          -0.4212   -1.3197    1.2612 N.ar    1  LIG1       -0.3563
      6 H          -0.7390   -2.1296    1.7679 H       1  LIG1        0.1655
      7 H           1.5806   -1.2164    1.9984 H       1  LIG1        0.0811
      8 C           1.9191    1.4940    0.8123 C.3     1  LIG1       -0.0348
      9 H           1.8030    2.3432    1.4930 H       1  LIG1        0.0279
     10 H           2.0174    1.8967   -0.1998 H       1  LIG1        0.0279
     11 H           2.8578    0.9962    1.0657 H       1  LIG1        0.0279
     12 O          -0.9980    1.7269   -0.4099 O.3     1  LIG1       -0.4927
     13 C          -1.0052    3.0151    0.2004 C.3     1  LIG1        0.0789
     14 H          -1.5097    3.6794   -0.5001 H       1  LIG1        0.0660
     15 H          -1.5668    3.0001    1.1377 H       1  LIG1        0.0660
     16 H           0.0108    3.3800    0.3776 H       1  LIG1        0.0660
     17 C          -2.5935   -0.8264    0.1899 C.ar    1  LIG1        0.0858
     18 C          -3.7738   -0.1151    0.0873 C.ar    1  LIG1        0.0965
     19 C          -4.7800   -1.0139   -0.4034 C.ar    1  LIG1        0.0964
     20 C          -4.1866   -2.2477   -0.5813 C.ar    1  LIG1        0.0823
     21 N          -2.8720   -2.1162   -0.2016 N.ar    1  LIG1       -0.3497
     22 H          -2.1492   -2.7785   -0.4400 H       1  LIG1        0.1661
     23 N          -4.1470    2.3327    0.7968 N.1     1  LIG1       -0.1908
     24 C          -3.9722    1.2366    0.4686 C.1     1  LIG1        0.1027
     25 N          -7.2640   -0.4937   -0.8469 N.1     1  LIG1       -0.1908
     26 C          -6.1477   -0.7180   -0.6386 C.1     1  LIG1        0.1026
     27 C          -4.7299   -3.4970   -1.0625 C.ar    1  LIG1        0.0659
     28 C          -5.7648   -3.7468   -1.9311 C.ar    1  LIG1       -0.0169
     29 C          -5.8534   -5.1576   -2.0783 C.ar    1  LIG1        0.0791
     30 C          -4.8626   -5.7336   -1.2862 C.ar    1  LIG1        0.0846
     31 N          -4.1904   -4.7139   -0.6893 N.ar    1  LIG1       -0.3507
     32 H          -3.4805   -4.8978    0.0078 H       1  LIG1        0.1660
     33 H          -6.3823   -3.0080   -2.4180 H       1  LIG1        0.0652
     34 N          -7.4182   -6.6157   -3.5113 N.1     1  LIG1       -0.1908
     35 C          -6.7438   -5.9137   -2.8812 C.1     1  LIG1        0.1014
     36 C          -4.5057   -7.1044   -1.0316 C.ar    1  LIG1        0.1076
     37 C          -3.5777   -7.6031   -0.1389 C.ar    1  LIG1        0.1620
     38 C          -3.5631   -9.0244   -0.2552 C.ar    1  LIG1        0.0842
     39 C          -4.5027   -9.3328   -1.2253 C.ar    1  LIG1        0.0213
     40 N          -5.0535   -8.1859   -1.6859 N.ar    1  LIG1       -0.3554
     41 H          -5.7752   -8.1212   -2.3906 H       1  LIG1        0.1655
     42 H          -4.7950  -10.2978   -1.6080 H       1  LIG1        0.0820
     43 O          -2.8138   -6.7949    0.6574 O.3     1  LIG1       -0.4917
     44 C          -2.8205   -7.1302    2.0476 C.3     1  LIG1        0.0789
     45 H          -2.1890   -6.3932    2.5444 H       1  LIG1        0.0660
     46 H          -3.8369   -7.0786    2.4512 H       1  LIG1        0.0660
     47 H          -2.4128   -8.1291    2.2098 H       1  LIG1        0.0660
     48 C          -2.7397   -9.9568    0.4318 C.1     1  LIG1       -0.0645
     49 C          -2.0440  -10.7524    1.0097 C.1     1  LIG1       -0.1137
     50 H          -1.4237  -11.4607    1.5088 H       1  LIG1        0.1232
@<TRIPOS>BOND
     1    34    35    3
     2    35    29    1
     3    33    28    1
     4    41    40    1
     5    29    28   ar
     6    29    30   ar
     7    28    27   ar
     8    40    39   ar
     9    40    36   ar
    10    42    39    1
    11    30    36    1
    12    30    31   ar
    13    39    38   ar
    14    27    31   ar
    15    27    20    1
    16    36    37   ar
    17    25    26    3
    18    31    32    1
    19    26    19    1
    20    20    19   ar
    21    20    21   ar
    22    14    13    1
    23    22    21    1
    24    12    13    1
    25    12     3    1
    26    19    18   ar
    27    38    37   ar
    28    38    48    1
    29    21    17   ar
    30    10     8    1
    31    37    43    1
    32    18    17   ar
    33    18    24    1
    34    17     4    1
    35    13    16    1
    36    13    15    1
    37     3     4   ar
    38     3     2   ar
    39    48    49    3
    40    24    23    3
    41     4     5   ar
    42    43    44    1
    43     8     2    1
    44     8    11    1
    45     8     9    1
    46     2     1   ar
    47    49    50    1
    48     5     1   ar
    49     5     6    1
    50     1     7    1
    51    44    47    1
    52    44    46    1
    53    44    45    1
