@<TRIPOS>MOLECULE
mol_data/opt/cam/geoms/mol2/13il12ia6ia-4df6fi-6hh-4ii13ef-.out
 104 111 0 0 0
SMALL
GASTEIGER

@<TRIPOS>ATOM
      1 C           1.1045    0.7698   -1.1227 C.ar    1  LIG1        0.0088
      2 C           0.7476    1.9514   -0.5187 C.ar    1  LIG1        0.0092
      3 C          -0.6070    1.7950   -0.1218 C.ar    1  LIG1        0.1511
      4 C          -1.0421    0.5351   -0.4949 C.ar    1  LIG1        0.1248
      5 N           0.0317   -0.0751   -1.1003 N.ar    1  LIG1       -0.3551
      6 H          -0.0029   -1.0039   -1.4853 H       1  LIG1        0.1655
      7 H           2.0419    0.4731   -1.5688 H       1  LIG1        0.0811
      8 C           1.5873    3.1709   -0.3110 C.3     1  LIG1       -0.0348
      9 H           1.7808    3.3572    0.7504 H       1  LIG1        0.0279
     10 H           1.0927    4.0620   -0.7070 H       1  LIG1        0.0279
     11 H           2.5541    3.0710   -0.8097 H       1  LIG1        0.0279
     12 O          -1.3405    2.7619    0.5147 O.3     1  LIG1       -0.4926
     13 C          -1.3969    2.6058    1.9259 C.3     1  LIG1        0.0789
     14 H          -1.9639    3.4527    2.3153 H       1  LIG1        0.0660
     15 H          -1.9017    1.6731    2.2020 H       1  LIG1        0.0660
     16 H          -0.3926    2.6089    2.3642 H       1  LIG1        0.0660
     17 C          -2.2979   -0.1698   -0.3555 C.ar    1  LIG1        0.1582
     18 C          -3.6128    0.1876   -0.2340 C.ar    1  LIG1       -0.0025
     19 C          -4.3368   -1.0423   -0.1672 C.ar    1  LIG1       -0.0122
     20 C          -3.4386   -2.0604   -0.2669 C.ar    1  LIG1        0.1377
     21 O          -2.1844   -1.5356   -0.3783 O.2     1  LIG1       -0.4529
     22 C          -4.2117    1.5581   -0.2245 C.3     1  LIG1       -0.0360
     23 H          -4.8326    1.7145   -1.1124 H       1  LIG1        0.0279
     24 H          -3.4416    2.3285   -0.2011 H       1  LIG1        0.0279
     25 H          -4.8583    1.6948    0.6481 H       1  LIG1        0.0279
     26 H          -5.4060   -1.1448   -0.0482 H       1  LIG1        0.0658
     27 C          -2.6345   -4.4270    0.1667 C.ar    1  LIG1        0.0495
     28 C          -3.6058   -3.5093   -0.2913 C.ar    1  LIG1        0.0383
     29 C          -4.8088   -4.0375   -0.7580 C.ar    1  LIG1       -0.0473
     30 C          -5.0223   -5.4042   -0.7778 C.ar    1  LIG1       -0.0350
     31 C          -3.9960   -6.2384   -0.3421 C.ar    1  LIG1        0.0726
     32 N          -2.8465   -5.7392    0.1296 N.ar    1  LIG1       -0.2511
     33 H          -5.5806   -3.3674   -1.1209 H       1  LIG1        0.0626
     34 C          -1.3104   -4.0015    0.7406 C.3     1  LIG1       -0.0216
     35 H          -1.4258   -3.1957    1.4685 H       1  LIG1        0.0293
     36 H          -0.6415   -3.6283   -0.0388 H       1  LIG1        0.0293
     37 H          -0.8440   -4.8637    1.2160 H       1  LIG1        0.0293
     38 H          -5.9642   -5.7981   -1.1323 H       1  LIG1        0.0639
     39 C          -4.9150   -8.5004   -1.1507 C.ar    1  LIG1        0.0617
     40 C          -4.9363   -9.8921   -1.0215 C.ar    1  LIG1       -0.0323
     41 C          -4.0997   -7.7229   -0.3070 C.ar    1  LIG1        0.0212
     42 C          -4.1766  -10.5768   -0.0774 C.ar    1  LIG1        0.0299
     43 H          -5.5550  -10.4631   -1.7038 H       1  LIG1        0.0638
     44 C          -3.3190   -8.4052    0.6219 C.ar    1  LIG1       -0.0092
     45 C          -3.3576   -9.7839    0.7393 C.ar    1  LIG1        0.1254
     46 H          -2.6659   -7.8172    1.2583 H       1  LIG1        0.0661
     47 N          -6.3780   -7.5477   -3.0652 N.1     1  LIG1       -0.1908
     48 C          -5.7143   -7.9463   -2.2049 C.1     1  LIG1        0.0998
     49 O          -2.5907  -10.4233    1.6759 O.3     1  LIG1       -0.5061
     50 H          -2.0760   -9.7789    2.1782 H       1  LIG1        0.2922
     51 C          -3.2229  -12.9575    0.0973 C.ar    1  LIG1        0.2209
     52 C          -4.3022  -12.0519    0.0249 C.ar    1  LIG1        0.0473
     53 C          -5.5671  -12.6312   -0.0207 C.ar    1  LIG1       -0.0439
     54 C          -5.7716  -14.0066   -0.0557 C.ar    1  LIG1       -0.0235
     55 C          -4.6155  -14.8061   -0.0758 C.ar    1  LIG1        0.0811
     56 N          -3.3944  -14.2636    0.0293 N.ar    1  LIG1       -0.2121
     57 H          -6.4348  -11.9770   -0.0108 H       1  LIG1        0.0629
     58 O          -1.9375  -12.5692    0.1956 O.3     1  LIG1       -0.4920
     59 H          -1.8950  -11.7358    0.6932 H       1  LIG1        0.2937
     60 C          -7.1812  -14.5404   -0.0199 C.3     1  LIG1       -0.0377
     61 H          -7.2345  -15.5045    0.4876 H       1  LIG1        0.0278
     62 H          -7.6025  -14.6757   -1.0215 H       1  LIG1        0.0278
     63 H          -7.8329  -13.8408    0.5091 H       1  LIG1        0.0278
     64 C          -3.7704  -17.1239    0.5442 C.ar    1  LIG1        0.1262
     65 C          -4.6493  -16.2857   -0.1901 C.ar    1  LIG1        0.0420
     66 C          -5.5223  -16.9156   -1.0665 C.ar    1  LIG1       -0.0265
     67 C          -5.5758  -18.3022   -1.1845 C.ar    1  LIG1        0.0517
     68 C          -4.7210  -19.0399   -0.3564 C.ar    1  LIG1        0.0939
     69 N          -3.8345  -18.4505    0.4507 N.ar    1  LIG1       -0.2299
     70 H          -6.1667  -16.3140   -1.6996 H       1  LIG1        0.0644
     71 N          -2.8419  -16.6200    1.4251 N.pl3   1  LIG1       -0.3426
     72 H          -2.1820  -17.3188    1.7324 H       1  LIG1        0.1437
     73 H          -2.4611  -15.7193    1.1649 H       1  LIG1        0.1437
     74 N          -6.4719  -18.9127   -2.0799 N.pl3   1  LIG1       -0.3563
     75 H          -6.6653  -18.3477   -2.8959 H       1  LIG1        0.1424
     76 H          -6.1822  -19.8428   -2.3543 H       1  LIG1        0.1424
     77 C          -5.7779  -21.3321   -0.0438 C.ar    1  LIG1       -0.0406
     78 C          -5.6295  -22.7130   -0.1237 C.ar    1  LIG1       -0.0488
     79 C          -4.6801  -20.5311   -0.3970 C.ar    1  LIG1        0.0054
     80 C          -4.4389  -23.3276   -0.5200 C.ar    1  LIG1        0.0028
     81 H          -6.4681  -23.3445    0.1477 H       1  LIG1        0.0627
     82 C          -3.4816  -21.1432   -0.7588 C.ar    1  LIG1       -0.0487
     83 C          -3.3264  -22.5234   -0.8298 C.ar    1  LIG1       -0.0407
     84 H          -2.6297  -20.5048   -0.9725 H       1  LIG1        0.0627
     85 C          -7.0717  -20.7427    0.4549 C.3     1  LIG1       -0.0391
     86 H          -7.7374  -21.5292    0.8158 H       1  LIG1        0.0278
     87 H          -7.5870  -20.1816   -0.3296 H       1  LIG1        0.0278
     88 H          -6.8891  -20.0485    1.2800 H       1  LIG1        0.0278
     89 C          -1.9746  -23.0863   -1.1956 C.3     1  LIG1       -0.0391
     90 H          -1.1926  -22.3550   -0.9810 H       1  LIG1        0.0278
     91 H          -1.8930  -23.3235   -2.2638 H       1  LIG1        0.0278
     92 H          -1.7494  -23.9982   -0.6389 H       1  LIG1        0.0278
     93 C          -4.4019  -24.7966   -0.5770 C.ar    1  LIG1        0.0660
     94 C          -4.9529  -25.7459    0.2816 C.ar    1  LIG1        0.0912
     95 C          -4.6588  -27.0264   -0.2743 C.ar    1  LIG1        0.1500
     96 C          -3.9555  -26.8393   -1.4343 C.ar    1  LIG1        0.0454
     97 N          -3.8002  -25.4782   -1.5933 N.ar    1  LIG1       -0.3566
     98 H          -3.3919  -25.0381   -2.3994 H       1  LIG1        0.1655
     99 H          -3.5519  -27.5458   -2.1425 H       1  LIG1        0.0845
    100 C          -5.6439  -25.5174    1.5003 C.1     1  LIG1       -0.0639
    101 C          -6.2365  -25.3395    2.5339 C.1     1  LIG1       -0.1137
    102 H          -6.7491  -25.1851    3.4545 H       1  LIG1        0.1232
    103 O          -5.0422  -28.1843    0.3223 O.3     1  LIG1       -0.5040
    104 H          -4.7284  -28.9287   -0.2027 H       1  LIG1        0.2923
@<TRIPOS>BOND
     1    47    48    3
     2    75    74    1
     3    98    97    1
     4    76    74    1
     5    91    89    1
     6    48    39    1
     7    99    96    1
     8    74    67    1
     9    43    40    1
    10    70    66    1
    11    97    96   ar
    12    97    93   ar
    13     7     1    1
    14     6     5    1
    15    96    95   ar
    16    89    90    1
    17    89    83    1
    18    89    92    1
    19    67    66   ar
    20    67    68   ar
    21    39    40   ar
    22    39    41   ar
    23    38    30    1
    24     1     5   ar
    25     1     2   ar
    26    33    29    1
    27    23    22    1
    28     5     4   ar
    29    66    65   ar
    30    40    42   ar
    31    62    60    1
    32    84    82    1
    33    83    82   ar
    34    83    80   ar
    35    11     8    1
    36    30    29   ar
    37    30    31   ar
    38    82    79   ar
    39    29    28   ar
    40    10     8    1
    41    93    80    1
    42    93    94   ar
    43    80    78   ar
    44     2     8    1
    45     2     3   ar
    46     4    17    1
    47     4     3   ar
    48    79    68    1
    49    79    77   ar
    50    21    17   ar
    51    21    20   ar
    52    68    69   ar
    53    17    18   ar
    54    31    41    1
    55    31    32   ar
    56    87    85    1
    57     8     9    1
    58    41    44   ar
    59    28    20    1
    60    28    27   ar
    61    95    94   ar
    62    95   103    1
    63    20    19   ar
    64    18    22    1
    65    18    19   ar
    66    22    24    1
    67    22    25    1
    68   104   103    1
    69    65    55    1
    70    65    64   ar
    71    19    26    1
    72    78    77   ar
    73    78    81    1
    74     3    12    1
    75    42    52    1
    76    42    45   ar
    77    55    54   ar
    78    55    56   ar
    79    54    53   ar
    80    54    60    1
    81    77    85    1
    82    36    34    1
    83    53    57    1
    84    53    52   ar
    85    60    61    1
    86    60    63    1
    87    52    51   ar
    88    56    51   ar
    89    51    58    1
    90    32    27   ar
    91    27    34    1
    92    58    59    1
    93    94   100    1
    94    69    64   ar
    95    85    86    1
    96    85    88    1
    97    12    13    1
    98    64    71    1
    99    44    45   ar
   100    44    46    1
   101    45    49    1
   102    34    37    1
   103    34    35    1
   104    73    71    1
   105    71    72    1
   106   100   101    3
   107    49    50    1
   108    13    15    1
   109    13    14    1
   110    13    16    1
   111   101   102    1
