@<TRIPOS>MOLECULE
mol_data/opt/cam/geoms/mol2/13il13il13il-13il.out
 62 65 0 0 0
SMALL
GASTEIGER

@<TRIPOS>ATOM
      1 C           1.3849   -0.2756    0.3349 C.ar    1  LIG1        0.0087
      2 C           1.1558    0.8706   -0.3828 C.ar    1  LIG1        0.0092
      3 C          -0.2581    0.9394   -0.5754 C.ar    1  LIG1        0.1495
      4 C          -0.8446   -0.1600    0.0197 C.ar    1  LIG1        0.1057
      5 N           0.1889   -0.9041    0.5556 N.ar    1  LIG1       -0.3563
      6 H           0.0464   -1.6690    1.1936 H       1  LIG1        0.1655
      7 H           2.3139   -0.6963    0.6895 H       1  LIG1        0.0811
      8 C           2.1892    1.8130   -0.9157 C.3     1  LIG1       -0.0348
      9 H           2.2489    2.7408   -0.3363 H       1  LIG1        0.0279
     10 H           1.9712    2.0890   -1.9515 H       1  LIG1        0.0279
     11 H           3.1802    1.3532   -0.8956 H       1  LIG1        0.0279
     12 O          -0.9361    1.8645   -1.3226 O.3     1  LIG1       -0.4927
     13 C          -0.8510    3.1976   -0.8470 C.3     1  LIG1        0.0789
     14 H          -1.5031    3.7988   -1.4828 H       1  LIG1        0.0660
     15 H          -1.1910    3.2708    0.1923 H       1  LIG1        0.0660
     16 H           0.1676    3.5928   -0.9145 H       1  LIG1        0.0660
     17 C          -2.2092   -0.6488    0.0788 C.ar    1  LIG1        0.0735
     18 C          -3.4243   -0.0105    0.2362 C.ar    1  LIG1        0.0187
     19 C          -4.4040   -1.0367    0.2624 C.ar    1  LIG1        0.1502
     20 C          -3.7928   -2.2673    0.1245 C.ar    1  LIG1        0.1062
     21 N          -2.4449   -2.0116    0.0365 N.ar    1  LIG1       -0.3486
     22 H          -1.7701   -2.6770   -0.3032 H       1  LIG1        0.1661
     23 C          -3.6938    1.4543    0.3583 C.3     1  LIG1       -0.0341
     24 H          -4.7644    1.6301    0.4821 H       1  LIG1        0.0279
     25 H          -3.3648    1.9857   -0.5367 H       1  LIG1        0.0279
     26 H          -3.1729    1.8965    1.2144 H       1  LIG1        0.0279
     27 O          -5.7633   -0.8581    0.4002 O.3     1  LIG1       -0.4927
     28 C          -6.1840   -0.7272    1.7539 C.3     1  LIG1        0.0789
     29 H          -7.2649   -0.5763    1.7372 H       1  LIG1        0.0660
     30 H          -5.9485   -1.6311    2.3273 H       1  LIG1        0.0660
     31 H          -5.7060    0.1322    2.2353 H       1  LIG1        0.0660
     32 C          -4.3802   -3.5824    0.0450 C.ar    1  LIG1        0.0735
     33 C          -3.8263   -4.8534    0.0268 C.ar    1  LIG1        0.0187
     34 C          -4.9202   -5.7483   -0.0738 C.ar    1  LIG1        0.1502
     35 C          -6.1021   -5.0312   -0.1185 C.ar    1  LIG1        0.1062
     36 N          -5.7460   -3.7108   -0.0395 N.ar    1  LIG1       -0.3486
     37 H          -6.3578   -2.9117   -0.1189 H       1  LIG1        0.1661
     38 C          -2.3833   -5.2457    0.0779 C.3     1  LIG1       -0.0341
     39 H          -1.8722   -4.8445    0.9601 H       1  LIG1        0.0279
     40 H          -1.8305   -4.9147   -0.8103 H       1  LIG1        0.0279
     41 H          -2.2955   -6.3337    0.1066 H       1  LIG1        0.0279
     42 O          -4.8353   -7.1235   -0.1286 O.3     1  LIG1       -0.4927
     43 C          -4.8176   -7.7376    1.1559 C.3     1  LIG1        0.0789
     44 H          -4.7106   -8.8118    0.9938 H       1  LIG1        0.0660
     45 H          -3.9741   -7.3764    1.7539 H       1  LIG1        0.0660
     46 H          -5.7479   -7.5391    1.6994 H       1  LIG1        0.0660
     47 C          -7.4599   -5.5062   -0.2555 C.ar    1  LIG1        0.0730
     48 C          -8.6865   -4.8835   -0.0967 C.ar    1  LIG1        0.0180
     49 C          -9.6668   -5.8800   -0.3606 C.ar    1  LIG1        0.1408
     50 C          -9.0327   -7.0591   -0.6678 C.ar    1  LIG1        0.0447
     51 N          -7.6886   -6.8169   -0.5962 N.ar    1  LIG1       -0.3561
     52 H          -6.9365   -7.4624   -0.7840 H       1  LIG1        0.1655
     53 H          -9.4344   -8.0302   -0.9089 H       1  LIG1        0.0844
     54 C          -8.9757   -3.4738    0.3125 C.3     1  LIG1       -0.0342
     55 H         -10.0239   -3.3891    0.6087 H       1  LIG1        0.0279
     56 H          -8.8056   -2.7512   -0.4951 H       1  LIG1        0.0279
     57 H          -8.3662   -3.1640    1.1681 H       1  LIG1        0.0279
     58 O         -11.0220   -5.6937   -0.2729 O.3     1  LIG1       -0.4933
     59 C         -11.6096   -5.2053   -1.4658 C.3     1  LIG1        0.0789
     60 H         -12.6779   -5.0921   -1.2723 H       1  LIG1        0.0660
     61 H         -11.1911   -4.2329   -1.7534 H       1  LIG1        0.0660
     62 H         -11.4636   -5.9057   -2.2969 H       1  LIG1        0.0660
@<TRIPOS>BOND
     1    62    59    1
     2    10     8    1
     3    61    59    1
     4    14    13    1
     5    59    60    1
     6    59    58    1
     7    12    13    1
     8    12     3    1
     9     8    11    1
    10     8     2    1
    11     8     9    1
    12    16    13    1
    13    53    50    1
    14    13    15    1
    15    40    38    1
    16    52    51    1
    17    50    51   ar
    18    50    49   ar
    19    51    47   ar
    20     3     2   ar
    21     3     4   ar
    22    25    23    1
    23    56    54    1
    24     2     1   ar
    25    49    58    1
    26    49    48   ar
    27    22    21    1
    28    47    35    1
    29    47    48   ar
    30    42    34    1
    31    42    43    1
    32    37    36    1
    33    35    34   ar
    34    35    36   ar
    35    48    54    1
    36    34    33   ar
    37    36    32   ar
    38     4    17    1
    39     4     5   ar
    40    33    32   ar
    41    33    38    1
    42    21    17   ar
    43    21    20   ar
    44    32    20    1
    45    38    41    1
    46    38    39    1
    47    17    18   ar
    48    20    19   ar
    49    18    19   ar
    50    18    23    1
    51    19    27    1
    52    54    55    1
    53    54    57    1
    54     1     5   ar
    55     1     7    1
    56    23    24    1
    57    23    26    1
    58    27    28    1
    59     5     6    1
    60    44    43    1
    61    43    46    1
    62    43    45    1
    63    29    28    1
    64    28    31    1
    65    28    30    1
