@<TRIPOS>MOLECULE
mol_data/opt/cam/geoms/mol2/13il13il.out
 32 33 0 0 0
SMALL
GASTEIGER

@<TRIPOS>ATOM
      1 C           1.2689   -0.4342    0.4262 C.ar    1  LIG1        0.0087
      2 C           1.0576    0.8347   -0.0517 C.ar    1  LIG1        0.0092
      3 C          -0.3527    0.9500   -0.2493 C.ar    1  LIG1        0.1495
      4 C          -0.9522   -0.2408    0.1054 C.ar    1  LIG1        0.1057
      5 N           0.0672   -1.0855    0.4981 N.ar    1  LIG1       -0.3563
      6 H          -0.0893   -1.9648    0.9617 H       1  LIG1        0.1655
      7 H           2.1903   -0.9230    0.7058 H       1  LIG1        0.0811
      8 C           2.1056    1.8565   -0.3648 C.3     1  LIG1       -0.0348
      9 H           2.1432    2.6593    0.3795 H       1  LIG1        0.0279
     10 H           1.9223    2.3226   -1.3375 H       1  LIG1        0.0279
     11 H           3.0966    1.3974   -0.3980 H       1  LIG1        0.0279
     12 O          -1.0239    2.0012   -0.8120 O.3     1  LIG1       -0.4927
     13 C          -0.9336    3.2261   -0.1064 C.3     1  LIG1        0.0789
     14 H          -1.5986    3.9280   -0.6124 H       1  LIG1        0.0660
     15 H          -1.2556    3.1114    0.9348 H       1  LIG1        0.0660
     16 H           0.0825    3.6342   -0.1185 H       1  LIG1        0.0660
     17 C          -2.3279   -0.7002    0.0372 C.ar    1  LIG1        0.0730
     18 C          -3.5152   -0.0979    0.3975 C.ar    1  LIG1        0.0180
     19 C          -4.5413   -1.0491    0.1272 C.ar    1  LIG1        0.1408
     20 C          -3.9707   -2.1887   -0.3775 C.ar    1  LIG1        0.0447
     21 N          -2.6162   -1.9745   -0.4086 N.ar    1  LIG1       -0.3561
     22 H          -1.9514   -2.5604   -0.8852 H       1  LIG1        0.1655
     23 H          -4.4172   -3.1210   -0.6843 H       1  LIG1        0.0844
     24 C          -3.7142    1.2501    1.0085 C.3     1  LIG1       -0.0342
     25 H          -4.6465    1.2689    1.5786 H       1  LIG1        0.0279
     26 H          -3.7627    2.0410    0.2530 H       1  LIG1        0.0279
     27 H          -2.8937    1.4994    1.6871 H       1  LIG1        0.0279
     28 O          -5.8738   -0.8784    0.3951 O.3     1  LIG1       -0.4933
     29 C          -6.5590   -0.1124   -0.5800 C.3     1  LIG1        0.0789
     30 H          -7.5989   -0.0420   -0.2560 H       1  LIG1        0.0660
     31 H          -6.1418    0.8978   -0.6685 H       1  LIG1        0.0660
     32 H          -6.5170   -0.5943   -1.5643 H       1  LIG1        0.0660
@<TRIPOS>BOND
     1    32    29    1
     2    10     8    1
     3    22    21    1
     4    12     3    1
     5    12    13    1
     6    23    20    1
     7    31    29    1
     8    14    13    1
     9    29    30    1
    10    29    28    1
    11    21    20   ar
    12    21    17   ar
    13    11     8    1
    14    20    19   ar
    15     8     2    1
    16     8     9    1
    17     3     2   ar
    18     3     4   ar
    19    16    13    1
    20    13    15    1
    21     2     1   ar
    22    17     4    1
    23    17    18   ar
    24     4     5   ar
    25    19    28    1
    26    19    18   ar
    27    26    24    1
    28    18    24    1
    29     1     5   ar
    30     1     7    1
    31     5     6    1
    32    24    25    1
    33    24    27    1
