@<TRIPOS>MOLECULE
mol_data/opt/cam/geoms/mol2/13il4de12ea13lf.out
 52 55 0 0 0
SMALL
GASTEIGER

@<TRIPOS>ATOM
      1 C           1.4030    0.0990    0.9168 C.ar    1  LIG1        0.0087
      2 C           1.1642    1.0485   -0.0479 C.ar    1  LIG1        0.0091
      3 C          -0.2294    0.9618   -0.3420 C.ar    1  LIG1        0.1481
      4 C          -0.7868   -0.0313    0.4432 C.ar    1  LIG1        0.0902
      5 N           0.2458   -0.5696    1.1851 N.ar    1  LIG1       -0.3574
      6 H           0.1142   -1.2197    1.9418 H       1  LIG1        0.1655
      7 H           2.3234   -0.1461    1.4258 H       1  LIG1        0.0811
      8 C           2.1941    1.9309   -0.6828 C.3     1  LIG1       -0.0348
      9 H           2.0667    2.9833   -0.4111 H       1  LIG1        0.0279
     10 H           2.1563    1.8677   -1.7744 H       1  LIG1        0.0279
     11 H           3.1974    1.6314   -0.3702 H       1  LIG1        0.0279
     12 O          -0.9300    1.6028   -1.3162 O.3     1  LIG1       -0.4927
     13 C          -0.8131    3.0193   -1.3593 C.3     1  LIG1        0.0789
     14 H          -1.5964    3.3695   -2.0315 H       1  LIG1        0.0660
     15 H          -0.9769    3.4587   -0.3722 H       1  LIG1        0.0660
     16 H           0.1599    3.3298   -1.7514 H       1  LIG1        0.0660
     17 C          -3.3059    0.1524    0.4454 C.ar    1  LIG1        0.0617
     18 C          -4.5538   -0.4625    0.4491 C.ar    1  LIG1       -0.0318
     19 C          -2.1237   -0.6142    0.4676 C.ar    1  LIG1        0.0204
     20 C          -4.6975   -1.8493    0.5150 C.ar    1  LIG1        0.0351
     21 H          -5.4389    0.1592    0.4167 H       1  LIG1        0.0638
     22 C          -2.2741   -1.9982    0.5370 C.ar    1  LIG1       -0.0352
     23 C          -3.5193   -2.6302    0.5764 C.ar    1  LIG1        0.0361
     24 H          -1.3878   -2.6222    0.5406 H       1  LIG1        0.0637
     25 N          -3.3239    2.7400    0.5573 N.1     1  LIG1       -0.1908
     26 C          -3.2795    1.5865    0.4817 C.1     1  LIG1        0.0998
     27 C          -3.5023   -4.0582    0.7084 C.1     1  LIG1       -0.0689
     28 C          -3.3709   -5.2476    0.8484 C.1     1  LIG1       -0.1139
     29 H          -3.2574   -6.2963    1.0026 H       1  LIG1        0.1232
     30 C          -6.0340   -2.4226    0.5179 C.ar    1  LIG1        0.1523
     31 C          -7.2829   -1.9397    0.8439 C.ar    1  LIG1        0.0710
     32 C          -8.2069   -3.0122    0.6256 C.ar    1  LIG1        0.0018
     33 C          -7.4699   -4.0653    0.1822 C.ar    1  LIG1        0.1567
     34 O          -6.1579   -3.7123    0.1110 O.2     1  LIG1       -0.4519
     35 C          -7.6177   -0.6489    1.3347 C.1     1  LIG1       -0.0658
     36 C          -7.9242    0.4397    1.7485 C.1     1  LIG1       -0.1138
     37 H          -8.1900    1.4029    2.1196 H       1  LIG1        0.1232
     38 H          -9.2717   -3.0024    0.7916 H       1  LIG1        0.0668
     39 C          -7.7630   -5.4144   -0.2120 C.ar    1  LIG1        0.1281
     40 C          -8.9712   -6.0748   -0.3337 C.ar    1  LIG1        0.1897
     41 C          -8.6826   -7.4022   -0.7454 C.ar    1  LIG1        0.1769
     42 C          -7.3157   -7.5133   -0.8639 C.ar    1  LIG1        0.0480
     43 N          -6.7685   -6.3014   -0.5296 N.ar    1  LIG1       -0.3522
     44 H          -5.7883   -6.0693   -0.4987 H       1  LIG1        0.1656
     45 H          -6.7051   -8.3555   -1.1502 H       1  LIG1        0.0845
     46 O         -10.1768   -5.5149   -0.0446 O.3     1  LIG1       -0.4894
     47 C         -11.1572   -5.6397   -1.0693 C.3     1  LIG1        0.0791
     48 H         -12.0521   -5.1369   -0.7014 H       1  LIG1        0.0660
     49 H         -10.8202   -5.1537   -1.9921 H       1  LIG1        0.0660
     50 H         -11.3825   -6.6890   -1.2752 H       1  LIG1        0.0660
     51 O          -9.6476   -8.3434   -0.9620 O.3     1  LIG1       -0.5023
     52 H          -9.2322   -9.1604   -1.2589 H       1  LIG1        0.2923
@<TRIPOS>BOND
     1    14    13    1
     2    49    47    1
     3    10     8    1
     4    16    13    1
     5    13    12    1
     6    13    15    1
     7    12     3    1
     8    50    47    1
     9    52    51    1
    10    45    42    1
    11    47    48    1
    12    47    46    1
    13    51    41    1
    14    42    41   ar
    15    42    43   ar
    16    41    40   ar
    17     8     9    1
    18     8    11    1
    19     8     2    1
    20    43    44    1
    21    43    39   ar
    22     3     2   ar
    23     3     4   ar
    24    40    39   ar
    25    40    46    1
    26    39    33    1
    27     2     1   ar
    28    34    33   ar
    29    34    30   ar
    30    33    32   ar
    31    21    18    1
    32     4    19    1
    33     4     5   ar
    34    17    18   ar
    35    17    19   ar
    36    17    26    1
    37    18    20   ar
    38    19    22   ar
    39    26    25    3
    40    20    30    1
    41    20    23   ar
    42    30    31   ar
    43    22    24    1
    44    22    23   ar
    45    23    27    1
    46    32    38    1
    47    32    31   ar
    48    27    28    3
    49    31    35    1
    50    28    29    1
    51     1     5   ar
    52     1     7    1
    53     5     6    1
    54    35    36    3
    55    36    37    1
