@<TRIPOS>MOLECULE
mol_data/opt/cam/geoms/mol2/13il13il13il.out
 47 49 0 0 0
SMALL
GASTEIGER

@<TRIPOS>ATOM
      1 C           1.2559   -0.3082    0.9940 C.ar    1  LIG1        0.0087
      2 C           1.1400    0.8531    0.2729 C.ar    1  LIG1        0.0092
      3 C          -0.2378    0.9525   -0.0925 C.ar    1  LIG1        0.1495
      4 C          -0.9127   -0.1420    0.4069 C.ar    1  LIG1        0.1057
      5 N           0.0314   -0.9175    1.0529 N.ar    1  LIG1       -0.3563
      6 H          -0.2029   -1.6800    1.6665 H       1  LIG1        0.1655
      7 H           2.1255   -0.7509    1.4565 H       1  LIG1        0.0811
      8 C           2.2507    1.7818   -0.1071 C.3     1  LIG1       -0.0348
      9 H           2.2415    2.7070    0.4792 H       1  LIG1        0.0279
     10 H           2.1846    2.0642   -1.1620 H       1  LIG1        0.0279
     11 H           3.2225    1.3075    0.0495 H       1  LIG1        0.0279
     12 O          -0.8088    1.8929   -0.9056 O.3     1  LIG1       -0.4927
     13 C          -0.7476    3.2249   -0.4257 C.3     1  LIG1        0.0789
     14 H          -1.3243    3.8349   -1.1230 H       1  LIG1        0.0660
     15 H          -1.1868    3.3080    0.5747 H       1  LIG1        0.0660
     16 H           0.2793    3.6033   -0.3938 H       1  LIG1        0.0660
     17 C          -2.2899   -0.5820    0.2772 C.ar    1  LIG1        0.0735
     18 C          -3.4877    0.0942    0.4055 C.ar    1  LIG1        0.0187
     19 C          -4.5128   -0.8710    0.2236 C.ar    1  LIG1        0.1502
     20 C          -3.9425   -2.1075   -0.0081 C.ar    1  LIG1        0.1062
     21 N          -2.5806   -1.9059    0.0255 N.ar    1  LIG1       -0.3486
     22 H          -1.8916   -2.6274   -0.1078 H       1  LIG1        0.1661
     23 C          -3.7022    1.5427    0.6981 C.3     1  LIG1       -0.0341
     24 H          -4.7231    1.7015    1.0522 H       1  LIG1        0.0279
     25 H          -3.5491    2.1620   -0.1906 H       1  LIG1        0.0279
     26 H          -3.0109    1.8999    1.4670 H       1  LIG1        0.0279
     27 O          -5.8538   -0.6021    0.2959 O.3     1  LIG1       -0.4927
     28 C          -6.4859   -0.4809   -0.9685 C.3     1  LIG1        0.0789
     29 H          -7.5284   -0.2200   -0.7775 H       1  LIG1        0.0660
     30 H          -6.0205    0.3078   -1.5714 H       1  LIG1        0.0660
     31 H          -6.4459   -1.4245   -1.5241 H       1  LIG1        0.0660
     32 C          -4.5336   -3.4062   -0.2690 C.ar    1  LIG1        0.0730
     33 C          -5.5996   -4.0463    0.3306 C.ar    1  LIG1        0.0180
     34 C          -5.7131   -5.3129   -0.3142 C.ar    1  LIG1        0.1408
     35 C          -4.7340   -5.4172   -1.2678 C.ar    1  LIG1        0.0447
     36 N          -4.0034   -4.2565   -1.2192 N.ar    1  LIG1       -0.3561
     37 H          -3.3309   -3.9729   -1.9119 H       1  LIG1        0.1655
     38 H          -4.4944   -6.2247   -1.9411 H       1  LIG1        0.0844
     39 C          -6.4272   -3.5622    1.4768 C.3     1  LIG1       -0.0342
     40 H          -6.7898   -4.4110    2.0628 H       1  LIG1        0.0279
     41 H          -7.2960   -2.9830    1.1474 H       1  LIG1        0.0279
     42 H          -5.8459   -2.9078    2.1299 H       1  LIG1        0.0279
     43 O          -6.6021   -6.3009    0.0157 O.3     1  LIG1       -0.4933
     44 C          -7.9159   -6.0745   -0.4629 C.3     1  LIG1        0.0789
     45 H          -8.5229   -6.9210   -0.1370 H       1  LIG1        0.0660
     46 H          -8.3432   -5.1506   -0.0555 H       1  LIG1        0.0660
     47 H          -7.9341   -6.0155   -1.5581 H       1  LIG1        0.0660
@<TRIPOS>BOND
     1    38    35    1
     2    37    36    1
     3    30    28    1
     4    47    44    1
     5    31    28    1
     6    35    36   ar
     7    35    34   ar
     8    36    32   ar
     9    10     8    1
    10    14    13    1
    11    28    29    1
    12    28    27    1
    13    12    13    1
    14    12     3    1
    15    44    45    1
    16    44    46    1
    17    44    43    1
    18    13    16    1
    19    13    15    1
    20    34    43    1
    21    34    33   ar
    22    32    20    1
    23    32    33   ar
    24    25    23    1
    25    22    21    1
    26     8    11    1
    27     8     2    1
    28     8     9    1
    29     3     2   ar
    30     3     4   ar
    31    20    21   ar
    32    20    19   ar
    33    21    17   ar
    34    19    27    1
    35    19    18   ar
    36     2     1   ar
    37    17    18   ar
    38    17     4    1
    39    33    39    1
    40    18    23    1
    41     4     5   ar
    42    23    24    1
    43    23    26    1
    44     1     5   ar
    45     1     7    1
    46     5     6    1
    47    41    39    1
    48    39    40    1
    49    39    42    1
