@<TRIPOS>MOLECULE
mol_data/opt/cam/geoms/mol2/13il13il-13il.out
 47 49 0 0 0
SMALL
GASTEIGER

@<TRIPOS>ATOM
      1 C           1.3142   -0.4561   -0.5703 C.ar    1  LIG1        0.0087
      2 C           0.9909    0.8669   -0.3921 C.ar    1  LIG1        0.0092
      3 C          -0.4215    0.8980   -0.2329 C.ar    1  LIG1        0.1495
      4 C          -0.9202   -0.3878   -0.3186 C.ar    1  LIG1        0.1057
      5 N           0.1657   -1.2034   -0.5232 N.ar    1  LIG1       -0.3563
      6 H           0.1127   -2.1973   -0.6620 H       1  LIG1        0.1655
      7 H           2.2753   -0.9194   -0.7339 H       1  LIG1        0.0811
      8 C           1.9167    2.0417   -0.3839 C.3     1  LIG1       -0.0348
      9 H           2.1246    2.4000    0.6305 H       1  LIG1        0.0279
     10 H           1.4866    2.8786   -0.9412 H       1  LIG1        0.0279
     11 H           2.8757    1.7898   -0.8427 H       1  LIG1        0.0279
     12 O          -1.2072    2.0187   -0.0682 O.3     1  LIG1       -0.4927
     13 C          -1.1545    2.5699    1.2421 C.3     1  LIG1        0.0789
     14 H          -1.8241    3.4317    1.2506 H       1  LIG1        0.0660
     15 H          -1.4858    1.8397    1.9891 H       1  LIG1        0.0660
     16 H          -0.1417    2.9007    1.4945 H       1  LIG1        0.0660
     17 C          -2.2877   -0.8498   -0.2524 C.ar    1  LIG1        0.0735
     18 C          -2.8464   -2.1183   -0.2323 C.ar    1  LIG1        0.0187
     19 C          -4.2478   -1.9198   -0.1635 C.ar    1  LIG1        0.1502
     20 C          -4.5227   -0.5646   -0.1465 C.ar    1  LIG1        0.1062
     21 N          -3.3087    0.0674   -0.1975 N.ar    1  LIG1       -0.3486
     22 H          -3.1423    1.0603   -0.2735 H       1  LIG1        0.1661
     23 C          -2.1601   -3.4468   -0.2926 C.3     1  LIG1       -0.0341
     24 H          -1.4684   -3.6020    0.5434 H       1  LIG1        0.0279
     25 H          -1.5987   -3.5814   -1.2253 H       1  LIG1        0.0279
     26 H          -2.9022   -4.2474   -0.2608 H       1  LIG1        0.0279
     27 O          -5.2032   -2.9137   -0.1316 O.3     1  LIG1       -0.4927
     28 C          -5.4843   -3.3821    1.1833 C.3     1  LIG1        0.0789
     29 H          -6.2224   -4.1805    1.0858 H       1  LIG1        0.0660
     30 H          -4.5829   -3.7797    1.6615 H       1  LIG1        0.0660
     31 H          -5.8918   -2.5793    1.8077 H       1  LIG1        0.0660
     32 C          -5.7981    0.1144   -0.1207 C.ar    1  LIG1        0.0730
     33 C          -6.1474    1.4342    0.1108 C.ar    1  LIG1        0.0180
     34 C          -7.5656    1.4854    0.0113 C.ar    1  LIG1        0.1408
     35 C          -8.0386    0.2275   -0.2726 C.ar    1  LIG1        0.0447
     36 N          -6.9504   -0.5977   -0.3468 N.ar    1  LIG1       -0.3561
     37 H          -6.9395   -1.5841   -0.5581 H       1  LIG1        0.1655
     38 H          -9.0470   -0.1299   -0.4062 H       1  LIG1        0.0844
     39 C          -5.2621    2.5924    0.4472 C.3     1  LIG1       -0.0342
     40 H          -5.8691    3.4124    0.8382 H       1  LIG1        0.0279
     41 H          -4.7143    2.9776   -0.4218 H       1  LIG1        0.0279
     42 H          -4.5253    2.3330    1.2149 H       1  LIG1        0.0279
     43 O          -8.3293    2.6055    0.2148 O.3     1  LIG1       -0.4933
     44 C          -8.5010    3.3982   -0.9465 C.3     1  LIG1        0.0789
     45 H          -9.1157    4.2539   -0.6611 H       1  LIG1        0.0660
     46 H          -7.5407    3.7590   -1.3350 H       1  LIG1        0.0660
     47 H          -9.0078    2.8362   -1.7403 H       1  LIG1        0.0660
@<TRIPOS>BOND
     1    47    44    1
     2    46    44    1
     3    25    23    1
     4    44    45    1
     5    44    43    1
     6    10     8    1
     7    11     8    1
     8     7     1    1
     9     6     5    1
    10     1     5   ar
    11     1     2   ar
    12    37    36    1
    13     5     4   ar
    14    41    39    1
    15    38    35    1
    16     2     8    1
    17     2     3   ar
    18     8     9    1
    19    36    35   ar
    20    36    32   ar
    21     4    17    1
    22     4     3   ar
    23    23    26    1
    24    23    18    1
    25    23    24    1
    26    22    21    1
    27    35    34   ar
    28    17    18   ar
    29    17    21   ar
    30     3    12    1
    31    18    19   ar
    32    21    20   ar
    33    19    20   ar
    34    19    27    1
    35    20    32    1
    36    27    28    1
    37    32    33   ar
    38    12    13    1
    39    34    33   ar
    40    34    43    1
    41    33    39    1
    42    39    40    1
    43    39    42    1
    44    29    28    1
    45    28    30    1
    46    28    31    1
    47    13    14    1
    48    13    16    1
    49    13    15    1
