@<TRIPOS>MOLECULE
mol_data/opt/cam/geoms/mol2/13il13il-.out
 32 33 0 0 0
SMALL
GASTEIGER

@<TRIPOS>ATOM
      1 C           1.3703   -0.3484   -0.2059 C.ar    1  LIG1        0.0087
      2 C           1.0132    0.9714   -0.3390 C.ar    1  LIG1        0.0092
      3 C          -0.4084    0.9857   -0.3346 C.ar    1  LIG1        0.1495
      4 C          -0.8784   -0.3058   -0.1996 C.ar    1  LIG1        0.1057
      5 N           0.2325   -1.1081   -0.1191 N.ar    1  LIG1       -0.3563
      6 H           0.2039   -2.1121   -0.0748 H       1  LIG1        0.1655
      7 H           2.3490   -0.8024   -0.1721 H       1  LIG1        0.0811
      8 C           1.9164    2.1556   -0.4770 C.3     1  LIG1       -0.0348
      9 H           2.0028    2.7232    0.4564 H       1  LIG1        0.0279
     10 H           1.5407    2.8434   -1.2397 H       1  LIG1        0.0279
     11 H           2.9246    1.8501   -0.7664 H       1  LIG1        0.0279
     12 O          -1.2185    2.0914   -0.4862 O.3     1  LIG1       -0.4927
     13 C          -1.3552    2.8637    0.7001 C.3     1  LIG1        0.0789
     14 H          -2.0035    3.7078    0.4577 H       1  LIG1        0.0660
     15 H          -1.8072    2.2722    1.5042 H       1  LIG1        0.0660
     16 H          -0.3863    3.2435    1.0409 H       1  LIG1        0.0660
     17 C          -2.2402   -0.7946   -0.1821 C.ar    1  LIG1        0.0730
     18 C          -2.7790   -2.0310    0.1315 C.ar    1  LIG1        0.0180
     19 C          -4.1833   -1.8983   -0.0390 C.ar    1  LIG1        0.1408
     20 C          -4.4676   -0.6129   -0.4393 C.ar    1  LIG1        0.0447
     21 N          -3.2648    0.0471   -0.5192 N.ar    1  LIG1       -0.3561
     22 H          -3.1047    1.0006   -0.8059 H       1  LIG1        0.1655
     23 H          -5.3994   -0.1233   -0.6675 H       1  LIG1        0.0844
     24 C          -2.0810   -3.2770    0.5789 C.3     1  LIG1       -0.0342
     25 H          -1.3484   -3.0764    1.3684 H       1  LIG1        0.0279
     26 H          -1.5628   -3.7899   -0.2417 H       1  LIG1        0.0279
     27 H          -2.8096   -3.9836    0.9807 H       1  LIG1        0.0279
     28 O          -5.0320   -2.9362    0.1937 O.3     1  LIG1       -0.4933
     29 C          -6.3967   -2.6430    0.0124 C.3     1  LIG1        0.0789
     30 H          -6.9520   -3.5536    0.2390 H       1  LIG1        0.0660
     31 H          -6.7248   -1.8405    0.6859 H       1  LIG1        0.0660
     32 H          -6.6050   -2.3400   -1.0220 H       1  LIG1        0.0660
@<TRIPOS>BOND
     1    10     8    1
     2    32    29    1
     3    22    21    1
     4    11     8    1
     5    23    20    1
     6    21    20   ar
     7    21    17   ar
     8    12     3    1
     9    12    13    1
    10     8     2    1
    11     8     9    1
    12    20    19   ar
    13     2     3   ar
    14     2     1   ar
    15     3     4   ar
    16    26    24    1
    17     1     7    1
    18     1     5   ar
    19     4    17    1
    20     4     5   ar
    21    17    18   ar
    22     5     6    1
    23    19    18   ar
    24    19    28    1
    25    29    28    1
    26    29    30    1
    27    29    31    1
    28    18    24    1
    29    14    13    1
    30    24    27    1
    31    24    25    1
    32    13    16    1
    33    13    15    1
