@<TRIPOS>MOLECULE
mol_data/opt/cam/geoms/mol2/13il13il13il13il.out
 62 65 0 0 0
SMALL
GASTEIGER

@<TRIPOS>ATOM
      1 C           0.9335    0.0627    1.9726 C.ar    1  LIG1        0.0087
      2 C           1.0503    0.9470    0.9301 C.ar    1  LIG1        0.0092
      3 C          -0.1953    0.8966    0.2319 C.ar    1  LIG1        0.1495
      4 C          -1.0232   -0.0107    0.8596 C.ar    1  LIG1        0.1057
      5 N          -0.2991   -0.5299    1.9160 N.ar    1  LIG1       -0.3563
      6 H          -0.7081   -1.0781    2.6543 H       1  LIG1        0.1655
      7 H           1.6457   -0.1969    2.7418 H       1  LIG1        0.0811
      8 C           2.2645    1.7432    0.5667 C.3     1  LIG1       -0.0348
      9 H           2.1644    2.8021    0.8287 H       1  LIG1        0.0279
     10 H           2.4622    1.6908   -0.5080 H       1  LIG1        0.0279
     11 H           3.1472    1.3619    1.0857 H       1  LIG1        0.0279
     12 O          -0.5113    1.5288   -0.9392 O.3     1  LIG1       -0.4927
     13 C          -0.4934    2.9448   -0.8880 C.3     1  LIG1        0.0789
     14 H          -0.8696    3.2967   -1.8500 H       1  LIG1        0.0660
     15 H          -1.1398    3.3224   -0.0879 H       1  LIG1        0.0660
     16 H           0.5177    3.3382   -0.7409 H       1  LIG1        0.0660
     17 C          -2.3495   -0.5035    0.5351 C.ar    1  LIG1        0.0735
     18 C          -3.5094    0.1530    0.1731 C.ar    1  LIG1        0.0187
     19 C          -4.5060   -0.8482    0.0288 C.ar    1  LIG1        0.1502
     20 C          -3.9571   -2.0854    0.3015 C.ar    1  LIG1        0.1062
     21 N          -2.6342   -1.8508    0.6063 N.ar    1  LIG1       -0.3486
     22 H          -1.9702   -2.5590    0.8726 H       1  LIG1        0.1661
     23 C          -3.7168    1.6198   -0.0128 C.3     1  LIG1       -0.0341
     24 H          -4.7764    1.8628    0.0961 H       1  LIG1        0.0279
     25 H          -3.3916    1.9556   -1.0023 H       1  LIG1        0.0279
     26 H          -3.1535    2.1953    0.7272 H       1  LIG1        0.0279
     27 O          -5.8127   -0.6132   -0.3081 O.3     1  LIG1       -0.4927
     28 C          -6.0587   -0.6531   -1.7044 C.3     1  LIG1        0.0789
     29 H          -7.1169   -0.4273   -1.8470 H       1  LIG1        0.0660
     30 H          -5.4560    0.0916   -2.2378 H       1  LIG1        0.0660
     31 H          -5.8414   -1.6453   -2.1162 H       1  LIG1        0.0660
     32 C          -4.5346   -3.4154    0.2818 C.ar    1  LIG1        0.0735
     33 C          -5.7391   -3.8810    0.7740 C.ar    1  LIG1        0.0187
     34 C          -5.7611   -5.2773    0.5131 C.ar    1  LIG1        0.1502
     35 C          -4.5904   -5.6453   -0.1200 C.ar    1  LIG1        0.1062
     36 N          -3.8540   -4.4890   -0.2550 N.ar    1  LIG1       -0.3486
     37 H          -2.9374   -4.4426   -0.6683 H       1  LIG1        0.1661
     38 C          -6.8021   -3.1049    1.4813 C.3     1  LIG1       -0.0341
     39 H          -7.4254   -3.7819    2.0702 H       1  LIG1        0.0279
     40 H          -7.4455   -2.5590    0.7853 H       1  LIG1        0.0279
     41 H          -6.3658   -2.3590    2.1505 H       1  LIG1        0.0279
     42 O          -6.7759   -6.1291    0.8605 O.3     1  LIG1       -0.4927
     43 C          -7.7970   -6.2291   -0.1185 C.3     1  LIG1        0.0789
     44 H          -8.5502   -6.9131    0.2766 H       1  LIG1        0.0660
     45 H          -8.2616   -5.2551   -0.3123 H       1  LIG1        0.0660
     46 H          -7.4038   -6.6282   -1.0607 H       1  LIG1        0.0660
     47 C          -4.1239   -6.9289   -0.6081 C.ar    1  LIG1        0.0730
     48 C          -4.1799   -8.1837   -0.0363 C.ar    1  LIG1        0.0180
     49 C          -3.5406   -9.0657   -0.9560 C.ar    1  LIG1        0.1408
     50 C          -3.1137   -8.3458   -2.0416 C.ar    1  LIG1        0.0447
     51 N          -3.4542   -7.0364   -1.8114 N.ar    1  LIG1       -0.3561
     52 H          -3.4238   -6.3068   -2.5036 H       1  LIG1        0.1655
     53 H          -2.5816   -8.6589   -2.9255 H       1  LIG1        0.0844
     54 C          -4.7243   -8.5545    1.3050 C.3     1  LIG1       -0.0342
     55 H          -4.2077   -9.4389    1.6872 H       1  LIG1        0.0279
     56 H          -5.7963   -8.7726    1.2709 H       1  LIG1        0.0279
     57 H          -4.5963   -7.7381    2.0193 H       1  LIG1        0.0279
     58 O          -3.3169  -10.4019   -0.7566 O.3     1  LIG1       -0.4933
     59 C          -4.4592  -11.2125   -0.9676 C.3     1  LIG1        0.0789
     60 H          -4.1570  -12.2435   -0.7753 H       1  LIG1        0.0660
     61 H          -5.2770  -10.9468   -0.2874 H       1  LIG1        0.0660
     62 H          -4.8207  -11.1269   -1.9997 H       1  LIG1        0.0660
@<TRIPOS>BOND
     1    53    50    1
     2    52    51    1
     3    30    28    1
     4    31    28    1
     5    50    51   ar
     6    50    49   ar
     7    62    59    1
     8    14    13    1
     9    29    28    1
    10    51    47   ar
    11    28    27    1
    12    46    43    1
    13    25    23    1
    14    59    60    1
    15    59    58    1
    16    59    61    1
    17    49    58    1
    18    49    48   ar
    19    12    13    1
    20    12     3    1
    21    13    16    1
    22    13    15    1
    23    37    36    1
    24    47    35    1
    25    47    48   ar
    26    10     8    1
    27    45    43    1
    28    27    19    1
    29    36    35   ar
    30    36    32   ar
    31    35    34   ar
    32    43    44    1
    33    43    42    1
    34    48    54    1
    35    23    24    1
    36    23    18    1
    37    23    26    1
    38    19    18   ar
    39    19    20   ar
    40    18    17   ar
    41     3     4   ar
    42     3     2   ar
    43    32    20    1
    44    32    33   ar
    45    20    21   ar
    46    34    33   ar
    47    34    42    1
    48    17    21   ar
    49    17     4    1
    50     8     9    1
    51     8     2    1
    52     8    11    1
    53    21    22    1
    54    33    38    1
    55    40    38    1
    56     4     5   ar
    57     2     1   ar
    58    56    54    1
    59    54    55    1
    60    54    57    1
    61    38    39    1
    62    38    41    1
    63     5     1   ar
    64     5     6    1
    65     1     7    1
