@<TRIPOS>MOLECULE
mol_data/opt/cam/geoms/mol2/13la13la-13la-13la.out
 50 53 0 0 0
SMALL
GASTEIGER

@<TRIPOS>ATOM
      1 C           1.2604   -0.7024   -0.1126 C.ar    1  LIG1        0.0444
      2 C           0.9043    0.6064   -0.3473 C.ar    1  LIG1        0.1379
      3 C          -0.5092    0.6993   -0.3147 C.ar    1  LIG1        0.0069
      4 C          -0.9870   -0.5728   -0.0590 C.ar    1  LIG1        0.0701
      5 N           0.0884   -1.4067    0.0590 N.ar    1  LIG1       -0.3564
      6 H          -0.0067   -2.3897    0.2600 H       1  LIG1        0.1655
      7 H           2.2221   -1.1833   -0.0537 H       1  LIG1        0.0844
      8 O           1.7021    1.6839   -0.5767 O.3     1  LIG1       -0.4936
      9 C           3.0825    1.4118   -0.5694 C.3     1  LIG1        0.0789
     10 H           3.5949    2.3546   -0.7635 H       1  LIG1        0.0660
     11 H           3.4066    1.0167    0.4025 H       1  LIG1        0.0660
     12 H           3.3510    0.6866   -1.3489 H       1  LIG1        0.0660
     13 H          -1.0830    1.6032   -0.4554 H       1  LIG1        0.0676
     14 C          -2.3290   -1.0822    0.0784 C.ar    1  LIG1        0.1057
     15 C          -2.7761   -2.3537    0.3794 C.ar    1  LIG1        0.1473
     16 C          -4.1908   -2.3552    0.3925 C.ar    1  LIG1        0.0076
     17 C          -4.5905   -1.0659    0.0898 C.ar    1  LIG1        0.0706
     18 N          -3.4600   -0.3062   -0.0797 N.ar    1  LIG1       -0.3488
     19 H          -3.4464    0.6104   -0.4951 H       1  LIG1        0.1661
     20 O          -1.9085   -3.3827    0.6237 O.3     1  LIG1       -0.4929
     21 C          -2.5051   -4.6259    0.9262 C.3     1  LIG1        0.0789
     22 H          -1.6917   -5.3336    1.0884 H       1  LIG1        0.0660
     23 H          -3.1163   -4.5628    1.8339 H       1  LIG1        0.0660
     24 H          -3.1322   -4.9779    0.0990 H       1  LIG1        0.0660
     25 H          -4.8609   -3.1719    0.6049 H       1  LIG1        0.0676
     26 C          -5.9128   -0.5067   -0.0351 C.ar    1  LIG1        0.1057
     27 C          -7.1296   -1.1194   -0.2775 C.ar    1  LIG1        0.1473
     28 C          -8.1324   -0.1227   -0.3525 C.ar    1  LIG1        0.0076
     29 C          -7.5011    1.0939   -0.1461 C.ar    1  LIG1        0.0705
     30 N          -6.1699    0.8477    0.0324 N.ar    1  LIG1       -0.3488
     31 H          -5.5289    1.5697    0.3268 H       1  LIG1        0.1661
     32 O          -7.2489   -2.4669   -0.4194 O.3     1  LIG1       -0.4929
     33 C          -8.5401   -2.9382   -0.7279 C.3     1  LIG1        0.0789
     34 H          -8.4633   -4.0215   -0.8241 H       1  LIG1        0.0660
     35 H          -9.2569   -2.6987    0.0676 H       1  LIG1        0.0660
     36 H          -8.9063   -2.5184   -1.6730 H       1  LIG1        0.0660
     37 H          -9.1850   -0.2741   -0.5375 H       1  LIG1        0.0676
     38 C          -8.0057    2.4430   -0.0791 C.ar    1  LIG1        0.1052
     39 C          -7.3368    3.6255    0.1793 C.ar    1  LIG1        0.1467
     40 C          -8.2683    4.6929    0.1478 C.ar    1  LIG1       -0.0019
     41 C          -9.4922    4.1306   -0.1321 C.ar    1  LIG1        0.0058
     42 N          -9.3261    2.7841   -0.2662 N.ar    1  LIG1       -0.3566
     43 H         -10.0565    2.1258   -0.4766 H       1  LIG1        0.1655
     44 H         -10.4611    4.5909   -0.2450 H       1  LIG1        0.0808
     45 O          -5.9898    3.6529    0.4167 O.3     1  LIG1       -0.4929
     46 C          -5.4455    4.9195    0.7255 C.3     1  LIG1        0.0789
     47 H          -4.3804    4.7695    0.9015 H       1  LIG1        0.0660
     48 H          -5.5789    5.6214   -0.1058 H       1  LIG1        0.0660
     49 H          -5.9058    5.3399    1.6270 H       1  LIG1        0.0660
     50 H          -8.0752    5.7419    0.3089 H       1  LIG1        0.0669
@<TRIPOS>BOND
     1    36    33    1
     2    12     9    1
     3    34    33    1
     4    10     9    1
     5    33    32    1
     6    33    35    1
     7     8     9    1
     8     8     2    1
     9     9    11    1
    10    37    28    1
    11    19    18    1
    12    43    42    1
    13    13     3    1
    14    32    27    1
    15    28    27   ar
    16    28    29   ar
    17     2     3   ar
    18     2     1   ar
    19     3     4   ar
    20    27    26   ar
    21    42    41   ar
    22    42    38   ar
    23    44    41    1
    24    29    38    1
    25    29    30   ar
    26    41    40   ar
    27     1     7    1
    28     1     5   ar
    29    48    46    1
    30    18    14   ar
    31    18    17   ar
    32    38    39   ar
    33     4     5   ar
    34     4    14    1
    35    26    30   ar
    36    26    17    1
    37    30    31    1
    38     5     6    1
    39    14    15   ar
    40    17    16   ar
    41    24    21    1
    42    40    39   ar
    43    40    50    1
    44    39    45    1
    45    15    16   ar
    46    15    20    1
    47    16    25    1
    48    45    46    1
    49    20    21    1
    50    46    47    1
    51    46    49    1
    52    21    22    1
    53    21    23    1
