@<TRIPOS>MOLECULE
mol_data/opt/cam/geoms/mol2/13la13la13la13la-.out
 50 53 0 0 0
SMALL
GASTEIGER

@<TRIPOS>ATOM
      1 C           1.8975   -0.4044    0.2082 C.ar    1  LIG1        0.0444
      2 C           1.5619    0.8998    0.4794 C.ar    1  LIG1        0.1379
      3 C           0.1490    1.0267    0.4199 C.ar    1  LIG1        0.0069
      4 C          -0.3524   -0.2164    0.1071 C.ar    1  LIG1        0.0701
      5 N           0.7083   -1.0883    0.0112 N.ar    1  LIG1       -0.3564
      6 H           0.6460   -1.9738   -0.4628 H       1  LIG1        0.1655
      7 H           2.8494   -0.9062    0.1629 H       1  LIG1        0.0844
      8 O           2.3739    1.9442    0.7876 O.3     1  LIG1       -0.4936
      9 C           3.7490    1.6468    0.7966 C.3     1  LIG1        0.0789
     10 H           4.2732    2.5685    1.0506 H       1  LIG1        0.0660
     11 H           3.9862    0.8776    1.5436 H       1  LIG1        0.0660
     12 H           4.0883    1.2962   -0.1871 H       1  LIG1        0.0660
     13 H          -0.4278    1.9183    0.6058 H       1  LIG1        0.0676
     14 C          -1.7089   -0.6683   -0.0891 C.ar    1  LIG1        0.1057
     15 C          -2.8468    0.0093   -0.4711 C.ar    1  LIG1        0.1473
     16 C          -3.9248   -0.9123   -0.5429 C.ar    1  LIG1        0.0076
     17 C          -3.4222   -2.1472   -0.1899 C.ar    1  LIG1        0.0706
     18 N          -2.0725   -2.0045    0.0494 N.ar    1  LIG1       -0.3488
     19 H          -1.5681   -2.6247    0.6641 H       1  LIG1        0.1661
     20 O          -2.8453    1.3391   -0.7447 O.3     1  LIG1       -0.4929
     21 C          -4.0745    1.8783   -1.1764 C.3     1  LIG1        0.0789
     22 H          -3.9022    2.9398   -1.3561 H       1  LIG1        0.0660
     23 H          -4.4169    1.4061   -2.1052 H       1  LIG1        0.0660
     24 H          -4.8542    1.7639   -0.4136 H       1  LIG1        0.0660
     25 H          -4.9458   -0.7243   -0.8324 H       1  LIG1        0.0676
     26 C          -4.0808   -3.4222   -0.0652 C.ar    1  LIG1        0.1057
     27 C          -5.4198   -3.7333    0.0967 C.ar    1  LIG1        0.1473
     28 C          -5.5476   -5.1383    0.2140 C.ar    1  LIG1        0.0076
     29 C          -4.2692   -5.6650    0.1144 C.ar    1  LIG1        0.0705
     30 N          -3.4006   -4.6231   -0.0420 N.ar    1  LIG1       -0.3488
     31 H          -2.4259   -4.7651   -0.2609 H       1  LIG1        0.1661
     32 O          -6.3870   -2.7790    0.1371 O.3     1  LIG1       -0.4929
     33 C          -7.6961   -3.2421    0.3757 C.3     1  LIG1        0.0789
     34 H          -8.3402   -2.3627    0.3958 H       1  LIG1        0.0660
     35 H          -8.0354   -3.9171   -0.4200 H       1  LIG1        0.0660
     36 H          -7.7690   -3.7633    1.3383 H       1  LIG1        0.0660
     37 H          -6.4603   -5.6968    0.3562 H       1  LIG1        0.0676
     38 C          -3.7842   -7.0227    0.1310 C.ar    1  LIG1        0.1052
     39 C          -2.4980   -7.5070   -0.0216 C.ar    1  LIG1        0.1467
     40 C          -2.5297   -8.9213    0.0617 C.ar    1  LIG1       -0.0019
     41 C          -3.8453   -9.2676    0.2657 C.ar    1  LIG1        0.0058
     42 N          -4.5888   -8.1257    0.3056 N.ar    1  LIG1       -0.3566
     43 H          -5.5835   -8.0838    0.4469 H       1  LIG1        0.1655
     44 H          -4.3000  -10.2384    0.3848 H       1  LIG1        0.0808
     45 O          -1.4313   -6.6719   -0.2188 O.3     1  LIG1       -0.4929
     46 C          -0.1856   -7.3080   -0.4133 C.3     1  LIG1        0.0789
     47 H           0.5502   -6.5189   -0.5693 H       1  LIG1        0.0660
     48 H           0.1000   -7.8985    0.4648 H       1  LIG1        0.0660
     49 H          -0.2062   -7.9616   -1.2930 H       1  LIG1        0.0660
     50 H          -1.6999   -9.6060   -0.0170 H       1  LIG1        0.0669
@<TRIPOS>BOND
     1    23    21    1
     2    22    21    1
     3    49    46    1
     4    21    20    1
     5    21    24    1
     6    25    16    1
     7    20    15    1
     8    47    46    1
     9    16    15   ar
    10    16    17   ar
    11    15    14   ar
    12     6     5    1
    13    35    33    1
    14    46    45    1
    15    46    48    1
    16    31    30    1
    17    45    39    1
    18    17    26    1
    19    17    18   ar
    20    12     9    1
    21    14    18   ar
    22    14     4    1
    23    26    30   ar
    24    26    27   ar
    25    30    29   ar
    26    39    40   ar
    27    39    38   ar
    28    50    40    1
    29     5     4   ar
    30     5     1   ar
    31    18    19    1
    32    40    41   ar
    33    27    32    1
    34    27    28   ar
    35     4     3   ar
    36    29    38    1
    37    29    28   ar
    38    38    42   ar
    39    32    33    1
    40     7     1    1
    41     1     2   ar
    42    28    37    1
    43    41    42   ar
    44    41    44    1
    45    42    43    1
    46    33    34    1
    47    33    36    1
    48     3     2   ar
    49     3    13    1
    50     2     8    1
    51     8     9    1
    52     9    10    1
    53     9    11    1
