@<TRIPOS>MOLECULE
mol_data/opt/cam/geoms/mol2/13la13la.out
 26 27 0 0 0
SMALL
GASTEIGER

@<TRIPOS>ATOM
      1 C           1.5927   -0.5536    0.1797 C.ar    1  LIG1        0.0444
      2 C           1.3256    0.6896   -0.3399 C.ar    1  LIG1        0.1379
      3 C          -0.0779    0.8134   -0.5174 C.ar    1  LIG1        0.0069
      4 C          -0.6416   -0.3673   -0.0951 C.ar    1  LIG1        0.0701
      5 N           0.3764   -1.2062    0.2983 N.ar    1  LIG1       -0.3564
      6 H           0.2319   -2.0047    0.8938 H       1  LIG1        0.1655
      7 H           2.5177   -1.0352    0.4489 H       1  LIG1        0.0844
      8 O           2.1918    1.6779   -0.6801 O.3     1  LIG1       -0.4936
      9 C           3.5479    1.3929   -0.4334 C.3     1  LIG1        0.0789
     10 H           4.1193    2.2672   -0.7459 H       1  LIG1        0.0660
     11 H           3.7285    1.2041    0.6330 H       1  LIG1        0.0660
     12 H           3.8823    0.5179   -1.0062 H       1  LIG1        0.0660
     13 H          -0.6040    1.6606   -0.9275 H       1  LIG1        0.0676
     14 C          -2.0247   -0.7898   -0.0443 C.ar    1  LIG1        0.1052
     15 C          -3.1883   -0.0684    0.1339 C.ar    1  LIG1        0.1467
     16 C          -4.2837   -0.9733    0.1313 C.ar    1  LIG1       -0.0019
     17 C          -3.7580   -2.2292   -0.0550 C.ar    1  LIG1        0.0058
     18 N          -2.4015   -2.1169   -0.1437 N.ar    1  LIG1       -0.3566
     19 H          -1.7814   -2.8480   -0.4499 H       1  LIG1        0.1655
     20 H          -4.2490   -3.1868   -0.1328 H       1  LIG1        0.0808
     21 O          -3.1917    1.2810    0.2931 O.3     1  LIG1       -0.4929
     22 C          -4.4513    1.8672    0.5280 C.3     1  LIG1        0.0789
     23 H          -4.2793    2.9369    0.6487 H       1  LIG1        0.0660
     24 H          -5.1347    1.7065   -0.3151 H       1  LIG1        0.0660
     25 H          -4.9159    1.4722    1.4401 H       1  LIG1        0.0660
     26 H          -5.3287   -0.7384    0.2606 H       1  LIG1        0.0669
@<TRIPOS>BOND
     1    12     9    1
     2    13     3    1
     3    10     9    1
     4     8     9    1
     5     8     2    1
     6     3     2   ar
     7     3     4   ar
     8    19    18    1
     9     9    11    1
    10     2     1   ar
    11    24    22    1
    12    18    17   ar
    13    18    14   ar
    14    20    17    1
    15     4    14    1
    16     4     5   ar
    17    17    16   ar
    18    14    15   ar
    19    16    15   ar
    20    16    26    1
    21    15    21    1
    22     1     5   ar
    23     1     7    1
    24    21    22    1
    25     5     6    1
    26    22    23    1
    27    22    25    1
