@<TRIPOS>MOLECULE
mol_data/opt/cam/geoms/mol2/13la13la-13la.out
 38 40 0 0 0
SMALL
GASTEIGER

@<TRIPOS>ATOM
      1 C           1.4086   -0.6914   -0.0894 C.ar    1  LIG1        0.0444
      2 C           1.0506    0.6378   -0.0626 C.ar    1  LIG1        0.1379
      3 C          -0.3633    0.7210   -0.0320 C.ar    1  LIG1        0.0069
      4 C          -0.8392   -0.5765   -0.0410 C.ar    1  LIG1        0.0701
      5 N           0.2374   -1.4170   -0.0756 N.ar    1  LIG1       -0.3564
      6 H           0.1447   -2.4203   -0.0885 H       1  LIG1        0.1655
      7 H           2.3713   -1.1734   -0.1163 H       1  LIG1        0.0844
      8 O           1.8474    1.7399   -0.0630 O.3     1  LIG1       -0.4936
      9 C           3.2286    1.4735   -0.0956 C.3     1  LIG1        0.0789
     10 H           3.7394    2.4368   -0.0922 H       1  LIG1        0.0660
     11 H           3.5445    0.8930    0.7813 H       1  LIG1        0.0660
     12 H           3.5074    0.9190   -1.0014 H       1  LIG1        0.0660
     13 H          -0.9404    1.6332   -0.0067 H       1  LIG1        0.0676
     14 C          -2.1830   -1.1027   -0.0209 C.ar    1  LIG1        0.1057
     15 C          -2.6278   -2.4123   -0.0308 C.ar    1  LIG1        0.1473
     16 C          -4.0417   -2.4166   -0.0016 C.ar    1  LIG1        0.0076
     17 C          -4.4367   -1.0870    0.0261 C.ar    1  LIG1        0.0705
     18 N          -3.3100   -0.3169    0.0140 N.ar    1  LIG1       -0.3488
     19 H          -3.3372    0.6917    0.0292 H       1  LIG1        0.1661
     20 O          -1.7591   -3.4694   -0.0643 O.3     1  LIG1       -0.4929
     21 C          -2.3511   -4.7494   -0.0710 C.3     1  LIG1        0.0789
     22 H          -1.5364   -5.4734   -0.0985 H       1  LIG1        0.0660
     23 H          -2.9508   -4.9156    0.8319 H       1  LIG1        0.0660
     24 H          -2.9876   -4.8893   -0.9528 H       1  LIG1        0.0660
     25 H          -4.6914   -3.2786   -0.0008 H       1  LIG1        0.0676
     26 C          -5.7422   -0.4745    0.0621 C.ar    1  LIG1        0.1052
     27 C          -6.0933    0.8625    0.0888 C.ar    1  LIG1        0.1467
     28 C          -7.5066    0.9626    0.1196 C.ar    1  LIG1       -0.0019
     29 C          -7.9867   -0.3266    0.1110 C.ar    1  LIG1        0.0058
     30 N          -6.9242   -1.1803    0.0765 N.ar    1  LIG1       -0.3566
     31 H          -6.9844   -2.1838    0.0636 H       1  LIG1        0.1655
     32 H          -9.0011   -0.6930    0.1268 H       1  LIG1        0.0808
     33 O          -5.1509    1.8528    0.0834 O.3     1  LIG1       -0.4929
     34 C          -5.6463    3.1748    0.1133 C.3     1  LIG1        0.0789
     35 H          -4.7791    3.8347    0.1049 H       1  LIG1        0.0660
     36 H          -6.2695    3.3850   -0.7637 H       1  LIG1        0.0660
     37 H          -6.2322    3.3587    1.0213 H       1  LIG1        0.0660
     38 H          -8.1036    1.8607    0.1450 H       1  LIG1        0.0669
@<TRIPOS>BOND
     1    12     9    1
     2    24    21    1
     3    36    34    1
     4     7     1    1
     5    22    21    1
     6     9    10    1
     7     9     8    1
     8     9    11    1
     9     1     5   ar
    10     1     2   ar
    11     6     5    1
    12     5     4   ar
    13    21    20    1
    14    21    23    1
    15    20    15    1
    16     8     2    1
    17     2     3   ar
    18     4     3   ar
    19     4    14    1
    20     3    13    1
    21    15    14   ar
    22    15    16   ar
    23    14    18   ar
    24    16    25    1
    25    16    17   ar
    26    18    17   ar
    27    18    19    1
    28    17    26    1
    29    26    30   ar
    30    26    27   ar
    31    31    30    1
    32    30    29   ar
    33    33    27    1
    34    33    34    1
    35    27    28   ar
    36    35    34    1
    37    29    28   ar
    38    29    32    1
    39    34    37    1
    40    28    38    1
