@<TRIPOS>MOLECULE
mol_data/opt/cam/geoms/mol2/13la13la-13la-13la-.out
 50 53 0 0 0
SMALL
GASTEIGER

@<TRIPOS>ATOM
      1 C           1.2749   -0.5589   -0.0363 C.ar    1  LIG1        0.0444
      2 C           0.9529    0.7666    0.1490 C.ar    1  LIG1        0.1379
      3 C          -0.4588    0.8876    0.1597 C.ar    1  LIG1        0.0069
      4 C          -0.9700   -0.3846   -0.0200 C.ar    1  LIG1        0.0701
      5 N           0.0841   -1.2454   -0.1357 N.ar    1  LIG1       -0.3564
      6 H          -0.0367   -2.2347   -0.2855 H       1  LIG1        0.1655
      7 H           2.2243   -1.0621   -0.1061 H       1  LIG1        0.0844
      8 O           1.7786    1.8364    0.3008 O.3     1  LIG1       -0.4936
      9 C           3.1528    1.5359    0.2598 C.3     1  LIG1        0.0789
     10 H           3.6892    2.4758    0.3931 H       1  LIG1        0.0660
     11 H           3.4340    0.8415    1.0624 H       1  LIG1        0.0660
     12 H           3.4357    1.0909   -0.7033 H       1  LIG1        0.0660
     13 H          -1.0093    1.8093    0.2756 H       1  LIG1        0.0676
     14 C          -2.3259   -0.8704   -0.0860 C.ar    1  LIG1        0.1057
     15 C          -2.8100   -2.1435   -0.3133 C.ar    1  LIG1        0.1473
     16 C          -4.2244   -2.1150   -0.2727 C.ar    1  LIG1        0.0076
     17 C          -4.5858   -0.8059   -0.0114 C.ar    1  LIG1        0.0706
     18 N          -3.4344   -0.0625    0.0772 N.ar    1  LIG1       -0.3488
     19 H          -3.3902    0.8607    0.4754 H       1  LIG1        0.1661
     20 O          -1.9737   -3.2001   -0.5458 O.3     1  LIG1       -0.4929
     21 C          -2.6055   -4.4438   -0.7644 C.3     1  LIG1        0.0789
     22 H          -1.8127   -5.1749   -0.9240 H       1  LIG1        0.0660
     23 H          -3.2054   -4.7428    0.1028 H       1  LIG1        0.0660
     24 H          -3.2511   -4.4110   -1.6495 H       1  LIG1        0.0660
     25 H          -4.9180   -2.9257   -0.4245 H       1  LIG1        0.0676
     26 C          -5.8870   -0.2074    0.1379 C.ar    1  LIG1        0.1057
     27 C          -7.1057   -0.7642    0.4626 C.ar    1  LIG1        0.1473
     28 C          -8.0820    0.2665    0.5055 C.ar    1  LIG1        0.0076
     29 C          -7.4379    1.4431    0.1923 C.ar    1  LIG1        0.0705
     30 N          -6.0997    1.1623    0.0050 N.ar    1  LIG1       -0.3488
     31 H          -5.5227    1.7235   -0.6032 H       1  LIG1        0.1661
     32 O          -7.2563   -2.0902    0.7138 O.3     1  LIG1       -0.4929
     33 C          -8.5509   -2.4985    1.0990 C.3     1  LIG1        0.0789
     34 H          -8.5002   -3.5742    1.2687 H       1  LIG1        0.0660
     35 H          -8.8696   -2.0020    2.0233 H       1  LIG1        0.0660
     36 H          -9.2874   -2.2917    0.3134 H       1  LIG1        0.0660
     37 H          -9.1280    0.1849    0.7526 H       1  LIG1        0.0676
     38 C          -7.9523    2.7849    0.0661 C.ar    1  LIG1        0.1052
     39 C          -9.2278    3.2405   -0.2090 C.ar    1  LIG1        0.1467
     40 C          -9.1996    4.6593   -0.2526 C.ar    1  LIG1       -0.0019
     41 C          -7.9033    5.0361    0.0055 C.ar    1  LIG1        0.0058
     42 N          -7.1552    3.9092    0.1806 N.ar    1  LIG1       -0.3566
     43 H          -6.2167    3.8927    0.5432 H       1  LIG1        0.1655
     44 H          -7.4640    6.0187    0.0791 H       1  LIG1        0.0808
     45 O         -10.2746    2.3959   -0.4043 O.3     1  LIG1       -0.4929
     46 C         -11.4964    3.0061   -0.7557 C.3     1  LIG1        0.0789
     47 H         -12.2181    2.2011   -0.8953 H       1  LIG1        0.0660
     48 H         -11.8539    3.6758    0.0361 H       1  LIG1        0.0660
     49 H         -11.4072    3.5757   -1.6887 H       1  LIG1        0.0660
     50 H         -10.0226    5.3261   -0.4571 H       1  LIG1        0.0669
@<TRIPOS>BOND
     1    49    46    1
     2    24    21    1
     3    22    21    1
     4    47    46    1
     5    21    20    1
     6    21    23    1
     7    46    45    1
     8    46    48    1
     9    12     9    1
    10    31    30    1
    11    20    15    1
    12    50    40    1
    13    25    16    1
    14    45    39    1
    15    15    16   ar
    16    15    14   ar
    17     6     5    1
    18    16    17   ar
    19    40    39   ar
    20    40    41   ar
    21    39    38   ar
    22     5     1   ar
    23     5     4   ar
    24     7     1    1
    25    14     4    1
    26    14    18   ar
    27     1     2   ar
    28     4     3   ar
    29    17    18   ar
    30    17    26    1
    31    30    26   ar
    32    30    29   ar
    33    41    44    1
    34    41    42   ar
    35    38    42   ar
    36    38    29    1
    37    18    19    1
    38    26    27   ar
    39     2     3   ar
    40     2     8    1
    41     3    13    1
    42    42    43    1
    43    29    28   ar
    44     9     8    1
    45     9    10    1
    46     9    11    1
    47    36    33    1
    48    27    28   ar
    49    27    32    1
    50    28    37    1
    51    32    33    1
    52    33    34    1
    53    33    35    1
