@<TRIPOS>MOLECULE
mol_data/opt/cam/geoms/mol2/13la4ed-6ea-4df.out
 57 60 0 0 0
SMALL
GASTEIGER

@<TRIPOS>ATOM
      1 C           1.2604    0.1655   -0.9409 C.ar    1  LIG1        0.0069
      2 C           1.1547    0.9998    0.1510 C.ar    1  LIG1       -0.0119
      3 C          -0.1888    0.8812    0.6360 C.ar    1  LIG1        0.0532
      4 C          -0.8655   -0.0285   -0.1816 C.ar    1  LIG1        0.0713
      5 N           0.0694   -0.4844   -1.1173 N.ar    1  LIG1       -0.3588
      6 H          -0.2002   -0.9463   -1.9710 H       1  LIG1        0.1654
      7 H           2.0983   -0.0079   -1.6011 H       1  LIG1        0.0810
      8 C           2.2336    1.8435    0.7595 C.3     1  LIG1       -0.0365
      9 H           2.4648    1.5354    1.7873 H       1  LIG1        0.0279
     10 H           1.9537    2.9052    0.7986 H       1  LIG1        0.0279
     11 H           3.1591    1.7763    0.1804 H       1  LIG1        0.0279
     12 N          -0.6505    1.4791    1.8119 N.pl3   1  LIG1       -0.3561
     13 H          -0.1292    2.3147    2.0477 H       1  LIG1        0.1424
     14 H          -1.6453    1.6760    1.7750 H       1  LIG1        0.1424
     15 C          -3.3585    0.0848    0.2287 C.ar    1  LIG1        0.1268
     16 C          -4.6032   -0.5401    0.2280 C.ar    1  LIG1       -0.0082
     17 C          -2.1972   -0.6222   -0.1420 C.ar    1  LIG1        0.0450
     18 C          -4.7666   -1.8763   -0.1497 C.ar    1  LIG1        0.0300
     19 H          -5.4815    0.0239    0.5367 H       1  LIG1        0.0661
     20 C          -2.3715   -1.9687   -0.5342 C.ar    1  LIG1       -0.0067
     21 C          -3.6195   -2.5881   -0.5552 C.ar    1  LIG1        0.1287
     22 H          -1.4857   -2.5352   -0.7923 H       1  LIG1        0.0662
     23 O          -3.2378    1.4179    0.5712 O.3     1  LIG1       -0.5061
     24 H          -4.1154    1.7620    0.7821 H       1  LIG1        0.2922
     25 O          -3.8286   -3.8754   -0.9646 O.3     1  LIG1       -0.4945
     26 C          -2.7026   -4.6970   -1.2175 C.3     1  LIG1        0.0788
     27 H          -3.0994   -5.6842   -1.4583 H       1  LIG1        0.0660
     28 H          -2.1132   -4.3309   -2.0688 H       1  LIG1        0.0660
     29 H          -2.0521   -4.7726   -0.3372 H       1  LIG1        0.0660
     30 C          -6.4747   -3.5883    0.6772 C.ar    1  LIG1        0.1217
     31 C          -6.1183   -2.4919   -0.1483 C.ar    1  LIG1        0.0208
     32 C          -7.1242   -1.9854   -0.9657 C.ar    1  LIG1       -0.0338
     33 C          -8.4163   -2.5353   -0.9595 C.ar    1  LIG1        0.0513
     34 C          -8.6824   -3.6103   -0.0693 C.ar    1  LIG1        0.0895
     35 N          -7.7100   -4.1152    0.7008 N.ar    1  LIG1       -0.2365
     36 H          -6.9018   -1.1689   -1.6450 H       1  LIG1        0.0637
     37 C          -5.5299   -4.1749    1.5832 C.1     1  LIG1       -0.0492
     38 C          -4.7520   -4.6613    2.3708 C.1     1  LIG1       -0.1124
     39 H          -4.0710   -5.0900    3.0690 H       1  LIG1        0.1232
     40 C          -9.3803   -2.0352   -1.8848 C.1     1  LIG1       -0.0675
     41 C         -10.1749   -1.5786   -2.6772 C.1     1  LIG1       -0.1138
     42 H         -10.8767   -1.2072   -3.3877 H       1  LIG1        0.1232
     43 C         -11.2152   -3.6210    0.3314 C.ar    1  LIG1        0.0340
     44 C         -12.3726   -4.4022    0.4796 C.ar    1  LIG1       -0.0387
     45 C         -10.0034   -4.2935    0.0432 C.ar    1  LIG1        0.0239
     46 C         -12.3537   -5.7859    0.3607 C.ar    1  LIG1       -0.0393
     47 H         -13.3132   -3.9039    0.7041 H       1  LIG1        0.0637
     48 C          -9.9987   -5.6918   -0.0657 C.ar    1  LIG1       -0.0301
     49 C         -11.1566   -6.4597    0.0791 C.ar    1  LIG1        0.0253
     50 H          -9.0487   -6.1832   -0.2545 H       1  LIG1        0.0643
     51 H         -13.2747   -6.3494    0.4891 H       1  LIG1        0.0636
     52 N         -11.2718   -2.2362    0.5833 N.pl3   1  LIG1       -0.3575
     53 H         -10.8122   -1.6702   -0.1201 H       1  LIG1        0.1423
     54 H         -12.2249   -1.9142    0.7006 H       1  LIG1        0.1423
     55 N         -11.1129   -7.8645    0.0137 N.pl3   1  LIG1       -0.3579
     56 H         -11.9768   -8.2851   -0.3045 H       1  LIG1        0.1423
     57 H         -10.3303   -8.2221   -0.5189 H       1  LIG1        0.1423
@<TRIPOS>BOND
     1    42    41    1
     2    41    40    3
     3    28    26    1
     4     6     5    1
     5    40    33    1
     6    36    32    1
     7     7     1    1
     8    27    26    1
     9    26    25    1
    10    26    29    1
    11     5     1   ar
    12     5     4   ar
    13    32    33   ar
    14    32    31   ar
    15    25    21    1
    16    33    34   ar
    17     1     2   ar
    18    22    20    1
    19    21    20   ar
    20    21    18   ar
    21    20    17   ar
    22    57    55    1
    23    56    55    1
    24    50    48    1
    25     4    17    1
    26     4     3   ar
    27    18    31    1
    28    18    16   ar
    29    31    30   ar
    30    17    15   ar
    31    53    52    1
    32    34    45    1
    33    34    35   ar
    34    48    45   ar
    35    48    49   ar
    36    55    49    1
    37    45    43   ar
    38    49    46   ar
    39     2     3   ar
    40     2     8    1
    41    11     8    1
    42    16    15   ar
    43    16    19    1
    44    15    23    1
    45    43    44   ar
    46    43    52    1
    47    46    44   ar
    48    46    51    1
    49    44    47    1
    50    23    24    1
    51    52    54    1
    52     3    12    1
    53    30    35   ar
    54    30    37    1
    55     8    10    1
    56     8     9    1
    57    37    38    3
    58    14    12    1
    59    12    13    1
    60    38    39    1
