@<TRIPOS>MOLECULE
mol_data/opt/cam/geoms/mol2/13la13la13la-13la-.out
 50 53 0 0 0
SMALL
GASTEIGER

@<TRIPOS>ATOM
      1 C           1.3918   -0.3525   -0.2930 C.ar    1  LIG1        0.0444
      2 C           1.1209    0.7389    0.4977 C.ar    1  LIG1        0.1379
      3 C          -0.2593    0.7258    0.8271 C.ar    1  LIG1        0.0069
      4 C          -0.8062   -0.3849    0.2223 C.ar    1  LIG1        0.0701
      5 N           0.2026   -1.0452   -0.4354 N.ar    1  LIG1       -0.3564
      6 H           0.0473   -1.7610   -1.1253 H       1  LIG1        0.1655
      7 H           2.3048   -0.7035   -0.7436 H       1  LIG1        0.0844
      8 O           1.9688    1.6983    0.9494 O.3     1  LIG1       -0.4936
      9 C           3.3053    1.5581    0.5312 C.3     1  LIG1        0.0789
     10 H           3.8627    2.3905    0.9614 H       1  LIG1        0.0660
     11 H           3.7369    0.6122    0.8842 H       1  LIG1        0.0660
     12 H           3.3872    1.5944   -0.5632 H       1  LIG1        0.0660
     13 H          -0.7801    1.4247    1.4624 H       1  LIG1        0.0676
     14 C          -2.1680   -0.8715    0.2146 C.ar    1  LIG1        0.1057
     15 C          -3.3664   -0.2023    0.3796 C.ar    1  LIG1        0.1473
     16 C          -4.4243   -1.1341    0.2587 C.ar    1  LIG1        0.0076
     17 C          -3.8480   -2.3704    0.0309 C.ar    1  LIG1        0.0706
     18 N          -2.4889   -2.1930   -0.0082 N.ar    1  LIG1       -0.3488
     19 H          -1.8482   -2.9722   -0.0384 H       1  LIG1        0.1661
     20 O          -3.5140    1.1350    0.6267 O.3     1  LIG1       -0.4929
     21 C          -3.3801    1.9543   -0.5250 C.3     1  LIG1        0.0789
     22 H          -3.5703    2.9804   -0.2055 H       1  LIG1        0.0660
     23 H          -2.3703    1.8892   -0.9438 H       1  LIG1        0.0660
     24 H          -4.1087    1.6739   -1.2950 H       1  LIG1        0.0660
     25 H          -5.4773   -0.9050    0.3340 H       1  LIG1        0.0676
     26 C          -4.4139   -3.6854   -0.1251 C.ar    1  LIG1        0.1057
     27 C          -3.7976   -4.8992   -0.3573 C.ar    1  LIG1        0.1473
     28 C          -4.7825   -5.9142   -0.4131 C.ar    1  LIG1        0.0076
     29 C          -5.9999   -5.2955   -0.2050 C.ar    1  LIG1        0.0705
     30 N          -5.7683   -3.9494   -0.0548 N.ar    1  LIG1       -0.3488
     31 H          -6.4324   -3.3036    0.3394 H       1  LIG1        0.1661
     32 O          -2.4419   -5.0013   -0.5088 O.3     1  LIG1       -0.4929
     33 C          -1.9418   -6.3136   -0.6641 C.3     1  LIG1        0.0789
     34 H          -0.8574   -6.2297   -0.7388 H       1  LIG1        0.0660
     35 H          -2.1988   -6.9410    0.1967 H       1  LIG1        0.0660
     36 H          -2.3316   -6.7811   -1.5755 H       1  LIG1        0.0660
     37 H          -4.6518   -6.9686   -0.5935 H       1  LIG1        0.0676
     38 C          -7.3311   -5.8513   -0.1559 C.ar    1  LIG1        0.1052
     39 C          -7.7640   -7.1228    0.1677 C.ar    1  LIG1        0.1467
     40 C          -9.1818   -7.1487    0.0927 C.ar    1  LIG1       -0.0019
     41 C          -9.5798   -5.8884   -0.2837 C.ar    1  LIG1        0.0058
     42 N          -8.4683   -5.1085   -0.4167 N.ar    1  LIG1       -0.3566
     43 H          -8.4559   -4.1989   -0.8472 H       1  LIG1        0.1655
     44 H         -10.5671   -5.4944   -0.4673 H       1  LIG1        0.0808
     45 O          -6.9034   -8.1202    0.5031 O.3     1  LIG1       -0.4929
     46 C          -7.4997   -9.3370    0.8933 C.3     1  LIG1        0.0789
     47 H          -6.6857  -10.0150    1.1505 H       1  LIG1        0.0660
     48 H          -8.1479   -9.2042    1.7680 H       1  LIG1        0.0660
     49 H          -8.0888   -9.7760    0.0787 H       1  LIG1        0.0660
     50 H          -9.8349   -7.9823    0.2988 H       1  LIG1        0.0669
@<TRIPOS>BOND
     1    36    33    1
     2    24    21    1
     3     6     5    1
     4    23    21    1
     5    43    42    1
     6     7     1    1
     7    34    33    1
     8    33    32    1
     9    33    35    1
    10    37    28    1
    11    12     9    1
    12    21    22    1
    13    21    20    1
    14    32    27    1
    15    44    41    1
    16     5     1   ar
    17     5     4   ar
    18    42    41   ar
    19    42    38   ar
    20    28    27   ar
    21    28    29   ar
    22    27    26   ar
    23     1     2   ar
    24    41    40   ar
    25    29    38    1
    26    29    30   ar
    27    38    39   ar
    28    26    30   ar
    29    26    17    1
    30    30    31    1
    31    19    18    1
    32    18    17   ar
    33    18    14   ar
    34    17    16   ar
    35    49    46    1
    36    40    39   ar
    37    40    50    1
    38    39    45    1
    39    14     4    1
    40    14    15   ar
    41     4     3   ar
    42    16    25    1
    43    16    15   ar
    44    15    20    1
    45     2     3   ar
    46     2     8    1
    47    45    46    1
    48     9    11    1
    49     9     8    1
    50     9    10    1
    51     3    13    1
    52    46    47    1
    53    46    48    1
