@<TRIPOS>MOLECULE
mol_data/opt/cam/geoms/mol2/13la13la13la13la.out
 50 53 0 0 0
SMALL
GASTEIGER

@<TRIPOS>ATOM
      1 C           1.9859   -0.2839   -0.2101 C.ar    1  LIG1        0.0444
      2 C           1.7156    1.0182    0.1335 C.ar    1  LIG1        0.1379
      3 C           0.3084    1.1771    0.2390 C.ar    1  LIG1        0.0069
      4 C          -0.2559   -0.0445   -0.0491 C.ar    1  LIG1        0.0701
      5 N           0.7653   -0.9369   -0.2878 N.ar    1  LIG1       -0.3564
      6 H           0.6277   -1.7995   -0.7874 H       1  LIG1        0.1655
      7 H           2.9139   -0.8040   -0.3781 H       1  LIG1        0.0844
      8 O           2.5821    2.0351    0.3764 O.3     1  LIG1       -0.4936
      9 C           3.9419    1.7100    0.2166 C.3     1  LIG1        0.0789
     10 H           4.5133    2.6128    0.4341 H       1  LIG1        0.0660
     11 H           4.2460    0.9135    0.9086 H       1  LIG1        0.0660
     12 H           4.1564    1.3837   -0.8096 H       1  LIG1        0.0660
     13 H          -0.2210    2.0749    0.5147 H       1  LIG1        0.0676
     14 C          -1.6367   -0.4606   -0.1022 C.ar    1  LIG1        0.1057
     15 C          -2.7927    0.2520   -0.3371 C.ar    1  LIG1        0.1473
     16 C          -3.8959   -0.6423   -0.3041 C.ar    1  LIG1        0.0076
     17 C          -3.3888   -1.8963   -0.0359 C.ar    1  LIG1        0.0706
     18 N          -2.0158   -1.7926    0.0464 N.ar    1  LIG1       -0.3488
     19 H          -1.4687   -2.4319    0.6023 H       1  LIG1        0.1661
     20 O          -2.7882    1.5868   -0.5811 O.3     1  LIG1       -0.4929
     21 C          -4.0448    2.1663   -0.8540 C.3     1  LIG1        0.0789
     22 H          -3.8660    3.2275   -1.0282 H       1  LIG1        0.0660
     23 H          -4.5048    1.7265   -1.7472 H       1  LIG1        0.0660
     24 H          -4.7332    2.0507   -0.0082 H       1  LIG1        0.0660
     25 H          -4.9380   -0.4234   -0.4704 H       1  LIG1        0.0676
     26 C          -4.0590   -3.1584    0.1352 C.ar    1  LIG1        0.1057
     27 C          -5.3761   -3.4508    0.4225 C.ar    1  LIG1        0.1473
     28 C          -5.5228   -4.8606    0.5082 C.ar    1  LIG1        0.0076
     29 C          -4.2841   -5.4094    0.2588 C.ar    1  LIG1        0.0705
     30 N          -3.3888   -4.3766    0.0696 N.ar    1  LIG1       -0.3488
     31 H          -2.5626   -4.4882   -0.4980 H       1  LIG1        0.1661
     32 O          -6.3120   -2.4849    0.6058 O.3     1  LIG1       -0.4929
     33 C          -7.6018   -2.9375    0.9567 C.3     1  LIG1        0.0789
     34 H          -8.2225   -2.0488    1.0715 H       1  LIG1        0.0660
     35 H          -8.0288   -3.5774    0.1754 H       1  LIG1        0.0660
     36 H          -7.5883   -3.4928    1.9021 H       1  LIG1        0.0660
     37 H          -6.4103   -5.4259    0.7420 H       1  LIG1        0.0676
     38 C          -3.8683   -6.7894    0.1953 C.ar    1  LIG1        0.1052
     39 C          -4.5856   -7.9371   -0.0839 C.ar    1  LIG1        0.1467
     40 C          -3.6964   -9.0437   -0.0474 C.ar    1  LIG1       -0.0019
     41 C          -2.4549   -8.5424    0.2623 C.ar    1  LIG1        0.0058
     42 N          -2.5582   -7.1880    0.3900 N.ar    1  LIG1       -0.3566
     43 H          -1.8490   -6.5924    0.7836 H       1  LIG1        0.1655
     44 H          -1.5131   -9.0496    0.4022 H       1  LIG1        0.0808
     45 O          -5.9176   -7.9143   -0.3518 O.3     1  LIG1       -0.4929
     46 C          -6.4949   -9.1540   -0.6961 C.3     1  LIG1        0.0789
     47 H          -7.5486   -8.9616   -0.8985 H       1  LIG1        0.0660
     48 H          -6.0278   -9.5795   -1.5926 H       1  LIG1        0.0660
     49 H          -6.4131   -9.8776    0.1243 H       1  LIG1        0.0660
     50 H          -3.9305  -10.0800   -0.2343 H       1  LIG1        0.0669
@<TRIPOS>BOND
     1    23    21    1
     2    48    46    1
     3    22    21    1
     4    47    46    1
     5    21    20    1
     6    21    24    1
     7    12     9    1
     8     6     5    1
     9    46    45    1
    10    46    49    1
    11    20    15    1
    12    31    30    1
    13    25    16    1
    14     7     1    1
    15    45    39    1
    16    15    16   ar
    17    15    14   ar
    18    16    17   ar
    19     5     1   ar
    20     5     4   ar
    21    50    40    1
    22     1     2   ar
    23    14     4    1
    24    14    18   ar
    25    39    40   ar
    26    39    38   ar
    27     4     3   ar
    28    40    41   ar
    29    17    18   ar
    30    17    26    1
    31    18    19    1
    32    30    26   ar
    33    30    29   ar
    34     2     3   ar
    35     2     8    1
    36    26    27   ar
    37    35    33    1
    38    38    29    1
    39    38    42   ar
    40     9     8    1
    41     9    10    1
    42     9    11    1
    43     3    13    1
    44    29    28   ar
    45    41    42   ar
    46    41    44    1
    47    42    43    1
    48    27    28   ar
    49    27    32    1
    50    28    37    1
    51    32    33    1
    52    33    34    1
    53    33    36    1
