@<TRIPOS>MOLECULE
mol_data/opt/cam/geoms/mol2/13la13la13la-13la.out
 50 53 0 0 0
SMALL
GASTEIGER

@<TRIPOS>ATOM
      1 C           1.6142   -0.3111   -0.3965 C.ar    1  LIG1        0.0444
      2 C           1.3313    0.8205    0.3310 C.ar    1  LIG1        0.1379
      3 C          -0.0447    0.8022    0.6774 C.ar    1  LIG1        0.0069
      4 C          -0.5771   -0.3525    0.1469 C.ar    1  LIG1        0.0701
      5 N           0.4368   -1.0330   -0.4822 N.ar    1  LIG1       -0.3564
      6 H           0.2859   -1.7893   -1.1283 H       1  LIG1        0.1655
      7 H           2.5288   -0.6716   -0.8362 H       1  LIG1        0.0844
      8 O           2.1667    1.8199    0.7149 O.3     1  LIG1       -0.4936
      9 C           3.5012    1.6766    0.2916 C.3     1  LIG1        0.0789
     10 H           4.0492    2.5411    0.6671 H       1  LIG1        0.0660
     11 H           3.9512    0.7595    0.6941 H       1  LIG1        0.0660
     12 H           3.5723    1.6506   -0.8038 H       1  LIG1        0.0660
     13 H          -0.5720    1.5285    1.2754 H       1  LIG1        0.0676
     14 C          -1.9288   -0.8649    0.1837 C.ar    1  LIG1        0.1057
     15 C          -3.1382   -0.2105    0.3238 C.ar    1  LIG1        0.1473
     16 C          -4.1791   -1.1676    0.2700 C.ar    1  LIG1        0.0076
     17 C          -3.5811   -2.4031    0.1065 C.ar    1  LIG1        0.0706
     18 N          -2.2255   -2.2029    0.0397 N.ar    1  LIG1       -0.3488
     19 H          -1.5701   -2.9700    0.0637 H       1  LIG1        0.1661
     20 O          -3.3045    1.1366    0.4961 O.3     1  LIG1       -0.4929
     21 C          -3.2412    1.8836   -0.7091 C.3     1  LIG1        0.0789
     22 H          -3.4347    2.9249   -0.4455 H       1  LIG1        0.0660
     23 H          -2.2515    1.8076   -1.1721 H       1  LIG1        0.0660
     24 H          -4.0001    1.5443   -1.4243 H       1  LIG1        0.0660
     25 H          -5.2354   -0.9586    0.3549 H       1  LIG1        0.0676
     26 C          -4.1244   -3.7353    0.0286 C.ar    1  LIG1        0.1057
     27 C          -3.4784   -4.9535   -0.0862 C.ar    1  LIG1        0.1473
     28 C          -4.4453   -5.9849   -0.1109 C.ar    1  LIG1        0.0076
     29 C          -5.6820   -5.3646   -0.0095 C.ar    1  LIG1        0.0705
     30 N          -5.4689   -4.0189    0.0714 N.ar    1  LIG1       -0.3488
     31 H          -6.2214   -3.3520    0.1571 H       1  LIG1        0.1661
     32 O          -2.1140   -5.0436   -0.1573 O.3     1  LIG1       -0.4929
     33 C          -1.5866   -6.3522   -0.1748 C.3     1  LIG1        0.0789
     34 H          -0.5012   -6.2547   -0.2036 H       1  LIG1        0.0660
     35 H          -1.8757   -6.9096    0.7238 H       1  LIG1        0.0660
     36 H          -1.9220   -6.9041   -1.0610 H       1  LIG1        0.0660
     37 H          -4.2647   -7.0459   -0.1912 H       1  LIG1        0.0676
     38 C          -7.0226   -5.8954    0.0192 C.ar    1  LIG1        0.1052
     39 C          -8.2335   -5.2362    0.1249 C.ar    1  LIG1        0.1467
     40 C          -9.2772   -6.1947    0.1115 C.ar    1  LIG1       -0.0019
     41 C          -8.6721   -7.4248   -0.0031 C.ar    1  LIG1        0.0058
     42 N          -7.3230   -7.2368   -0.0581 N.ar    1  LIG1       -0.3566
     43 H          -6.6372   -7.9674   -0.1408 H       1  LIG1        0.1655
     44 H          -9.1038   -8.4122   -0.0489 H       1  LIG1        0.0808
     45 O          -8.3042   -3.8745    0.2212 O.3     1  LIG1       -0.4929
     46 C          -9.6025   -3.3317    0.3408 C.3     1  LIG1        0.0789
     47 H          -9.4850   -2.2505    0.4113 H       1  LIG1        0.0660
     48 H         -10.2155   -3.5725   -0.5355 H       1  LIG1        0.0660
     49 H         -10.1052   -3.7006    1.2422 H       1  LIG1        0.0660
     50 H         -10.3387   -6.0148    0.1772 H       1  LIG1        0.0669
@<TRIPOS>BOND
     1    24    21    1
     2    23    21    1
     3     6     5    1
     4    36    33    1
     5     7     1    1
     6    12     9    1
     7    21    22    1
     8    21    20    1
     9    48    46    1
    10     5     1   ar
    11     5     4   ar
    12     1     2   ar
    13    34    33    1
    14    37    28    1
    15    33    32    1
    16    33    35    1
    17    32    27    1
    18    43    42    1
    19    28    27   ar
    20    28    29   ar
    21    27    26   ar
    22    42    41   ar
    23    42    38   ar
    24    44    41    1
    25    29    38    1
    26    29    30   ar
    27    41    40   ar
    28    38    39   ar
    29    26    30   ar
    30    26    17    1
    31    18    19    1
    32    18    17   ar
    33    18    14   ar
    34    30    31    1
    35    17    16   ar
    36    40    39   ar
    37    40    50    1
    38    39    45    1
    39     4    14    1
    40     4     3   ar
    41    14    15   ar
    42    45    46    1
    43    16    15   ar
    44    16    25    1
    45     9    10    1
    46     9    11    1
    47     9     8    1
    48    15    20    1
    49     2     3   ar
    50     2     8    1
    51    46    47    1
    52    46    49    1
    53     3    13    1
