@<TRIPOS>MOLECULE
mol_data/opt/cam/geoms/mol2/13la13la-.out
 26 27 0 0 0
SMALL
GASTEIGER

@<TRIPOS>ATOM
      1 C           1.1248   -0.4386   -0.0003 C.ar    1  LIG1        0.0444
      2 C           0.7843    0.8955   -0.0000 C.ar    1  LIG1        0.1379
      3 C          -0.6290    0.9966    0.0001 C.ar    1  LIG1        0.0069
      4 C          -1.1210   -0.2946    0.0002 C.ar    1  LIG1        0.0701
      5 N          -0.0555   -1.1486   -0.0000 N.ar    1  LIG1       -0.3564
      6 H          -0.1618   -2.1510   -0.0002 H       1  LIG1        0.1655
      7 H           2.0814   -0.9331   -0.0005 H       1  LIG1        0.0844
      8 O           1.5939    1.9873   -0.0000 O.3     1  LIG1       -0.4936
      9 C           2.9728    1.7043   -0.0002 C.3     1  LIG1        0.0789
     10 H           3.4944    2.6617   -0.0002 H       1  LIG1        0.0660
     11 H           3.2634    1.1334    0.8914 H       1  LIG1        0.0660
     12 H           3.2631    1.1336   -0.8921 H       1  LIG1        0.0660
     13 H          -1.1917    1.9184    0.0003 H       1  LIG1        0.0676
     14 C          -2.4719   -0.8078    0.0004 C.ar    1  LIG1        0.1052
     15 C          -2.9304   -2.1113    0.0003 C.ar    1  LIG1        0.1467
     16 C          -4.3480   -2.0963    0.0004 C.ar    1  LIG1       -0.0019
     17 C          -4.7210   -0.7720    0.0010 C.ar    1  LIG1        0.0058
     18 N          -3.5918   -0.0088    0.0007 N.ar    1  LIG1       -0.3566
     19 H          -3.5666    0.9967    0.0006 H       1  LIG1        0.1655
     20 H          -5.7021   -0.3239    0.0014 H       1  LIG1        0.0808
     21 O          -2.0725   -3.1778    0.0000 O.3     1  LIG1       -0.4929
     22 C          -2.6799   -4.4518   -0.0004 C.3     1  LIG1        0.0789
     23 H          -1.8730   -5.1848   -0.0007 H       1  LIG1        0.0660
     24 H          -3.2997   -4.5975    0.8921 H       1  LIG1        0.0660
     25 H          -3.2998   -4.5969   -0.8929 H       1  LIG1        0.0660
     26 H          -5.0169   -2.9426    0.0003 H       1  LIG1        0.0669
@<TRIPOS>BOND
     1    25    22    1
     2    12     9    1
     3    23    22    1
     4     7     1    1
     5    22    21    1
     6    22    24    1
     7     1     5   ar
     8     1     2   ar
     9     9    10    1
    10     9     8    1
    11     9    11    1
    12     6     5    1
    13     5     4   ar
    14     2     8    1
    15     2     3   ar
    16    21    15    1
    17     3     4   ar
    18     3    13    1
    19     4    14    1
    20    15    14   ar
    21    15    16   ar
    22    26    16    1
    23    14    18   ar
    24    16    17   ar
    25    19    18    1
    26    18    17   ar
    27    17    20    1
