@<TRIPOS>MOLECULE
mol_data/opt/cam/geoms/mol2/13la13la13la.out
 38 40 0 0 0
SMALL
GASTEIGER

@<TRIPOS>ATOM
      1 C           1.8698   -0.4384   -0.0205 C.ar    1  LIG1        0.0444
      2 C           1.5586    0.8526   -0.3718 C.ar    1  LIG1        0.1379
      3 C           0.1456    0.9931   -0.3775 C.ar    1  LIG1        0.0069
      4 C          -0.3801   -0.2282   -0.0226 C.ar    1  LIG1        0.0701
      5 N           0.6669   -1.1026    0.1612 N.ar    1  LIG1       -0.3564
      6 H           0.5780   -1.9607    0.6791 H       1  LIG1        0.1655
      7 H           2.8141   -0.9445    0.0895 H       1  LIG1        0.0844
      8 O           2.3921    1.8734   -0.6984 O.3     1  LIG1       -0.4936
      9 C           3.7638    1.5666   -0.6337 C.3     1  LIG1        0.0789
     10 H           4.3062    2.4709   -0.9108 H       1  LIG1        0.0660
     11 H           4.0579    1.2641    0.3801 H       1  LIG1        0.0660
     12 H           4.0259    0.7593   -1.3303 H       1  LIG1        0.0660
     13 H          -0.4143    1.8783   -0.6327 H       1  LIG1        0.0676
     14 C          -1.7491   -0.6570    0.1379 C.ar    1  LIG1        0.1057
     15 C          -2.8943    0.0521    0.4276 C.ar    1  LIG1        0.1473
     16 C          -3.9873   -0.8542    0.4948 C.ar    1  LIG1        0.0076
     17 C          -3.4855   -2.1092    0.2315 C.ar    1  LIG1        0.0705
     18 N          -2.1220   -1.9959    0.0525 N.ar    1  LIG1       -0.3488
     19 H          -1.6061   -2.6427   -0.5246 H       1  LIG1        0.1661
     20 O          -2.8890    1.3936    0.6313 O.3     1  LIG1       -0.4929
     21 C          -4.1314    1.9700    0.9673 C.3     1  LIG1        0.0789
     22 H          -3.9534    3.0377    1.0966 H       1  LIG1        0.0660
     23 H          -4.8720    1.8219    0.1721 H       1  LIG1        0.0660
     24 H          -4.5279    1.5549    1.9019 H       1  LIG1        0.0660
     25 H          -5.0181   -0.6392    0.7254 H       1  LIG1        0.0676
     26 C          -4.1548   -3.3850    0.1452 C.ar    1  LIG1        0.1052
     27 C          -5.4705   -3.6979   -0.1388 C.ar    1  LIG1        0.1467
     28 C          -5.6097   -5.1112   -0.1285 C.ar    1  LIG1       -0.0019
     29 C          -4.3717   -5.6275    0.1706 C.ar    1  LIG1        0.0058
     30 N          -3.4985   -4.5897    0.3181 N.ar    1  LIG1       -0.3566
     31 H          -2.5707   -4.6679    0.6994 H       1  LIG1        0.1655
     32 H          -4.0530   -6.6513    0.2894 H       1  LIG1        0.0808
     33 O          -6.4074   -2.7449   -0.3869 O.3     1  LIG1       -0.4929
     34 C          -7.6866   -3.2208   -0.7394 C.3     1  LIG1        0.0789
     35 H          -8.3067   -2.3428   -0.9214 H       1  LIG1        0.0660
     36 H          -7.6518   -3.8317   -1.6497 H       1  LIG1        0.0660
     37 H          -8.1323   -3.8139    0.0687 H       1  LIG1        0.0660
     38 H          -6.5025   -5.6839   -0.3253 H       1  LIG1        0.0669
@<TRIPOS>BOND
     1    36    34    1
     2    12     9    1
     3    35    34    1
     4    10     9    1
     5    34    33    1
     6    34    37    1
     7     8     9    1
     8     8     2    1
     9     9    11    1
    10    13     3    1
    11    19    18    1
    12    33    27    1
    13     3     2   ar
    14     3     4   ar
    15     2     1   ar
    16    38    28    1
    17    27    28   ar
    18    27    26   ar
    19    28    29   ar
    20     4    14    1
    21     4     5   ar
    22     1     7    1
    23     1     5   ar
    24    18    14   ar
    25    18    17   ar
    26    14    15   ar
    27    26    17    1
    28    26    30   ar
    29     5     6    1
    30    29    32    1
    31    29    30   ar
    32    23    21    1
    33    17    16   ar
    34    30    31    1
    35    15    16   ar
    36    15    20    1
    37    16    25    1
    38    20    21    1
    39    21    22    1
    40    21    24    1
