@<TRIPOS>MOLECULE
mol_data/opt/cam/geoms/mol2/13ld13ld-.out
 28 29 0 0 0
SMALL
GASTEIGER

@<TRIPOS>ATOM
      1 C           1.1464   -0.4550   -0.0003 C.ar    1  LIG1        0.0457
      2 C           0.8196    0.8771   -0.0001 C.ar    1  LIG1        0.1553
      3 C          -0.6048    0.9741    0.0002 C.ar    1  LIG1        0.1200
      4 C          -1.1035   -0.3286    0.0003 C.ar    1  LIG1        0.0878
      5 N          -0.0397   -1.1658   -0.0001 N.ar    1  LIG1       -0.3553
      6 H          -0.1446   -2.1696   -0.0001 H       1  LIG1        0.1655
      7 H           2.1004   -0.9535   -0.0006 H       1  LIG1        0.0845
      8 O           1.6102    1.9672   -0.0001 O.3     1  LIG1       -0.4923
      9 C           2.9992    1.7078   -0.0005 C.3     1  LIG1        0.0789
     10 H           3.4978    2.6761   -0.0005 H       1  LIG1        0.0660
     11 H           3.2947    1.1445    0.8930 H       1  LIG1        0.0660
     12 H           3.2943    1.1447   -0.8942 H       1  LIG1        0.0660
     13 N          -2.1562    3.0233    0.0009 N.1     1  LIG1       -0.1907
     14 C          -1.4071    2.1369    0.0005 C.1     1  LIG1        0.1050
     15 C          -2.4590   -0.8177    0.0006 C.ar    1  LIG1        0.1078
     16 C          -2.9146   -2.1218    0.0006 C.ar    1  LIG1        0.1640
     17 C          -4.3430   -2.0825    0.0009 C.ar    1  LIG1        0.1112
     18 C          -4.6961   -0.7398    0.0014 C.ar    1  LIG1        0.0233
     19 N          -3.5719   -0.0008    0.0010 N.ar    1  LIG1       -0.3553
     20 H          -3.5318    1.0105    0.0011 H       1  LIG1        0.1655
     21 H          -5.6785   -0.2952    0.0018 H       1  LIG1        0.0821
     22 O          -2.0468   -3.1640    0.0003 O.3     1  LIG1       -0.4916
     23 C          -2.5776   -4.4840   -0.0003 C.3     1  LIG1        0.0789
     24 H          -1.7176   -5.1525   -0.0007 H       1  LIG1        0.0660
     25 H          -3.1828   -4.6664    0.8914 H       1  LIG1        0.0660
     26 H          -3.1829   -4.6655   -0.8921 H       1  LIG1        0.0660
     27 N          -6.0586   -4.0068    0.0011 N.1     1  LIG1       -0.1907
     28 C          -5.2817   -3.1481    0.0009 C.1     1  LIG1        0.1044
@<TRIPOS>BOND
     1    12     9    1
     2    26    23    1
     3    24    23    1
     4     7     1    1
     5    10     9    1
     6     9     8    1
     7     9    11    1
     8     1     2   ar
     9     1     5   ar
    10    23    22    1
    11    23    25    1
    12     6     5    1
    13     8     2    1
    14     2     3   ar
    15     5     4   ar
    16     3     4   ar
    17     3    14    1
    18     4    15    1
    19    22    16    1
    20    14    13    3
    21    16    15   ar
    22    16    17   ar
    23    15    19   ar
    24    17    28    1
    25    17    18   ar
    26    28    27    3
    27    19    20    1
    28    19    18   ar
    29    18    21    1
