@<TRIPOS>MOLECULE
mol_data/opt/cam/geoms/mol2/13ld13ld13ld13ld.out
 54 57 0 0 0
SMALL
GASTEIGER

@<TRIPOS>ATOM
      1 C           1.2668    1.3211   -0.0157 C.ar    1  LIG1        0.0457
      2 C           1.6743    0.0570   -0.3564 C.ar    1  LIG1        0.1553
      3 C           0.5246   -0.7911   -0.3299 C.ar    1  LIG1        0.1200
      4 C          -0.5645    0.0096    0.0320 C.ar    1  LIG1        0.0878
      5 N          -0.0982    1.2644    0.2136 N.ar    1  LIG1       -0.3553
      6 H          -0.6947    2.0261    0.5009 H       1  LIG1        0.1655
      7 H           1.8149    2.2422    0.0824 H       1  LIG1        0.0845
      8 O           2.8969   -0.4083   -0.6719 O.3     1  LIG1       -0.4923
      9 C           3.9355    0.5515   -0.6509 C.3     1  LIG1        0.0789
     10 H           4.8503    0.0273   -0.9235 H       1  LIG1        0.0660
     11 H           3.7437    1.3531   -1.3740 H       1  LIG1        0.0660
     12 H           4.0472    0.9870    0.3491 H       1  LIG1        0.0660
     13 N           0.2032   -3.3045   -0.7550 N.1     1  LIG1       -0.1907
     14 C           0.4304   -2.1782   -0.5797 C.1     1  LIG1        0.1050
     15 C          -1.9428   -0.3504    0.2112 C.ar    1  LIG1        0.1083
     16 C          -3.0218    0.3744    0.6757 C.ar    1  LIG1        0.1647
     17 C          -4.1593   -0.4963    0.7004 C.ar    1  LIG1        0.1207
     18 C          -3.7189   -1.7377    0.2265 C.ar    1  LIG1        0.0883
     19 N          -2.4009   -1.6227   -0.0518 N.ar    1  LIG1       -0.3478
     20 H          -1.8534   -2.3306   -0.5205 H       1  LIG1        0.1661
     21 O          -2.8778    1.6724    1.0296 O.3     1  LIG1       -0.4916
     22 C          -4.0368    2.4049    1.4150 C.3     1  LIG1        0.0789
     23 H          -3.6995    3.4256    1.5909 H       1  LIG1        0.0660
     24 H          -4.7876    2.3981    0.6205 H       1  LIG1        0.0660
     25 H          -4.4739    2.0001    2.3306 H       1  LIG1        0.0660
     26 N          -6.5261   -0.0452    1.6128 N.1     1  LIG1       -0.1907
     27 C          -5.4654   -0.2435    1.1913 C.1     1  LIG1        0.1050
     28 C          -4.3437   -3.0231    0.0484 C.ar    1  LIG1        0.1083
     29 C          -5.6123   -3.4190   -0.3057 C.ar    1  LIG1        0.1647
     30 C          -5.5887   -4.8420   -0.4877 C.ar    1  LIG1        0.1207
     31 C          -4.2891   -5.2696   -0.2389 C.ar    1  LIG1        0.0883
     32 N          -3.5494   -4.1643    0.0584 N.ar    1  LIG1       -0.3478
     33 H          -2.6566   -4.2126    0.5272 H       1  LIG1        0.1661
     34 O          -6.6197   -2.5658   -0.5639 O.3     1  LIG1       -0.4916
     35 C          -7.8409   -2.7828    0.1490 C.3     1  LIG1        0.0789
     36 H          -8.5238   -2.0051   -0.1886 H       1  LIG1        0.0660
     37 H          -8.2619   -3.7657   -0.0761 H       1  LIG1        0.0660
     38 H          -7.6777   -2.6735    1.2243 H       1  LIG1        0.0660
     39 N          -7.5348   -6.2695   -1.3872 N.1     1  LIG1       -0.1907
     40 C          -6.6541   -5.6410   -0.9740 C.1     1  LIG1        0.1050
     41 C          -3.6667   -6.5695   -0.2976 C.ar    1  LIG1        0.1078
     42 C          -4.1638   -7.8267   -0.0234 C.ar    1  LIG1        0.1640
     43 C          -3.0929   -8.7586   -0.2106 C.ar    1  LIG1        0.1112
     44 C          -1.9818   -8.0260   -0.5855 C.ar    1  LIG1        0.0233
     45 N          -2.3253   -6.7201   -0.6195 N.ar    1  LIG1       -0.3553
     46 H          -1.7231   -5.9789   -0.9478 H       1  LIG1        0.1655
     47 H          -0.9864   -8.3635   -0.8279 H       1  LIG1        0.0821
     48 O          -5.4078   -8.0457    0.4393 O.3     1  LIG1       -0.4916
     49 C          -6.1729   -9.0621   -0.2145 C.3     1  LIG1        0.0789
     50 H          -7.1466   -9.0583    0.2720 H       1  LIG1        0.0660
     51 H          -6.3027   -8.8201   -1.2724 H       1  LIG1        0.0660
     52 H          -5.7075  -10.0438   -0.1006 H       1  LIG1        0.0660
     53 N          -3.1340  -11.3088    0.1622 N.1     1  LIG1       -0.1907
     54 C          -3.1147  -10.1635   -0.0060 C.1     1  LIG1        0.1044
@<TRIPOS>BOND
     1    39    40    3
     2    11     9    1
     3    51    49    1
     4    40    30    1
     5    46    45    1
     6    10     9    1
     7    47    44    1
     8    13    14    3
     9     8     9    1
    10     8     2    1
    11     9    12    1
    12    45    44   ar
    13    45    41   ar
    14    44    43   ar
    15    14     3    1
    16    34    29    1
    17    34    35    1
    18    20    19    1
    19    30    29   ar
    20    30    31   ar
    21     2     3   ar
    22     2     1   ar
    23     3     4   ar
    24    29    28   ar
    25    41    31    1
    26    41    42   ar
    27    31    32   ar
    28    49    52    1
    29    49    50    1
    30    49    48    1
    31    43    42   ar
    32    43    54    1
    33    36    35    1
    34    37    35    1
    35    19    15   ar
    36    19    18   ar
    37    42    48    1
    38     1     7    1
    39     1     5   ar
    40    54    53    3
    41     4    15    1
    42     4     5   ar
    43    28    32   ar
    44    28    18    1
    45    32    33    1
    46    35    38    1
    47    15    16   ar
    48     5     6    1
    49    18    17   ar
    50    24    22    1
    51    16    17   ar
    52    16    21    1
    53    17    27    1
    54    21    22    1
    55    27    26    3
    56    22    23    1
    57    22    25    1
