@<TRIPOS>MOLECULE
mol_data/opt/cam/geoms/mol2/13ld13ld13ld13ld-.out
 54 57 0 0 0
SMALL
GASTEIGER

@<TRIPOS>ATOM
      1 C           1.1506    1.3320   -0.2915 C.ar    1  LIG1        0.0457
      2 C           1.6853    0.0875   -0.5079 C.ar    1  LIG1        0.1553
      3 C           0.6179   -0.8594   -0.4423 C.ar    1  LIG1        0.1200
      4 C          -0.5508   -0.1403   -0.1848 C.ar    1  LIG1        0.0878
      5 N          -0.2090    1.1652   -0.1000 N.ar    1  LIG1       -0.3553
      6 H          -0.8909    1.8859    0.0881 H       1  LIG1        0.1655
      7 H           1.6073    2.3063   -0.2611 H       1  LIG1        0.0845
      8 O           2.9568   -0.2849   -0.7441 O.3     1  LIG1       -0.4923
      9 C           3.9002    0.7677   -0.7806 C.3     1  LIG1        0.0789
     10 H           4.8692    0.3116   -0.9784 H       1  LIG1        0.0660
     11 H           3.6621    1.4812   -1.5784 H       1  LIG1        0.0660
     12 H           3.9345    1.2980    0.1786 H       1  LIG1        0.0660
     13 N           0.6078   -3.4184   -0.6720 N.1     1  LIG1       -0.1907
     14 C           0.6748   -2.2635   -0.5766 C.1     1  LIG1        0.1050
     15 C          -1.9067   -0.5895   -0.0126 C.ar    1  LIG1        0.1083
     16 C          -3.0194    0.1102    0.3975 C.ar    1  LIG1        0.1647
     17 C          -4.1251   -0.7941    0.4259 C.ar    1  LIG1        0.1207
     18 C          -3.6380   -2.0376    0.0130 C.ar    1  LIG1        0.0883
     19 N          -2.3120   -1.8877   -0.2449 N.ar    1  LIG1       -0.3478
     20 H          -1.7152   -2.6000   -0.6420 H       1  LIG1        0.1661
     21 O          -2.9797    1.4427    0.6641 O.3     1  LIG1       -0.4916
     22 C          -3.6022    1.8739    1.8778 C.3     1  LIG1        0.0789
     23 H          -3.3818    2.9372    1.9684 H       1  LIG1        0.0660
     24 H          -4.6829    1.7289    1.8427 H       1  LIG1        0.0660
     25 H          -3.1862    1.3360    2.7354 H       1  LIG1        0.0660
     26 N          -6.5064   -0.2327    1.2302 N.1     1  LIG1       -0.1907
     27 C          -5.4459   -0.5043    0.8508 C.1     1  LIG1        0.1050
     28 C          -4.2747   -3.3232   -0.1245 C.ar    1  LIG1        0.1083
     29 C          -5.5757   -3.6664   -0.4288 C.ar    1  LIG1        0.1647
     30 C          -5.6434   -5.0938   -0.4783 C.ar    1  LIG1        0.1207
     31 C          -4.3568   -5.5750   -0.2189 C.ar    1  LIG1        0.0883
     32 N          -3.5542   -4.5038   -0.0216 N.ar    1  LIG1       -0.3478
     33 H          -2.5858   -4.6147    0.2532 H       1  LIG1        0.1661
     34 O          -6.5297   -2.7659   -0.7217 O.3     1  LIG1       -0.4916
     35 C          -7.8040   -2.9422   -0.1028 C.3     1  LIG1        0.0789
     36 H          -8.3873   -2.0623   -0.3671 H       1  LIG1        0.0660
     37 H          -8.3030   -3.8424   -0.4715 H       1  LIG1        0.0660
     38 H          -7.7005   -2.9867    0.9847 H       1  LIG1        0.0660
     39 N          -7.5796   -6.7034   -1.0015 N.1     1  LIG1       -0.1907
     40 C          -6.7399   -5.9347   -0.7756 C.1     1  LIG1        0.1050
     41 C          -3.8381   -6.9136   -0.1445 C.ar    1  LIG1        0.1078
     42 C          -2.5291   -7.3111    0.0595 C.ar    1  LIG1        0.1640
     43 C          -2.5027   -8.7378    0.0361 C.ar    1  LIG1        0.1112
     44 C          -3.8096   -9.1500   -0.1850 C.ar    1  LIG1        0.0233
     45 N          -4.5944   -8.0608   -0.2856 N.ar    1  LIG1       -0.3553
     46 H          -5.5896   -8.0689   -0.4648 H       1  LIG1        0.1655
     47 H          -4.2023  -10.1509   -0.2691 H       1  LIG1        0.0821
     48 O          -1.5467   -6.4059    0.2600 O.3     1  LIG1       -0.4916
     49 C          -0.1945   -6.7871   -0.0185 C.3     1  LIG1        0.0789
     50 H           0.3715   -5.8577   -0.0529 H       1  LIG1        0.0660
     51 H           0.1886   -7.4465    0.7630 H       1  LIG1        0.0660
     52 H          -0.1326   -7.2918   -0.9863 H       1  LIG1        0.0660
     53 N          -0.5150  -10.3416    0.3852 N.1     1  LIG1       -0.1907
     54 C          -1.4036   -9.6165    0.2266 C.1     1  LIG1        0.1044
@<TRIPOS>BOND
     1    11     9    1
     2    39    40    3
     3    52    49    1
     4    10     9    1
     5     9     8    1
     6     9    12    1
     7    40    30    1
     8     8     2    1
     9    34    29    1
    10    34    35    1
    11    13    14    3
    12    20    19    1
    13    14     3    1
    14     2     3   ar
    15     2     1   ar
    16    30    29   ar
    17    30    31   ar
    18    37    35    1
    19    46    45    1
    20     3     4   ar
    21    29    28   ar
    22    36    35    1
    23     1     7    1
    24     1     5   ar
    25    45    44   ar
    26    45    41   ar
    27    47    44    1
    28    19    15   ar
    29    19    18   ar
    30    31    41    1
    31    31    32   ar
    32    44    43   ar
    33     4     5   ar
    34     4    15    1
    35    41    42   ar
    36    28    32   ar
    37    28    18    1
    38    35    38    1
    39     5     6    1
    40    50    49    1
    41    32    33    1
    42    49    48    1
    43    49    51    1
    44    15    16   ar
    45    18    17   ar
    46    43    42   ar
    47    43    54    1
    48    42    48    1
    49    54    53    3
    50    16    17   ar
    51    16    21    1
    52    17    27    1
    53    21    22    1
    54    27    26    3
    55    24    22    1
    56    22    23    1
    57    22    25    1
