@<TRIPOS>MOLECULE
mol_data/opt/cam/geoms/mol2/13ld6hi-4eh13ll-.out
 59 62 0 0 0
SMALL
GASTEIGER

@<TRIPOS>ATOM
      1 C           1.5662   -0.3102   -0.4986 C.ar    1  LIG1        0.0457
      2 C           1.2981    0.9404   -0.0016 C.ar    1  LIG1        0.1552
      3 C          -0.1111    1.0375    0.1989 C.ar    1  LIG1        0.1186
      4 C          -0.6692   -0.1816   -0.1872 C.ar    1  LIG1        0.0710
      5 N           0.3588   -0.9649   -0.6090 N.ar    1  LIG1       -0.3565
      6 H           0.2139   -1.9162   -0.9204 H       1  LIG1        0.1655
      7 H           2.4908   -0.7786   -0.7899 H       1  LIG1        0.0845
      8 O           2.1323    1.9630    0.2701 O.3     1  LIG1       -0.4923
      9 C           3.4989    1.7126    0.0186 C.3     1  LIG1        0.0789
     10 H           4.0380    2.6198    0.2887 H       1  LIG1        0.0660
     11 H           3.8654    0.8758    0.6258 H       1  LIG1        0.0660
     12 H           3.6709    1.4882   -1.0414 H       1  LIG1        0.0660
     13 N          -1.3492    3.1140    1.0871 N.1     1  LIG1       -0.1907
     14 C          -0.7902    2.1827    0.6839 C.1     1  LIG1        0.1050
     15 C          -2.5151   -1.7194   -0.9486 C.ar    1  LIG1        0.1261
     16 C          -2.0506   -0.6670   -0.1358 C.ar    1  LIG1        0.0395
     17 C          -2.9640   -0.1483    0.7782 C.ar    1  LIG1       -0.0444
     18 C          -4.2586   -0.6454    0.8897 C.ar    1  LIG1       -0.0237
     19 C          -4.5967   -1.7077    0.0427 C.ar    1  LIG1        0.0772
     20 N          -3.7341   -2.2250   -0.8404 N.ar    1  LIG1       -0.2315
     21 H          -2.6528    0.6505    1.4420 H       1  LIG1        0.0628
     22 N          -1.6817   -2.3332   -1.9044 N.pl3   1  LIG1       -0.3426
     23 H          -2.2277   -3.0123   -2.4230 H       1  LIG1        0.1437
     24 H          -1.2573   -1.6653   -2.5403 H       1  LIG1        0.1437
     25 C          -5.2014   -0.0817    1.9175 C.3     1  LIG1       -0.0377
     26 H          -5.7755   -0.8706    2.4089 H       1  LIG1        0.0278
     27 H          -5.9181    0.6049    1.4602 H       1  LIG1        0.0278
     28 H          -4.6482    0.4672    2.6823 H       1  LIG1        0.0278
     29 C          -7.1245   -1.7335   -0.2446 C.ar    1  LIG1        0.0346
     30 C          -8.3276   -2.4387   -0.1577 C.ar    1  LIG1       -0.0347
     31 C          -5.9255   -2.3828    0.0936 C.ar    1  LIG1        0.0178
     32 C          -8.3838   -3.7737    0.2379 C.ar    1  LIG1        0.0238
     33 H          -9.2513   -1.9337   -0.4098 H       1  LIG1        0.0637
     34 C          -5.9726   -3.7265    0.4432 C.ar    1  LIG1       -0.0300
     35 C          -7.1679   -4.4354    0.5119 C.ar    1  LIG1        0.0346
     36 H          -5.0389   -4.2405    0.6520 H       1  LIG1        0.0643
     37 C          -7.1480   -0.3791   -0.7103 C.1     1  LIG1       -0.0690
     38 C          -7.1938    0.7542   -1.1155 C.1     1  LIG1       -0.1139
     39 H          -7.2258    1.7565   -1.4758 H       1  LIG1        0.1232
     40 N          -7.1590   -5.7920    0.8909 N.pl3   1  LIG1       -0.3574
     41 H          -7.7535   -6.3668    0.3041 H       1  LIG1        0.1423
     42 H          -6.2238   -6.1777    0.9188 H       1  LIG1        0.1423
     43 C          -9.6841   -4.4368    0.3669 C.ar    1  LIG1        0.0943
     44 C         -10.9034   -4.1546   -0.2245 C.ar    1  LIG1        0.1869
     45 C         -11.8697   -5.0500    0.3098 C.ar    1  LIG1        0.1794
     46 C         -11.2270   -5.8553    1.2167 C.ar    1  LIG1        0.0481
     47 N          -9.9107   -5.4865    1.2331 N.ar    1  LIG1       -0.3546
     48 H          -9.1971   -5.8458    1.8487 H       1  LIG1        0.1656
     49 H         -11.6081   -6.6622    1.8220 H       1  LIG1        0.0845
     50 O         -11.1461   -3.1647   -1.1364 O.3     1  LIG1       -0.4895
     51 C         -11.5177   -3.6510   -2.4221 C.3     1  LIG1        0.0791
     52 H         -11.7241   -2.7764   -3.0403 H       1  LIG1        0.0660
     53 H         -10.7012   -4.2286   -2.8695 H       1  LIG1        0.0660
     54 H         -12.4111   -4.2797   -2.3597 H       1  LIG1        0.0660
     55 O         -13.1855   -5.1317   -0.0498 O.3     1  LIG1       -0.4900
     56 C         -13.9426   -3.9815    0.3080 C.3     1  LIG1        0.0790
     57 H         -14.9570   -4.1475   -0.0576 H       1  LIG1        0.0660
     58 H         -13.9648   -3.8529    1.3964 H       1  LIG1        0.0660
     59 H         -13.5297   -3.0768   -0.1492 H       1  LIG1        0.0660
@<TRIPOS>BOND
     1    52    51    1
     2    53    51    1
     3    24    22    1
     4    23    22    1
     5    51    54    1
     6    51    50    1
     7    22    15    1
     8    39    38    1
     9    50    44    1
    10    38    37    3
    11    12     9    1
    12    15    20   ar
    13    15    16   ar
    14     6     5    1
    15    20    19   ar
    16     7     1    1
    17    37    29    1
    18     5     1   ar
    19     5     4   ar
    20     1     2   ar
    21    33    30    1
    22    29    30   ar
    23    29    31   ar
    24    44    45   ar
    25    44    43   ar
    26     4    16    1
    27     4     3   ar
    28    30    32   ar
    29    59    56    1
    30    16    17   ar
    31    57    56    1
    32    55    56    1
    33    55    45    1
    34     2     3   ar
    35     2     8    1
    36     9     8    1
    37     9    10    1
    38     9    11    1
    39    19    31    1
    40    19    18   ar
    41    31    34   ar
    42     3    14    1
    43    32    43    1
    44    32    35   ar
    45    41    40    1
    46    56    58    1
    47    45    46   ar
    48    43    47   ar
    49    34    35   ar
    50    34    36    1
    51    35    40    1
    52    14    13    3
    53    17    18   ar
    54    17    21    1
    55    18    25    1
    56    40    42    1
    57    46    47   ar
    58    46    49    1
    59    47    48    1
    60    27    25    1
    61    25    26    1
    62    25    28    1
