@<TRIPOS>MOLECULE
mol_data/opt/cam/geoms/mol2/13ld13ld13ld.out
 41 43 0 0 0
SMALL
GASTEIGER

@<TRIPOS>ATOM
      1 C           0.8091    1.3861   -0.0121 C.ar    1  LIG1        0.0457
      2 C           0.8042    0.6264   -1.1535 C.ar    1  LIG1        0.1553
      3 C          -0.3363   -0.2321   -1.1014 C.ar    1  LIG1        0.1200
      4 C          -0.9987    0.0425    0.0964 C.ar    1  LIG1        0.0878
      5 N          -0.2962    1.0121    0.7299 N.ar    1  LIG1       -0.3553
      6 H          -0.5774    1.3848    1.6243 H       1  LIG1        0.1655
      7 H           1.4876    2.1466    0.3340 H       1  LIG1        0.0845
      8 O           1.6625    0.6111   -2.1913 O.3     1  LIG1       -0.4923
      9 C           2.7414    1.5183   -2.0973 C.3     1  LIG1        0.0789
     10 H           3.3385    1.3887   -2.9989 H       1  LIG1        0.0660
     11 H           2.3820    2.5530   -2.0424 H       1  LIG1        0.0660
     12 H           3.3590    1.3056   -1.2162 H       1  LIG1        0.0660
     13 N          -1.1290   -1.9832   -2.8108 N.1     1  LIG1       -0.1907
     14 C          -0.7408   -1.1852   -2.0635 C.1     1  LIG1        0.1050
     15 C          -2.1960   -0.5202    0.6623 C.ar    1  LIG1        0.1083
     16 C          -2.8237   -0.2219    1.8544 C.ar    1  LIG1        0.1647
     17 C          -3.9783   -1.0555    1.9603 C.ar    1  LIG1        0.1207
     18 C          -4.0075   -1.8467    0.8004 C.ar    1  LIG1        0.0883
     19 N          -2.9392   -1.5085    0.0483 N.ar    1  LIG1       -0.3478
     20 H          -2.7389   -1.9448   -0.8461 H       1  LIG1        0.1661
     21 O          -2.3320    0.7215    2.6944 O.3     1  LIG1       -0.4916
     22 C          -3.0238    0.9575    3.9133 C.3     1  LIG1        0.0789
     23 H          -2.4640    1.7340    4.4332 H       1  LIG1        0.0660
     24 H          -4.0433    1.3066    3.7274 H       1  LIG1        0.0660
     25 H          -3.0542    0.0554    4.5308 H       1  LIG1        0.0660
     26 N          -5.8161   -1.3118    3.7403 N.1     1  LIG1       -0.1907
     27 C          -4.9615   -1.1545    2.9703 C.1     1  LIG1        0.1050
     28 C          -4.9331   -2.8581    0.3673 C.ar    1  LIG1        0.1078
     29 C          -4.8905   -3.5998   -0.8008 C.ar    1  LIG1        0.1640
     30 C          -6.0162   -4.4770   -0.7974 C.ar    1  LIG1        0.1112
     31 C          -6.7014   -4.2282    0.3850 C.ar    1  LIG1        0.0233
     32 N          -6.0519   -3.2678    1.0678 N.ar    1  LIG1       -0.3553
     33 H          -6.3334   -2.8934    1.9636 H       1  LIG1        0.1655
     34 H          -7.6039   -4.6872    0.7562 H       1  LIG1        0.0821
     35 O          -3.8961   -3.4133   -1.6887 O.3     1  LIG1       -0.4916
     36 C          -3.8633   -4.1721   -2.8957 C.3     1  LIG1        0.0789
     37 H          -2.9759   -3.8248   -3.4216 H       1  LIG1        0.0660
     38 H          -3.7836   -5.2406   -2.6802 H       1  LIG1        0.0660
     39 H          -4.7579   -3.9858   -3.4954 H       1  LIG1        0.0660
     40 N          -6.7642   -6.2209   -2.5424 N.1     1  LIG1       -0.1907
     41 C          -6.4195   -5.4350   -1.7651 C.1     1  LIG1        0.1044
@<TRIPOS>BOND
     1    39    36    1
     2    37    36    1
     3    10     9    1
     4    36    38    1
     5    36    35    1
     6    13    14    3
     7    40    41    3
     8     8     9    1
     9     8     2    1
    10     9    11    1
    11     9    12    1
    12    14     3    1
    13    41    30    1
    14    35    29    1
    15     2     3   ar
    16     2     1   ar
    17     3     4   ar
    18    20    19    1
    19    29    30   ar
    20    29    28   ar
    21    30    31   ar
    22     1     7    1
    23     1     5   ar
    24    19    15   ar
    25    19    18   ar
    26     4    15    1
    27     4     5   ar
    28    28    18    1
    29    28    32   ar
    30    31    34    1
    31    31    32   ar
    32    15    16   ar
    33     5     6    1
    34    18    17   ar
    35    32    33    1
    36    16    17   ar
    37    16    21    1
    38    17    27    1
    39    21    22    1
    40    27    26    3
    41    24    22    1
    42    22    23    1
    43    22    25    1
