@<TRIPOS>MOLECULE
mol_data/opt/cam/geoms/mol2/13ld13ld-13ld13ld-.out
 54 57 0 0 0
SMALL
GASTEIGER

@<TRIPOS>ATOM
      1 C           1.3905   -0.7199   -0.0049 C.ar    1  LIG1        0.0457
      2 C           1.0418    0.6054   -0.0392 C.ar    1  LIG1        0.1553
      3 C          -0.3848    0.6818   -0.0403 C.ar    1  LIG1        0.1200
      4 C          -0.8630   -0.6298   -0.0059 C.ar    1  LIG1        0.0878
      5 N           0.2154   -1.4491    0.0149 N.ar    1  LIG1       -0.3553
      6 H           0.1280   -2.4539    0.0411 H       1  LIG1        0.1655
      7 H           2.3524   -1.2029    0.0073 H       1  LIG1        0.0845
      8 O           1.8156    1.7075   -0.0684 O.3     1  LIG1       -0.4923
      9 C           3.2081    1.4689   -0.0629 C.3     1  LIG1        0.0789
     10 H           3.6927    2.4440   -0.0887 H       1  LIG1        0.0660
     11 H           3.5121    0.9334    0.8446 H       1  LIG1        0.0660
     12 H           3.5111    0.8868   -0.9417 H       1  LIG1        0.0660
     13 N          -1.8990    2.7606   -0.0933 N.1     1  LIG1       -0.1907
     14 C          -1.1844    1.8468   -0.0701 C.1     1  LIG1        0.1050
     15 C          -2.2069   -1.1423    0.0083 C.ar    1  LIG1        0.1083
     16 C          -2.6459   -2.4499    0.0428 C.ar    1  LIG1        0.1647
     17 C          -4.0748   -2.4331    0.0431 C.ar    1  LIG1        0.1207
     18 C          -4.4568   -1.0805    0.0078 C.ar    1  LIG1        0.0883
     19 N          -3.3289   -0.3384   -0.0122 N.ar    1  LIG1       -0.3478
     20 H          -3.3403    0.6759   -0.0390 H       1  LIG1        0.1661
     21 O          -1.7696   -3.4842    0.0696 O.3     1  LIG1       -0.4916
     22 C          -2.2900   -4.8063    0.1019 C.3     1  LIG1        0.0789
     23 H          -1.4263   -5.4698    0.1182 H       1  LIG1        0.0660
     24 H          -2.8933   -4.9716    0.9988 H       1  LIG1        0.0660
     25 H          -2.8930   -5.0153   -0.7860 H       1  LIG1        0.0660
     26 N          -5.8171   -4.3263    0.0934 N.1     1  LIG1       -0.1907
     27 C          -5.0023   -3.4998    0.0714 C.1     1  LIG1        0.1050
     28 C          -5.7507   -0.4601   -0.0077 C.ar    1  LIG1        0.1083
     29 C          -6.0430    0.8917   -0.0441 C.ar    1  LIG1        0.1647
     30 C          -7.4614    1.0299   -0.0464 C.ar    1  LIG1        0.1207
     31 C          -7.9904   -0.2717   -0.0105 C.ar    1  LIG1        0.0883
     32 N          -6.9551   -1.1371    0.0119 N.ar    1  LIG1       -0.3478
     33 H          -7.0863   -2.1425    0.0396 H       1  LIG1        0.1661
     34 O          -5.0569    1.8064   -0.0704 O.3     1  LIG1       -0.4916
     35 C          -5.3758    3.1942   -0.1028 C.3     1  LIG1        0.0789
     36 H          -5.9478    3.4403   -1.0017 H       1  LIG1        0.0660
     37 H          -5.9442    3.4827    0.7858 H       1  LIG1        0.0660
     38 H          -4.4144    3.7047   -0.1169 H       1  LIG1        0.0660
     39 N          -9.0381    3.0600   -0.1007 N.1     1  LIG1       -0.1907
     40 C          -8.2775    2.1835   -0.0772 C.1     1  LIG1        0.1050
     41 C          -9.3499   -0.7389    0.0033 C.ar    1  LIG1        0.1078
     42 C          -9.7960   -2.0487    0.0395 C.ar    1  LIG1        0.1640
     43 C         -11.2226   -2.0203    0.0391 C.ar    1  LIG1        0.1112
     44 C         -11.5860   -0.6800    0.0023 C.ar    1  LIG1        0.0233
     45 N         -10.4697    0.0705   -0.0186 N.ar    1  LIG1       -0.3553
     46 H         -10.4425    1.0810   -0.0463 H       1  LIG1        0.1655
     47 H         -12.5723   -0.2439   -0.0094 H       1  LIG1        0.0821
     48 O          -8.9148   -3.0679    0.0682 O.3     1  LIG1       -0.4916
     49 C          -9.3838   -4.4135    0.0959 C.3     1  LIG1        0.0789
     50 H          -8.4838   -5.0257    0.1109 H       1  LIG1        0.0660
     51 H          -9.9826   -4.5987    0.9913 H       1  LIG1        0.0660
     52 H          -9.9786   -4.6367   -0.7934 H       1  LIG1        0.0660
     53 N         -12.9153   -3.9639    0.0941 N.1     1  LIG1       -0.1907
     54 C         -12.1480   -3.0971    0.0695 C.1     1  LIG1        0.1044
@<TRIPOS>BOND
     1    36    35    1
     2    12     9    1
     3    52    49    1
     4    25    22    1
     5    38    35    1
     6    35    34    1
     7    35    37    1
     8    39    40    3
     9    13    14    3
    10    10     9    1
    11    40    30    1
    12    34    29    1
    13    14     3    1
    14     8     9    1
    15     8     2    1
    16     9    11    1
    17    30    29   ar
    18    30    31   ar
    19    46    45    1
    20    29    28   ar
    21     3     2   ar
    22     3     4   ar
    23     2     1   ar
    24    20    19    1
    25    45    44   ar
    26    45    41   ar
    27    19    18   ar
    28    19    15   ar
    29    31    41    1
    30    31    32   ar
    31    47    44    1
    32    28    18    1
    33    28    32   ar
    34     4    15    1
    35     4     5   ar
    36     1     7    1
    37     1     5   ar
    38    44    43   ar
    39    41    42   ar
    40    18    17   ar
    41    15    16   ar
    42    32    33    1
    43     5     6    1
    44    43    42   ar
    45    43    54    1
    46    42    48    1
    47    16    17   ar
    48    16    21    1
    49    17    27    1
    50    48    49    1
    51    54    53    3
    52    21    22    1
    53    27    26    3
    54    49    50    1
    55    49    51    1
    56    22    23    1
    57    22    24    1
