@<TRIPOS>MOLECULE
mol_data/opt/cam/geoms/mol2/13ld13ld13ld-13ld.out
 54 57 0 0 0
SMALL
GASTEIGER

@<TRIPOS>ATOM
      1 C           1.0069    1.3834    0.3961 C.ar    1  LIG1        0.0457
      2 C           1.6237    0.2198    0.0155 C.ar    1  LIG1        0.1553
      3 C           0.6187   -0.7884   -0.1041 C.ar    1  LIG1        0.1200
      4 C          -0.6009   -0.1878    0.2154 C.ar    1  LIG1        0.0878
      5 N          -0.3438    1.1089    0.5106 N.ar    1  LIG1       -0.3553
      6 H          -1.0718    1.7556    0.7747 H       1  LIG1        0.1655
      7 H           1.3997    2.3661    0.5927 H       1  LIG1        0.0845
      8 O           2.9237   -0.0359   -0.2272 O.3     1  LIG1       -0.4923
      9 C           3.7964    1.0634   -0.0665 C.3     1  LIG1        0.0789
     10 H           4.7986    0.7033   -0.2951 H       1  LIG1        0.0660
     11 H           3.5349    1.8774   -0.7535 H       1  LIG1        0.0660
     12 H           3.7694    1.4402    0.9632 H       1  LIG1        0.0660
     13 N           0.8705   -3.2606   -0.7690 N.1     1  LIG1       -0.1907
     14 C           0.7961   -2.1411   -0.4733 C.1     1  LIG1        0.1050
     15 C          -1.9335   -0.7274    0.2599 C.ar    1  LIG1        0.1083
     16 C          -3.1215   -0.1031    0.5802 C.ar    1  LIG1        0.1647
     17 C          -4.1676   -1.0710    0.4765 C.ar    1  LIG1        0.1207
     18 C          -3.5573   -2.2763    0.0872 C.ar    1  LIG1        0.0883
     19 N          -2.2328   -2.0426   -0.0335 N.ar    1  LIG1       -0.3478
     20 H          -1.5717   -2.7625   -0.3061 H       1  LIG1        0.1661
     21 O          -3.1560    1.2094    0.9184 O.3     1  LIG1       -0.4916
     22 C          -4.4136    1.7890    1.2384 C.3     1  LIG1        0.0789
     23 H          -4.2125    2.8327    1.4768 H       1  LIG1        0.0660
     24 H          -5.1009    1.7352    0.3897 H       1  LIG1        0.0660
     25 H          -4.8658    1.2982    2.1046 H       1  LIG1        0.0660
     26 N          -6.7065   -0.9075    0.8632 N.1     1  LIG1       -0.1907
     27 C          -5.5581   -0.9427    0.6982 C.1     1  LIG1        0.1050
     28 C          -4.1052   -3.5777   -0.1691 C.ar    1  LIG1        0.1083
     29 C          -3.4290   -4.7226   -0.5513 C.ar    1  LIG1        0.1647
     30 C          -4.3875   -5.7684   -0.6878 C.ar    1  LIG1        0.1207
     31 C          -5.6383   -5.2081   -0.3768 C.ar    1  LIG1        0.0883
     32 N          -5.4434   -3.9078   -0.0725 N.ar    1  LIG1       -0.3478
     33 H          -6.2044   -3.2894    0.1870 H       1  LIG1        0.1661
     34 O          -2.0952   -4.7056   -0.7258 O.3     1  LIG1       -0.4916
     35 C          -1.4163   -5.8911   -1.1289 C.3     1  LIG1        0.0789
     36 H          -0.3681   -5.6062   -1.1996 H       1  LIG1        0.0660
     37 H          -1.5436   -6.6832   -0.3857 H       1  LIG1        0.0660
     38 H          -1.7809   -6.2359   -2.1006 H       1  LIG1        0.0660
     39 N          -4.2138   -8.2491   -1.3406 N.1     1  LIG1       -0.1907
     40 C          -4.2296   -7.1246   -1.0532 C.1     1  LIG1        0.1050
     41 C          -6.9528   -5.7893   -0.3471 C.ar    1  LIG1        0.1078
     42 C          -8.1477   -5.1678   -0.0283 C.ar    1  LIG1        0.1640
     43 C          -9.1846   -6.1421   -0.1354 C.ar    1  LIG1        0.1112
     44 C          -8.5685   -7.3267   -0.5189 C.ar    1  LIG1        0.0233
     45 N          -7.2470   -7.1070   -0.6416 N.ar    1  LIG1       -0.3553
     46 H          -6.5596   -7.7986   -0.9097 H       1  LIG1        0.1655
     47 H          -9.0104   -8.2928   -0.7043 H       1  LIG1        0.0821
     48 O          -8.1687   -3.8621    0.3050 O.3     1  LIG1       -0.4916
     49 C          -9.4030   -3.2325    0.6380 C.3     1  LIG1        0.0789
     50 H         -10.0987   -3.2696   -0.2042 H       1  LIG1        0.0660
     51 H          -9.8599   -3.7080    1.5098 H       1  LIG1        0.0660
     52 H          -9.1411   -2.2006    0.8655 H       1  LIG1        0.0660
     53 N         -11.7205   -5.9092    0.2652 N.1     1  LIG1       -0.1907
     54 C         -10.5803   -6.0048    0.0874 C.1     1  LIG1        0.1044
@<TRIPOS>BOND
     1    38    35    1
     2    39    40    3
     3    36    35    1
     4    35    34    1
     5    35    37    1
     6    40    30    1
     7    46    45    1
     8    13    14    3
     9    11     9    1
    10    34    29    1
    11    47    44    1
    12    30    29   ar
    13    30    31   ar
    14    45    44   ar
    15    45    41   ar
    16    29    28   ar
    17    44    43   ar
    18    14     3    1
    19    31    41    1
    20    31    32   ar
    21    41    42   ar
    22    20    19    1
    23    10     9    1
    24     8     9    1
    25     8     2    1
    26    50    49    1
    27    28    32   ar
    28    28    18    1
    29    43    42   ar
    30    43    54    1
    31     3     2   ar
    32     3     4   ar
    33    32    33    1
    34     9    12    1
    35    19    18   ar
    36    19    15   ar
    37    42    48    1
    38     2     1   ar
    39    18    17   ar
    40    54    53    3
    41     4    15    1
    42     4     5   ar
    43    15    16   ar
    44    48    49    1
    45    24    22    1
    46     1     5   ar
    47     1     7    1
    48    17    16   ar
    49    17    27    1
    50     5     6    1
    51    16    21    1
    52    49    52    1
    53    49    51    1
    54    27    26    3
    55    21    22    1
    56    22    23    1
    57    22    25    1
