@<TRIPOS>MOLECULE
mol_data/opt/cam/geoms/mol2/13ld13ld-13ld-13ld-.out
 54 57 0 0 0
SMALL
GASTEIGER

@<TRIPOS>ATOM
      1 C           1.0843   -0.3032    0.0820 C.ar    1  LIG1        0.0457
      2 C           0.6112    0.9764    0.2189 C.ar    1  LIG1        0.1553
      3 C          -0.8163    0.9137    0.2154 C.ar    1  LIG1        0.1200
      4 C          -1.1650   -0.4343    0.0759 C.ar    1  LIG1        0.0878
      5 N          -0.0161   -1.1408   -0.0012 N.ar    1  LIG1       -0.3553
      6 H          -0.0049   -2.1422   -0.1260 H       1  LIG1        0.1655
      7 H           2.0882   -0.6889    0.0375 H       1  LIG1        0.0845
      8 O           1.2738    2.1414    0.3389 O.3     1  LIG1       -0.4923
      9 C           2.6845    2.0418    0.3213 C.3     1  LIG1        0.0789
     10 H           3.0701    3.0549    0.4256 H       1  LIG1        0.0660
     11 H           3.0448    1.4256    1.1536 H       1  LIG1        0.0660
     12 H           3.0358    1.6119   -0.6242 H       1  LIG1        0.0660
     13 N          -2.6401    2.7174    0.3630 N.1     1  LIG1       -0.1907
     14 C          -1.7579    1.9630    0.3028 C.1     1  LIG1        0.1050
     15 C          -2.4655   -1.0387    0.0066 C.ar    1  LIG1        0.1083
     16 C          -2.8548   -2.3389   -0.2444 C.ar    1  LIG1        0.1647
     17 C          -4.2870   -2.3764   -0.2502 C.ar    1  LIG1        0.1207
     18 C          -4.7190   -1.0721    0.0172 C.ar    1  LIG1        0.0883
     19 N          -3.6182   -0.3003    0.1610 N.ar    1  LIG1       -0.3478
     20 H          -3.6321    0.6592    0.4766 H       1  LIG1        0.1661
     21 O          -1.9312   -3.3060   -0.4508 O.3     1  LIG1       -0.4916
     22 C          -2.3772   -4.6487   -0.6141 C.3     1  LIG1        0.0789
     23 H          -1.4757   -5.2540   -0.6999 H       1  LIG1        0.0660
     24 H          -2.9589   -4.9771    0.2513 H       1  LIG1        0.0660
     25 H          -2.9798   -4.7578   -1.5186 H       1  LIG1        0.0660
     26 N          -5.8546   -4.3356   -0.8351 N.1     1  LIG1       -0.1907
     27 C          -5.1495   -3.4585   -0.5601 C.1     1  LIG1        0.1050
     28 C          -6.0104   -0.4406    0.1045 C.ar    1  LIG1        0.1083
     29 C          -7.2433   -0.8620    0.5448 C.ar    1  LIG1        0.1647
     30 C          -8.1164    0.2766    0.5479 C.ar    1  LIG1        0.1207
     31 C          -7.3752    1.3676    0.1075 C.ar    1  LIG1        0.0883
     32 N          -6.1084    0.9261   -0.1320 N.ar    1  LIG1       -0.3478
     33 H          -5.4479    1.4381   -0.6985 H       1  LIG1        0.1661
     34 O          -7.4898   -2.0982    1.0145 O.3     1  LIG1       -0.4916
     35 C          -8.5831   -2.8030    0.4189 C.3     1  LIG1        0.0789
     36 H          -8.6237   -3.7675    0.9220 H       1  LIG1        0.0660
     37 H          -9.5256   -2.2704    0.5670 H       1  LIG1        0.0660
     38 H          -8.3970   -2.9626   -0.6464 H       1  LIG1        0.0660
     39 N         -10.5192    0.3191    1.4747 N.1     1  LIG1       -0.1907
     40 C          -9.4428    0.3123    1.0471 C.1     1  LIG1        0.1050
     41 C          -7.7060    2.7613   -0.0617 C.ar    1  LIG1        0.1078
     42 C          -8.8843    3.3759   -0.4312 C.ar    1  LIG1        0.1640
     43 C          -8.6339    4.7849   -0.4780 C.ar    1  LIG1        0.1112
     44 C          -7.3057    4.9698   -0.1408 C.ar    1  LIG1        0.0233
     45 N          -6.7533    3.7589    0.0900 N.ar    1  LIG1       -0.3553
     46 H          -5.8164    3.6150    0.4382 H       1  LIG1        0.1655
     47 H          -6.7404    5.8841   -0.0523 H       1  LIG1        0.0821
     48 O          -9.9945    2.6997   -0.7777 O.3     1  LIG1       -0.4916
     49 C         -11.2221    3.1156   -0.1728 C.3     1  LIG1        0.0789
     50 H         -11.9821    2.4312   -0.5453 H       1  LIG1        0.0660
     51 H         -11.1617    3.0230    0.9145 H       1  LIG1        0.0660
     52 H         -11.4769    4.1394   -0.4563 H       1  LIG1        0.0660
     53 N         -10.2697    6.6593   -1.1528 N.1     1  LIG1       -0.1907
     54 C          -9.5344    5.8181   -0.8491 C.1     1  LIG1        0.1044
@<TRIPOS>BOND
     1    25    22    1
     2    53    54    3
     3    54    43    1
     4    26    27    3
     5    48    42    1
     6    48    49    1
     7    23    22    1
     8    33    32    1
     9    38    35    1
    10    12     9    1
    11    22    21    1
    12    22    24    1
    13    27    17    1
    14    50    49    1
    15    43    42   ar
    16    43    44   ar
    17    52    49    1
    18    21    16    1
    19    42    41   ar
    20    17    16   ar
    21    17    18   ar
    22    16    15   ar
    23    49    51    1
    24    44    47    1
    25    44    45   ar
    26    32    28   ar
    27    32    31   ar
    28     6     5    1
    29    41    45   ar
    30    41    31    1
    31     5     4   ar
    32     5     1   ar
    33    15     4    1
    34    15    19   ar
    35    18    28    1
    36    18    19   ar
    37     7     1    1
    38     4     3   ar
    39     1     2   ar
    40    45    46    1
    41    28    29   ar
    42    31    30   ar
    43    19    20    1
    44     3     2   ar
    45     3    14    1
    46     2     8    1
    47    14    13    3
    48     9     8    1
    49     9    10    1
    50     9    11    1
    51    35    37    1
    52    35    36    1
    53    35    34    1
    54    29    30   ar
    55    29    34    1
    56    30    40    1
    57    40    39    3
