@<TRIPOS>MOLECULE
mol_data/opt/cam/geoms/mol2/13ld13ld-13ld-13ld.out
 54 57 0 0 0
SMALL
GASTEIGER

@<TRIPOS>ATOM
      1 C           1.1634   -0.6094   -0.0258 C.ar    1  LIG1        0.0457
      2 C           0.7766    0.6880   -0.2424 C.ar    1  LIG1        0.1553
      3 C          -0.6516    0.7187   -0.2512 C.ar    1  LIG1        0.1200
      4 C          -1.0907   -0.5904   -0.0377 C.ar    1  LIG1        0.0878
      5 N           0.0103   -1.3653    0.0938 N.ar    1  LIG1       -0.3553
      6 H          -0.0488   -2.3551    0.2817 H       1  LIG1        0.1655
      7 H           2.1392   -1.0568    0.0533 H       1  LIG1        0.0845
      8 O           1.5156    1.7986   -0.4225 O.3     1  LIG1       -0.4923
      9 C           2.9158    1.6081   -0.3798 C.3     1  LIG1        0.0789
     10 H           3.3689    2.5858   -0.5376 H       1  LIG1        0.0660
     11 H           3.2289    1.2124    0.5937 H       1  LIG1        0.0660
     12 H           3.2431    0.9215   -1.1697 H       1  LIG1        0.0660
     13 N          -2.2999    2.6715   -0.5139 N.1     1  LIG1       -0.1907
     14 C          -1.5073    1.8303   -0.4038 C.1     1  LIG1        0.1050
     15 C          -2.4218   -1.1249    0.0531 C.ar    1  LIG1        0.1083
     16 C          -2.8401   -2.4011    0.3671 C.ar    1  LIG1        0.1647
     17 C          -4.2692   -2.4123    0.3589 C.ar    1  LIG1        0.1207
     18 C          -4.6775   -1.1177    0.0131 C.ar    1  LIG1        0.0883
     19 N          -3.5596   -0.3697   -0.1546 N.ar    1  LIG1       -0.3478
     20 H          -3.5440    0.5811   -0.4974 H       1  LIG1        0.1661
     21 O          -1.9422   -3.3774    0.6435 O.3     1  LIG1       -0.4916
     22 C          -2.3975   -4.7267    0.6927 C.3     1  LIG1        0.0789
     23 H          -1.5020   -5.3406    0.7818 H       1  LIG1        0.0660
     24 H          -3.0446   -4.8950    1.5555 H       1  LIG1        0.0660
     25 H          -2.9353   -4.9916   -0.2218 H       1  LIG1        0.0660
     26 N          -5.8244   -4.3205    1.1185 N.1     1  LIG1       -0.1907
     27 C          -5.1349   -3.4617    0.7586 C.1     1  LIG1        0.1050
     28 C          -5.9867   -0.5328   -0.1298 C.ar    1  LIG1        0.1083
     29 C          -7.1938   -1.0804   -0.5134 C.ar    1  LIG1        0.1647
     30 C          -8.1579   -0.0244   -0.5310 C.ar    1  LIG1        0.1207
     31 C          -7.4885    1.1491   -0.1727 C.ar    1  LIG1        0.0883
     32 N          -6.1943    0.8261    0.0524 N.ar    1  LIG1       -0.3478
     33 H          -5.5312    1.5120    0.3920 H       1  LIG1        0.1661
     34 O          -7.3413   -2.3608   -0.8968 O.3     1  LIG1       -0.4916
     35 C          -8.4494   -3.0775   -0.3513 C.3     1  LIG1        0.0789
     36 H          -8.3489   -4.0998   -0.7109 H       1  LIG1        0.0660
     37 H          -8.4052   -3.0790    0.7408 H       1  LIG1        0.0660
     38 H          -9.3999   -2.6586   -0.6924 H       1  LIG1        0.0660
     39 N         -10.6548    0.0100   -1.1457 N.1     1  LIG1       -0.1907
     40 C          -9.5266   -0.0589   -0.8820 C.1     1  LIG1        0.1050
     41 C          -7.9494    2.5035   -0.0324 C.ar    1  LIG1        0.1078
     42 C          -7.2045    3.6321    0.2578 C.ar    1  LIG1        0.1640
     43 C          -8.0964    4.7461    0.2720 C.ar    1  LIG1        0.1112
     44 C          -9.3573    4.2420   -0.0149 C.ar    1  LIG1        0.0233
     45 N          -9.2602    2.9103   -0.1884 N.ar    1  LIG1       -0.3553
     46 H         -10.0242    2.2922   -0.4264 H       1  LIG1        0.1655
     47 H         -10.2969    4.7650   -0.0965 H       1  LIG1        0.0821
     48 O          -5.8766    3.5541    0.4938 O.3     1  LIG1       -0.4916
     49 C          -5.0711    4.7161    0.2619 C.3     1  LIG1        0.0789
     50 H          -4.0429    4.3599    0.2269 H       1  LIG1        0.0660
     51 H          -5.3328    5.1757   -0.6948 H       1  LIG1        0.0660
     52 H          -5.2038    5.4430    1.0658 H       1  LIG1        0.0660
     53 N          -7.6006    7.2242    0.7799 N.1     1  LIG1       -0.1907
     54 C          -7.8178    6.1104    0.5500 C.1     1  LIG1        0.1044
@<TRIPOS>BOND
     1    12     9    1
     2    39    40    3
     3    34    29    1
     4    34    35    1
     5    40    30    1
     6    36    35    1
     7    51    49    1
     8    38    35    1
     9    10     9    1
    10    30    29   ar
    11    30    31   ar
    12    13    14    3
    13    29    28   ar
    14    20    19    1
    15    46    45    1
    16     8     9    1
    17     8     2    1
    18    14     3    1
    19     9    11    1
    20    35    37    1
    21     3     2   ar
    22     3     4   ar
    23     2     1   ar
    24    25    22    1
    25    45    41   ar
    26    45    44   ar
    27    31    41    1
    28    31    32   ar
    29    19    18   ar
    30    19    15   ar
    31    28    18    1
    32    28    32   ar
    33    47    44    1
    34     4    15    1
    35     4     5   ar
    36    41    42   ar
    37     1     7    1
    38     1     5   ar
    39    44    43   ar
    40    18    17   ar
    41    32    33    1
    42    15    16   ar
    43     5     6    1
    44    50    49    1
    45    42    43   ar
    46    42    48    1
    47    49    48    1
    48    49    52    1
    49    43    54    1
    50    17    16   ar
    51    17    27    1
    52    16    21    1
    53    54    53    3
    54    21    22    1
    55    22    23    1
    56    22    24    1
    57    27    26    3
