@<TRIPOS>MOLECULE
mol_data/opt/cam/geoms/mol2/13ld13ld-13ld.out
 41 43 0 0 0
SMALL
GASTEIGER

@<TRIPOS>ATOM
      1 C           1.3782   -0.6779   -0.0745 C.ar    1  LIG1        0.0457
      2 C           1.0197    0.6451   -0.0436 C.ar    1  LIG1        0.1553
      3 C          -0.4071    0.7102   -0.0195 C.ar    1  LIG1        0.1200
      4 C          -0.8754   -0.6049   -0.0370 C.ar    1  LIG1        0.0878
      5 N           0.2089   -1.4162   -0.0696 N.ar    1  LIG1       -0.3553
      6 H           0.1296   -2.4218   -0.0882 H       1  LIG1        0.1655
      7 H           2.3434   -1.1537   -0.0986 H       1  LIG1        0.0845
      8 O           1.7852    1.7532   -0.0347 O.3     1  LIG1       -0.4923
      9 C           3.1793    1.5255   -0.0613 C.3     1  LIG1        0.0789
     10 H           3.6563    2.5046   -0.0505 H       1  LIG1        0.0660
     11 H           3.5013    0.9522    0.8164 H       1  LIG1        0.0660
     12 H           3.4727    0.9860   -0.9700 H       1  LIG1        0.0660
     13 N          -1.9365    2.7775    0.0444 N.1     1  LIG1       -0.1907
     14 C          -1.2153    1.8692    0.0155 C.1     1  LIG1        0.1050
     15 C          -2.2153   -1.1289   -0.0258 C.ar    1  LIG1        0.1083
     16 C          -2.6413   -2.4413   -0.0444 C.ar    1  LIG1        0.1647
     17 C          -4.0690   -2.4374   -0.0216 C.ar    1  LIG1        0.1207
     18 C          -4.4643   -1.0901    0.0108 C.ar    1  LIG1        0.0883
     19 N          -3.3451   -0.3360    0.0077 N.ar    1  LIG1       -0.3478
     20 H          -3.3683    0.6787    0.0276 H       1  LIG1        0.1661
     21 O          -1.7585   -3.4696   -0.0784 O.3     1  LIG1       -0.4916
     22 C          -2.2748   -4.7936   -0.0974 C.3     1  LIG1        0.0789
     23 H          -1.4098   -5.4550   -0.1247 H       1  LIG1        0.0660
     24 H          -2.8631   -5.0007    0.8010 H       1  LIG1        0.0660
     25 H          -2.8914   -4.9641   -0.9843 H       1  LIG1        0.0660
     26 N          -5.8421   -4.2996   -0.0291 N.1     1  LIG1       -0.1907
     27 C          -4.9998   -3.5005   -0.0272 C.1     1  LIG1        0.1050
     28 C          -5.7689   -0.4866    0.0432 C.ar    1  LIG1        0.1078
     29 C          -6.0765    0.8627    0.0740 C.ar    1  LIG1        0.1640
     30 C          -7.4984    0.9817    0.0990 C.ar    1  LIG1        0.1112
     31 C          -7.9989   -0.3139    0.0820 C.ar    1  LIG1        0.0233
     32 N          -6.9666   -1.1763    0.0490 N.ar    1  LIG1       -0.3553
     33 H          -7.0453   -2.1840    0.0311 H       1  LIG1        0.1655
     34 H          -9.0250   -0.6456    0.0920 H       1  LIG1        0.0821
     35 O          -5.0949    1.7839    0.0760 O.3     1  LIG1       -0.4916
     36 C          -5.4174    3.1726    0.1081 C.3     1  LIG1        0.0789
     37 H          -6.0034    3.4553   -0.7702 H       1  LIG1        0.0660
     38 H          -5.9749    3.4206    1.0149 H       1  LIG1        0.0660
     39 H          -4.4566    3.6841    0.1027 H       1  LIG1        0.0660
     40 N          -8.9849    3.0869    0.1631 N.1     1  LIG1       -0.1907
     41 C          -8.3082    2.1478    0.1343 C.1     1  LIG1        0.1044
@<TRIPOS>BOND
     1    25    22    1
     2    12     9    1
     3    37    36    1
     4    23    22    1
     5     7     1    1
     6    22    21    1
     7    22    24    1
     8     6     5    1
     9    21    16    1
    10     1     5   ar
    11     1     2   ar
    12     5     4   ar
    13     9    10    1
    14     9     8    1
    15     9    11    1
    16    16    15   ar
    17    16    17   ar
    18     2     8    1
    19     2     3   ar
    20     4    15    1
    21     4     3   ar
    22    26    27    3
    23    27    17    1
    24    15    19   ar
    25    17    18   ar
    26     3    14    1
    27    19    18   ar
    28    19    20    1
    29    18    28    1
    30    14    13    3
    31    33    32    1
    32    28    32   ar
    33    28    29   ar
    34    32    31   ar
    35    29    35    1
    36    29    30   ar
    37    35    36    1
    38    31    34    1
    39    31    30   ar
    40    30    41    1
    41    39    36    1
    42    36    38    1
    43    41    40    3
