@<TRIPOS>MOLECULE
mol_data/opt/cam/geoms/mol2/13le13le-13le-13le-.out
 58 61 0 0 0
SMALL
GASTEIGER

@<TRIPOS>ATOM
      1 C           1.0601   -0.4088   -0.3232 C.ar    1  LIG1        0.0457
      2 C           0.6160    0.7949   -0.8120 C.ar    1  LIG1        0.1533
      3 C          -0.8092    0.8204   -0.7099 C.ar    1  LIG1        0.0930
      4 C          -1.1831   -0.3996   -0.1501 C.ar    1  LIG1        0.0858
      5 N          -0.0542   -1.1198    0.0729 N.ar    1  LIG1       -0.3554
      6 H          -0.0802   -2.0337    0.5003 H       1  LIG1        0.1655
      7 H           2.0524   -0.8143   -0.2234 H       1  LIG1        0.0845
      8 O           1.3180    1.8314   -1.3208 O.3     1  LIG1       -0.4924
      9 C           2.7159    1.6500   -1.3531 C.3     1  LIG1        0.0789
     10 H           3.1417    2.5560   -1.7835 H       1  LIG1        0.0660
     11 H           3.1201    1.5019   -0.3437 H       1  LIG1        0.0660
     12 H           2.9895    0.7882   -1.9749 H       1  LIG1        0.0660
     13 C          -1.6776    1.8692   -1.1032 C.1     1  LIG1       -0.0638
     14 C          -2.4413    2.7466   -1.4276 C.1     1  LIG1       -0.1137
     15 H          -3.0804    3.5399   -1.7404 H       1  LIG1        0.1232
     16 C          -2.4822   -0.9244    0.1835 C.ar    1  LIG1        0.1081
     17 C          -2.8370   -2.1601    0.6786 C.ar    1  LIG1        0.1627
     18 C          -4.2528   -2.1879    0.8593 C.ar    1  LIG1        0.0937
     19 C          -4.7219   -0.9444    0.4429 C.ar    1  LIG1        0.0862
     20 N          -3.6428   -0.1964    0.0616 N.ar    1  LIG1       -0.3478
     21 H          -3.6768    0.7003   -0.4047 H       1  LIG1        0.1661
     22 O          -1.9204   -3.1268    0.9871 O.3     1  LIG1       -0.4917
     23 C          -2.1530   -4.3951    0.3755 C.3     1  LIG1        0.0789
     24 H          -1.3436   -5.0479    0.7039 H       1  LIG1        0.0660
     25 H          -3.1105   -4.8127    0.6926 H       1  LIG1        0.0660
     26 H          -2.1361   -4.3073   -0.7163 H       1  LIG1        0.0660
     27 C          -5.0190   -3.2287    1.4456 C.1     1  LIG1       -0.0638
     28 C          -5.6542   -4.1153    1.9567 C.1     1  LIG1       -0.1137
     29 H          -6.2338   -4.8863    2.4085 H       1  LIG1        0.1232
     30 C          -6.0574   -0.3871    0.4212 C.ar    1  LIG1        0.1082
     31 C          -7.2694   -0.9171    0.0359 C.ar    1  LIG1        0.1627
     32 C          -8.2690    0.0964    0.1769 C.ar    1  LIG1        0.0937
     33 C          -7.6239    1.2344    0.6438 C.ar    1  LIG1        0.0862
     34 N          -6.3011    0.9226    0.7906 N.ar    1  LIG1       -0.3478
     35 H          -5.5953    1.5699    1.1033 H       1  LIG1        0.1661
     36 O          -7.4531   -2.1958   -0.3736 O.3     1  LIG1       -0.4917
     37 C          -7.9095   -2.3366   -1.7135 C.3     1  LIG1        0.0789
     38 H          -7.9959   -3.4080   -1.8963 H       1  LIG1        0.0660
     39 H          -8.8848   -1.8630   -1.8558 H       1  LIG1        0.0660
     40 H          -7.1897   -1.9043   -2.4178 H       1  LIG1        0.0660
     41 C          -9.6619   -0.0612   -0.0459 C.1     1  LIG1       -0.0638
     42 C         -10.8405   -0.2297   -0.2326 C.1     1  LIG1       -0.1137
     43 H         -11.8828   -0.3869   -0.3861 H       1  LIG1        0.1232
     44 C          -8.1306    2.5454    1.0016 C.ar    1  LIG1        0.1077
     45 C          -8.9232    3.4343    0.3114 C.ar    1  LIG1        0.1620
     46 C          -9.0698    4.6142    1.1138 C.ar    1  LIG1        0.0842
     47 C          -8.3503    4.3914    2.2705 C.ar    1  LIG1        0.0213
     48 N          -7.7722    3.1653    2.1880 N.ar    1  LIG1       -0.3554
     49 H          -7.3129    2.6933    2.9496 H       1  LIG1        0.1655
     50 H          -8.2183    5.0293    3.1302 H       1  LIG1        0.0820
     51 O          -9.3733    3.2272   -0.9492 O.3     1  LIG1       -0.4917
     52 C         -10.7846    3.3148   -1.1158 C.3     1  LIG1        0.0789
     53 H         -10.9793    3.1075   -2.1684 H       1  LIG1        0.0660
     54 H         -11.2897    2.5654   -0.4993 H       1  LIG1        0.0660
     55 H         -11.1535    4.3132   -0.8667 H       1  LIG1        0.0660
     56 C          -9.7591    5.8122    0.7826 C.1     1  LIG1       -0.0645
     57 C         -10.3412    6.8305    0.5078 C.1     1  LIG1       -0.1137
     58 H         -10.8467    7.7348    0.2597 H       1  LIG1        0.1232
@<TRIPOS>BOND
     1    40    37    1
     2    53    52    1
     3    12     9    1
     4    38    37    1
     5    39    37    1
     6    10     9    1
     7    15    14    1
     8    37    36    1
     9    14    13    3
    10     9     8    1
    11     9    11    1
    12     8     2    1
    13    52    51    1
    14    52    55    1
    15    52    54    1
    16    13     3    1
    17    51    45    1
    18     2     3   ar
    19     2     1   ar
    20    26    23    1
    21     3     4   ar
    22    21    20    1
    23    43    42    1
    24    36    31    1
    25     1     7    1
    26     1     5   ar
    27    42    41    3
    28     4     5   ar
    29     4    16    1
    30    41    32    1
    31    31    32   ar
    32    31    30   ar
    33    20    16   ar
    34    20    19   ar
    35     5     6    1
    36    32    33   ar
    37    16    17   ar
    38    58    57    1
    39    45    44   ar
    40    45    46   ar
    41    23    25    1
    42    23    24    1
    43    23    22    1
    44    30    19    1
    45    30    34   ar
    46    19    18   ar
    47    57    56    3
    48    33    34   ar
    49    33    44    1
    50    17    18   ar
    51    17    22    1
    52    56    46    1
    53    34    35    1
    54    18    27    1
    55    44    48   ar
    56    46    47   ar
    57    27    28    3
    58    28    29    1
    59    48    47   ar
    60    48    49    1
    61    47    50    1
