@<TRIPOS>MOLECULE
mol_data/opt/cam/geoms/mol2/13le13le-13le.out
 44 46 0 0 0
SMALL
GASTEIGER

@<TRIPOS>ATOM
      1 C           1.2979   -0.6600    0.1864 C.ar    1  LIG1        0.0457
      2 C           0.9594    0.6300   -0.1394 C.ar    1  LIG1        0.1533
      3 C          -0.4633    0.7067   -0.2465 C.ar    1  LIG1        0.0930
      4 C          -0.9449   -0.5717    0.0258 C.ar    1  LIG1        0.0858
      5 N           0.1214   -1.3742    0.2809 N.ar    1  LIG1       -0.3554
      6 H           0.0131   -2.3469    0.5260 H       1  LIG1        0.1655
      7 H           2.2544   -1.1241    0.3567 H       1  LIG1        0.0845
      8 O           1.7546    1.7035   -0.3466 O.3     1  LIG1       -0.4924
      9 C           3.1358    1.4612   -0.2050 C.3     1  LIG1        0.0789
     10 H           3.6436    2.4059   -0.3981 H       1  LIG1        0.0660
     11 H           3.3769    1.1193    0.8096 H       1  LIG1        0.0660
     12 H           3.4825    0.7083   -0.9244 H       1  LIG1        0.0660
     13 C          -1.2369    1.8441   -0.5869 C.1     1  LIG1       -0.0638
     14 C          -1.9201    2.7952   -0.8786 C.1     1  LIG1       -0.1137
     15 H          -2.5056    3.6338   -1.1763 H       1  LIG1        0.1232
     16 C          -2.2902   -1.0863    0.0725 C.ar    1  LIG1        0.1081
     17 C          -2.7284   -2.3809    0.2505 C.ar    1  LIG1        0.1627
     18 C          -4.1554   -2.3776    0.2504 C.ar    1  LIG1        0.0937
     19 C          -4.5382   -1.0464    0.0692 C.ar    1  LIG1        0.0862
     20 N          -3.4104   -0.2958   -0.0298 N.ar    1  LIG1       -0.3478
     21 H          -3.4132    0.7050   -0.1914 H       1  LIG1        0.1661
     22 O          -1.8878   -3.4436    0.4408 O.3     1  LIG1       -0.4917
     23 C          -2.0078   -4.4791   -0.5326 C.3     1  LIG1        0.0789
     24 H          -1.2755   -5.2419   -0.2656 H       1  LIG1        0.0660
     25 H          -3.0087   -4.9174   -0.5185 H       1  LIG1        0.0660
     26 H          -1.7928   -4.0957   -1.5358 H       1  LIG1        0.0660
     27 C          -5.0271   -3.4803    0.4355 C.1     1  LIG1       -0.0638
     28 C          -5.7838   -4.4098    0.5841 C.1     1  LIG1       -0.1137
     29 H          -6.4264   -5.2450    0.7427 H       1  LIG1        0.1232
     30 C          -5.8426   -0.4387   -0.0001 C.ar    1  LIG1        0.1077
     31 C          -6.1844    0.8956   -0.0781 C.ar    1  LIG1        0.1620
     32 C          -7.6083    0.9911   -0.1252 C.ar    1  LIG1        0.0842
     33 C          -8.0791   -0.3091   -0.0717 C.ar    1  LIG1        0.0213
     34 N          -7.0194   -1.1526   -0.0046 N.ar    1  LIG1       -0.3554
     35 H          -7.0567   -2.1593    0.0602 H       1  LIG1        0.1655
     36 H          -9.0955   -0.6696   -0.0841 H       1  LIG1        0.0820
     37 O          -5.2625    1.8997   -0.1398 O.3     1  LIG1       -0.4917
     38 C          -5.3479    2.8604    0.9119 C.3     1  LIG1        0.0789
     39 H          -4.5014    3.5344    0.7795 H       1  LIG1        0.0660
     40 H          -6.2837    3.4215    0.8540 H       1  LIG1        0.0660
     41 H          -5.2745    2.3717    1.8892 H       1  LIG1        0.0660
     42 C          -8.3967    2.1676   -0.2367 C.1     1  LIG1       -0.0645
     43 C          -9.0643    3.1663   -0.3286 C.1     1  LIG1       -0.1137
     44 H          -9.6567    4.0466   -0.4235 H       1  LIG1        0.1232
@<TRIPOS>BOND
     1    26    23    1
     2    15    14    1
     3    12     9    1
     4    14    13    3
     5    13     3    1
     6    23    25    1
     7    23    24    1
     8    23    22    1
     9    44    43    1
    10    10     9    1
    11     8     9    1
    12     8     2    1
    13    43    42    3
    14     3     2   ar
    15     3     4   ar
    16    42    32    1
    17     9    11    1
    18    21    20    1
    19    37    31    1
    20    37    38    1
    21     2     1   ar
    22    32    31   ar
    23    32    33   ar
    24    36    33    1
    25    31    30   ar
    26    33    34   ar
    27    20    19   ar
    28    20    16   ar
    29    34    30   ar
    30    34    35    1
    31    30    19    1
    32     4    16    1
    33     4     5   ar
    34    19    18   ar
    35    16    17   ar
    36     1     5   ar
    37     1     7    1
    38    18    17   ar
    39    18    27    1
    40    17    22    1
    41     5     6    1
    42    27    28    3
    43    28    29    1
    44    39    38    1
    45    40    38    1
    46    38    41    1
