@<TRIPOS>MOLECULE
mol_data/opt/cam/geoms/mol2/13le13le.out
 30 31 0 0 0
SMALL
GASTEIGER

@<TRIPOS>ATOM
      1 C           0.8703    0.6182   -1.0663 C.ar    1  LIG1        0.0457
      2 C           1.2070    0.8727    0.2400 C.ar    1  LIG1        0.1533
      3 C           0.0566    0.6326    1.0531 C.ar    1  LIG1        0.0930
      4 C          -0.9582    0.2330    0.1869 C.ar    1  LIG1        0.0857
      5 N          -0.4542    0.2311   -1.0734 N.ar    1  LIG1       -0.3554
      6 H          -1.0065   -0.0536   -1.8687 H       1  LIG1        0.1655
      7 H           1.4456    0.6760   -1.9744 H       1  LIG1        0.0845
      8 O           2.3836    1.2817    0.7642 O.3     1  LIG1       -0.4924
      9 C           3.4234    1.4672   -0.1697 C.3     1  LIG1        0.0789
     10 H           4.2990    1.7900    0.3929 H       1  LIG1        0.0660
     11 H           3.6538    0.5330   -0.6973 H       1  LIG1        0.0660
     12 H           3.1615    2.2361   -0.9076 H       1  LIG1        0.0660
     13 C          -0.0390    0.7694    2.4606 C.1     1  LIG1       -0.0638
     14 C          -0.1462    0.8738    3.6585 C.1     1  LIG1       -0.1137
     15 H          -0.1998    0.9843    4.7168 H       1  LIG1        0.1232
     16 C          -2.3275   -0.1413    0.4418 C.ar    1  LIG1        0.1077
     17 C          -3.3288   -0.4772   -0.4443 C.ar    1  LIG1        0.1620
     18 C          -4.5029   -0.7938    0.3057 C.ar    1  LIG1        0.0842
     19 C          -4.1589   -0.6300    1.6364 C.ar    1  LIG1        0.0213
     20 N          -2.8601   -0.2485    1.7052 N.ar    1  LIG1       -0.3554
     21 H          -2.3322   -0.0476    2.5432 H       1  LIG1        0.1655
     22 H          -4.7612   -0.7696    2.5200 H       1  LIG1        0.0820
     23 O          -3.1416   -0.5274   -1.7988 O.3     1  LIG1       -0.4917
     24 C          -4.0384    0.2804   -2.5590 C.3     1  LIG1        0.0789
     25 H          -3.7651    0.1441   -3.6059 H       1  LIG1        0.0660
     26 H          -5.0732   -0.0350   -2.4090 H       1  LIG1        0.0660
     27 H          -3.9360    1.3363   -2.2856 H       1  LIG1        0.0660
     28 C          -5.7642   -1.2255   -0.1855 C.1     1  LIG1       -0.0645
     29 C          -6.8347   -1.5905   -0.6010 C.1     1  LIG1       -0.1137
     30 H          -7.7781   -1.9272   -0.9637 H       1  LIG1        0.1232
@<TRIPOS>BOND
     1    25    24    1
     2    24    26    1
     3    24    27    1
     4    24    23    1
     5     7     1    1
     6     6     5    1
     7    23    17    1
     8     5     1   ar
     9     5     4   ar
    10     1     2   ar
    11    30    29    1
    12    12     9    1
    13    11     9    1
    14    29    28    3
    15    17    18   ar
    16    17    16   ar
    17    28    18    1
    18     9    10    1
    19     9     8    1
    20     4    16    1
    21     4     3   ar
    22     2     8    1
    23     2     3   ar
    24    18    19   ar
    25    16    20   ar
    26     3    13    1
    27    19    20   ar
    28    19    22    1
    29    20    21    1
    30    13    14    3
    31    14    15    1
