@<TRIPOS>MOLECULE
mol_data/opt/cam/geoms/mol2/13le13le13le-13le.out
 58 61 0 0 0
SMALL
GASTEIGER

@<TRIPOS>ATOM
      1 C           0.6992    1.5613    0.9700 C.ar    1  LIG1        0.0457
      2 C           1.3846    0.4342    0.5904 C.ar    1  LIG1        0.1533
      3 C           0.4351   -0.6012    0.3287 C.ar    1  LIG1        0.0930
      4 C          -0.8217   -0.0474    0.5631 C.ar    1  LIG1        0.0858
      5 N          -0.6434    1.2451    0.9430 N.ar    1  LIG1       -0.3554
      6 H          -1.4178    1.8352    1.2075 H       1  LIG1        0.1655
      7 H           1.0419    2.5421    1.2525 H       1  LIG1        0.0845
      8 O           2.7156    0.2381    0.4571 O.3     1  LIG1       -0.4924
      9 C           3.5189    1.3548    0.7639 C.3     1  LIG1        0.0789
     10 H           4.5543    1.0494    0.6152 H       1  LIG1        0.0660
     11 H           3.2911    2.2013    0.1035 H       1  LIG1        0.0660
     12 H           3.3789    1.6705    1.8056 H       1  LIG1        0.0660
     13 C           0.7139   -1.9363   -0.0553 C.1     1  LIG1       -0.0638
     14 C           0.9301   -3.0812   -0.3697 C.1     1  LIG1       -0.1137
     15 H           1.1441   -4.0971   -0.6080 H       1  LIG1        0.1232
     16 C          -2.1420   -0.6150    0.4589 C.ar    1  LIG1        0.1081
     17 C          -3.3694   -0.0277    0.6846 C.ar    1  LIG1        0.1627
     18 C          -4.3842   -1.0059    0.4666 C.ar    1  LIG1        0.0937
     19 C          -3.7176   -2.1783    0.1003 C.ar    1  LIG1        0.0862
     20 N          -2.3825   -1.9231    0.1112 N.ar    1  LIG1       -0.3478
     21 H          -1.6736   -2.6124   -0.1110 H       1  LIG1        0.1661
     22 O          -3.5176    1.2719    1.0864 O.3     1  LIG1       -0.4917
     23 C          -4.3328    2.0734    0.2335 C.3     1  LIG1        0.0789
     24 H          -4.3404    3.0749    0.6653 H       1  LIG1        0.0660
     25 H          -3.9158    2.1110   -0.7789 H       1  LIG1        0.0660
     26 H          -5.3543    1.6892    0.1905 H       1  LIG1        0.0660
     27 C          -5.7884   -0.8567    0.5958 C.1     1  LIG1       -0.0638
     28 C          -6.9873   -0.7543    0.6947 C.1     1  LIG1       -0.1137
     29 H          -8.0464   -0.6574    0.7612 H       1  LIG1        0.1232
     30 C          -4.2242   -3.4773   -0.2579 C.ar    1  LIG1        0.1082
     31 C          -3.5535   -4.5631   -0.7814 C.ar    1  LIG1        0.1627
     32 C          -4.4898   -5.6220   -0.9704 C.ar    1  LIG1        0.0937
     33 C          -5.7236   -5.1292   -0.5394 C.ar    1  LIG1        0.0862
     34 N          -5.5404   -3.8517   -0.1157 N.ar    1  LIG1       -0.3478
     35 H          -6.2923   -3.2631    0.2219 H       1  LIG1        0.1661
     36 O          -2.2105   -4.5764   -1.0217 O.3     1  LIG1       -0.4917
     37 C          -1.8522   -4.7432   -2.3924 C.3     1  LIG1        0.0789
     38 H          -0.7688   -4.6337   -2.4428 H       1  LIG1        0.0660
     39 H          -2.1422   -5.7328   -2.7556 H       1  LIG1        0.0660
     40 H          -2.3243   -3.9741   -3.0127 H       1  LIG1        0.0660
     41 C          -4.2337   -6.9266   -1.4631 C.1     1  LIG1       -0.0638
     42 C          -4.0336   -8.0387   -1.8892 C.1     1  LIG1       -0.1137
     43 H          -3.8207   -9.0198   -2.2466 H       1  LIG1        0.1232
     44 C          -7.0227   -5.7487   -0.4826 C.ar    1  LIG1        0.1077
     45 C          -8.2034   -5.2638    0.0413 C.ar    1  LIG1        0.1620
     46 C          -9.2165   -6.2519   -0.1483 C.ar    1  LIG1        0.0842
     47 C          -8.5990   -7.3125   -0.7879 C.ar    1  LIG1        0.0213
     48 N          -7.2949   -6.9994   -0.9882 N.ar    1  LIG1       -0.3554
     49 H          -6.5955   -7.5861   -1.4195 H       1  LIG1        0.1655
     50 H          -9.0158   -8.2537   -1.1097 H       1  LIG1        0.0820
     51 O          -8.3219   -4.0217    0.5962 O.3     1  LIG1       -0.4917
     52 C          -8.7493   -4.0131    1.9579 C.3     1  LIG1        0.0789
     53 H          -8.7213   -2.9723    2.2816 H       1  LIG1        0.0660
     54 H          -9.7655   -4.4035    2.0510 H       1  LIG1        0.0660
     55 H          -8.0710   -4.6065    2.5802 H       1  LIG1        0.0660
     56 C         -10.5886   -6.1688    0.2106 C.1     1  LIG1       -0.0645
     57 C         -11.7513   -6.0978    0.5180 C.1     1  LIG1       -0.1137
     58 H         -12.7828   -6.0336    0.7766 H       1  LIG1        0.1232
@<TRIPOS>BOND
     1    40    37    1
     2    39    37    1
     3    38    37    1
     4    37    36    1
     5    43    42    1
     6    42    41    3
     7    41    32    1
     8    49    48    1
     9    50    47    1
    10    36    31    1
    11    48    47   ar
    12    48    44   ar
    13    32    31   ar
    14    32    33   ar
    15    47    46   ar
    16    31    30   ar
    17    25    23    1
    18    15    14    1
    19    33    44    1
    20    33    34   ar
    21    44    45   ar
    22    14    13    3
    23    30    34   ar
    24    30    19    1
    25    46    45   ar
    26    46    56    1
    27    34    35    1
    28    21    20    1
    29    13     3    1
    30    45    51    1
    31    19    20   ar
    32    19    18   ar
    33    11     9    1
    34    20    16   ar
    35    26    23    1
    36    56    57    3
    37    23    24    1
    38    23    22    1
    39     3     4   ar
    40     3     2   ar
    41     8     2    1
    42     8     9    1
    43    16     4    1
    44    16    17   ar
    45    18    27    1
    46    18    17   ar
    47    57    58    1
    48     4     5   ar
    49     2     1   ar
    50    27    28    3
    51    51    52    1
    52    10     9    1
    53    17    22    1
    54    28    29    1
    55     9    12    1
    56     5     1   ar
    57     5     6    1
    58     1     7    1
    59    52    54    1
    60    52    53    1
    61    52    55    1
