@<TRIPOS>MOLECULE
mol_data/opt/cam/geoms/mol2/13le13le13le13le.out
 58 61 0 0 0
SMALL
GASTEIGER

@<TRIPOS>ATOM
      1 C           0.1472    2.3116    0.5816 C.ar    1  LIG1        0.0457
      2 C          -0.0053    2.1836   -0.7764 C.ar    1  LIG1        0.1533
      3 C          -0.6955    0.9597   -1.0369 C.ar    1  LIG1        0.0930
      4 C          -0.9443    0.3791    0.2049 C.ar    1  LIG1        0.0858
      5 N          -0.4360    1.2028    1.1589 N.ar    1  LIG1       -0.3554
      6 H          -0.4545    0.9597    2.1380 H       1  LIG1        0.1655
      7 H           0.6109    3.0793    1.1773 H       1  LIG1        0.0845
      8 O           0.3909    3.0100   -1.7703 O.3     1  LIG1       -0.4924
      9 C           1.0755    4.1676   -1.3485 C.3     1  LIG1        0.0789
     10 H           1.3330    4.7275   -2.2473 H       1  LIG1        0.0660
     11 H           0.4432    4.7893   -0.7017 H       1  LIG1        0.0660
     12 H           1.9933    3.9100   -0.8048 H       1  LIG1        0.0660
     13 C          -1.0174    0.4206   -2.3069 C.1     1  LIG1       -0.0638
     14 C          -1.2833   -0.0583   -3.3823 C.1     1  LIG1       -0.1137
     15 H          -1.4658   -0.4822   -4.3421 H       1  LIG1        0.1232
     16 C          -1.6020   -0.8519    0.5636 C.ar    1  LIG1        0.1081
     17 C          -1.8138   -1.3993    1.8116 C.ar    1  LIG1        0.1627
     18 C          -2.4862   -2.6466    1.6494 C.ar    1  LIG1        0.0937
     19 C          -2.6736   -2.8082    0.2737 C.ar    1  LIG1        0.0862
     20 N          -2.1309   -1.7302   -0.3526 N.ar    1  LIG1       -0.3478
     21 H          -2.1080   -1.6162   -1.3594 H       1  LIG1        0.1661
     22 O          -1.3835   -0.8132    2.9705 O.3     1  LIG1       -0.4917
     23 C          -2.3971   -0.6028    3.9512 C.3     1  LIG1        0.0789
     24 H          -1.9120   -0.1124    4.7960 H       1  LIG1        0.0660
     25 H          -3.1912    0.0409    3.5571 H       1  LIG1        0.0660
     26 H          -2.8285   -1.5503    4.2811 H       1  LIG1        0.0660
     27 C          -2.8292   -3.5864    2.6538 C.1     1  LIG1       -0.0638
     28 C          -3.1126   -4.4023    3.4974 C.1     1  LIG1       -0.1137
     29 H          -3.3107   -5.1399    4.2403 H       1  LIG1        0.1232
     30 C          -3.3152   -3.8577   -0.4743 C.ar    1  LIG1        0.1082
     31 C          -3.5516   -3.9431   -1.8311 C.ar    1  LIG1        0.1627
     32 C          -4.2129   -5.1780   -2.0961 C.ar    1  LIG1        0.0937
     33 C          -4.3644   -5.8095   -0.8597 C.ar    1  LIG1        0.0862
     34 N          -3.8156   -5.0088    0.0908 N.ar    1  LIG1       -0.3478
     35 H          -3.7930   -5.2449    1.0756 H       1  LIG1        0.1661
     36 O          -3.1723   -2.9849   -2.7250 O.3     1  LIG1       -0.4917
     37 C          -4.2498   -2.3782   -3.4370 C.3     1  LIG1        0.0789
     38 H          -3.8151   -1.5676   -4.0216 H       1  LIG1        0.0660
     39 H          -4.7344   -3.0973   -4.1023 H       1  LIG1        0.0660
     40 H          -4.9901   -1.9676   -2.7423 H       1  LIG1        0.0660
     41 C          -4.6136   -5.6931   -3.3551 C.1     1  LIG1       -0.0638
     42 C          -4.9574   -6.1468   -4.4200 C.1     1  LIG1       -0.1137
     43 H          -5.2428   -6.5235   -5.3752 H       1  LIG1        0.1232
     44 C          -4.9747   -7.0673   -0.5118 C.ar    1  LIG1        0.1077
     45 C          -5.2528   -7.5946    0.7322 C.ar    1  LIG1        0.1620
     46 C          -5.8617   -8.8732    0.5511 C.ar    1  LIG1        0.0842
     47 C          -5.9303   -9.0720   -0.8167 C.ar    1  LIG1        0.0213
     48 N          -5.3933   -7.9938   -1.4395 N.ar    1  LIG1       -0.3554
     49 H          -5.3180   -7.8520   -2.4362 H       1  LIG1        0.1655
     50 H          -6.3198   -9.9136   -1.3671 H       1  LIG1        0.0820
     51 O          -4.9426   -6.9622    1.9020 O.3     1  LIG1       -0.4917
     52 C          -6.0661   -6.6667    2.7300 C.3     1  LIG1        0.0789
     53 H          -5.6840   -6.0968    3.5771 H       1  LIG1        0.0660
     54 H          -6.7988   -6.0610    2.1862 H       1  LIG1        0.0660
     55 H          -6.5422   -7.5840    3.0848 H       1  LIG1        0.0660
     56 C          -6.2899   -9.7799    1.5574 C.1     1  LIG1       -0.0645
     57 C          -6.6558  -10.5451    2.4130 C.1     1  LIG1       -0.1137
     58 H          -6.9671  -11.2308    3.1666 H       1  LIG1        0.1232
@<TRIPOS>BOND
     1    43    42    1
     2    42    41    3
     3    15    14    1
     4    39    37    1
     5    38    37    1
     6    37    40    1
     7    37    36    1
     8    14    13    3
     9    41    32    1
    10    36    31    1
    11    49    48    1
    12    13     3    1
    13    10     9    1
    14    32    31   ar
    15    32    33   ar
    16    31    30   ar
    17     8     9    1
    18     8     2    1
    19    48    47   ar
    20    48    44   ar
    21    50    47    1
    22    21    20    1
    23     9    12    1
    24     9    11    1
    25     3     2   ar
    26     3     4   ar
    27    33    44    1
    28    33    34   ar
    29    47    46   ar
    30     2     1   ar
    31    44    45   ar
    32    30    34   ar
    33    30    19    1
    34    20    19   ar
    35    20    16   ar
    36    34    35    1
    37     4    16    1
    38     4     5   ar
    39    19    18   ar
    40    46    45   ar
    41    46    56    1
    42    16    17   ar
    43     1     5   ar
    44     1     7    1
    45    45    51    1
    46     5     6    1
    47    56    57    3
    48    18    17   ar
    49    18    27    1
    50    17    22    1
    51    51    52    1
    52    54    52    1
    53    57    58    1
    54    27    28    3
    55    52    55    1
    56    52    53    1
    57    22    23    1
    58    28    29    1
    59    25    23    1
    60    23    26    1
    61    23    24    1
