@<TRIPOS>MOLECULE
mol_data/opt/cam/geoms/mol2/13le13le13le-13le-.out
 58 61 0 0 0
SMALL
GASTEIGER

@<TRIPOS>ATOM
      1 C           0.5230    1.5945    0.6577 C.ar    1  LIG1        0.0457
      2 C           1.2069    0.4610    0.2943 C.ar    1  LIG1        0.1533
      3 C           0.2712   -0.6141    0.1931 C.ar    1  LIG1        0.0930
      4 C          -0.9760   -0.0775    0.5043 C.ar    1  LIG1        0.0858
      5 N          -0.8057    1.2432    0.7764 N.ar    1  LIG1       -0.3554
      6 H          -1.5698    1.8299    1.0758 H       1  LIG1        0.1655
      7 H           0.8582    2.6014    0.8393 H       1  LIG1        0.0845
      8 O           2.5259    0.2899    0.0532 O.3     1  LIG1       -0.4924
      9 C           3.3180    1.4453    0.2100 C.3     1  LIG1        0.0789
     10 H           4.3455    1.1557   -0.0093 H       1  LIG1        0.0660
     11 H           3.0074    2.2368   -0.4839 H       1  LIG1        0.0660
     12 H           3.2595    1.8302    1.2361 H       1  LIG1        0.0660
     13 C           0.5578   -1.9658   -0.1206 C.1     1  LIG1       -0.0638
     14 C           0.7834   -3.1244   -0.3718 C.1     1  LIG1       -0.1137
     15 H           1.0097   -4.1484   -0.5583 H       1  LIG1        0.1232
     16 C          -2.2811   -0.6856    0.5665 C.ar    1  LIG1        0.1081
     17 C          -3.4982   -0.1178    0.8790 C.ar    1  LIG1        0.1627
     18 C          -4.4959   -1.1366    0.8313 C.ar    1  LIG1        0.0937
     19 C          -3.8306   -2.3125    0.4738 C.ar    1  LIG1        0.0862
     20 N          -2.5116   -2.0204    0.3299 N.ar    1  LIG1       -0.3478
     21 H          -1.8069   -2.7055    0.0810 H       1  LIG1        0.1661
     22 O          -3.6519    1.2007    1.2102 O.3     1  LIG1       -0.4917
     23 C          -4.5628    1.9227    0.3831 C.3     1  LIG1        0.0789
     24 H          -4.5610    2.9512    0.7457 H       1  LIG1        0.0660
     25 H          -4.2396    1.8992   -0.6633 H       1  LIG1        0.0660
     26 H          -5.5729    1.5136    0.4593 H       1  LIG1        0.0660
     27 C          -5.8801   -1.0144    1.1130 C.1     1  LIG1       -0.0638
     28 C          -7.0613   -0.9286    1.3508 C.1     1  LIG1       -0.1137
     29 H          -8.0996   -0.8218    1.5662 H       1  LIG1        0.1232
     30 C          -4.3280   -3.6447    0.2514 C.ar    1  LIG1        0.1082
     31 C          -3.6804   -4.7528   -0.2504 C.ar    1  LIG1        0.1627
     32 C          -4.6030   -5.8406   -0.2870 C.ar    1  LIG1        0.0937
     33 C          -5.8115   -5.3440    0.1937 C.ar    1  LIG1        0.0862
     34 N          -5.6196   -4.0329    0.5287 N.ar    1  LIG1       -0.3478
     35 H          -6.3498   -3.3810    0.7787 H       1  LIG1        0.1661
     36 O          -2.3591   -4.7565   -0.5875 O.3     1  LIG1       -0.4917
     37 C          -2.0922   -5.0787   -1.9525 C.3     1  LIG1        0.0789
     38 H          -1.0189   -4.9511   -2.0931 H       1  LIG1        0.0660
     39 H          -2.3772   -6.1099   -2.1732 H       1  LIG1        0.0660
     40 H          -2.6297   -4.3990   -2.6219 H       1  LIG1        0.0660
     41 C          -4.3073   -7.1796   -0.6515 C.1     1  LIG1       -0.0638
     42 C          -4.0125   -8.3084   -0.9539 C.1     1  LIG1       -0.1137
     43 H          -3.7503   -9.3080   -1.2124 H       1  LIG1        0.1232
     44 C          -7.0916   -5.9836    0.4140 C.ar    1  LIG1        0.1077
     45 C          -7.8348   -6.8428   -0.3652 C.ar    1  LIG1        0.1620
     46 C          -9.0643   -7.1130    0.3221 C.ar    1  LIG1        0.0842
     47 C          -9.0176   -6.3971    1.5018 C.ar    1  LIG1        0.0213
     48 N          -7.8490   -5.7073    1.5402 N.ar    1  LIG1       -0.3554
     49 H          -7.4977   -5.2099    2.3422 H       1  LIG1        0.1655
     50 H          -9.7413   -6.3420    2.2997 H       1  LIG1        0.0820
     51 O          -7.4682   -7.2446   -1.6052 O.3     1  LIG1       -0.4917
     52 C          -7.4456   -8.6522   -1.8132 C.3     1  LIG1        0.0789
     53 H          -7.1035   -8.8019   -2.8376 H       1  LIG1        0.0660
     54 H          -6.7436   -9.1312   -1.1239 H       1  LIG1        0.0660
     55 H          -8.4403   -9.0887   -1.6931 H       1  LIG1        0.0660
     56 C         -10.1593   -7.9022   -0.1229 C.1     1  LIG1       -0.0645
     57 C         -11.0931   -8.5681   -0.4917 C.1     1  LIG1       -0.1137
     58 H         -11.9226   -9.1482   -0.8237 H       1  LIG1        0.1232
@<TRIPOS>BOND
     1    53    52    1
     2    40    37    1
     3    39    37    1
     4    38    37    1
     5    37    36    1
     6    52    55    1
     7    52    51    1
     8    52    54    1
     9    51    45    1
    10    43    42    1
    11    42    41    3
    12    58    57    1
    13    25    23    1
    14    41    32    1
    15    36    31    1
    16    15    14    1
    17    57    56    3
    18    11     9    1
    19    14    13    3
    20    45    46   ar
    21    45    44   ar
    22    32    31   ar
    23    32    33   ar
    24    31    30   ar
    25    56    46    1
    26    13     3    1
    27    10     9    1
    28     8     9    1
    29     8     2    1
    30    21    20    1
    31     3     2   ar
    32     3     4   ar
    33    33    44    1
    34    33    34   ar
    35     9    12    1
    36    30    19    1
    37    30    34   ar
    38     2     1   ar
    39    46    47   ar
    40    20    19   ar
    41    20    16   ar
    42    23    26    1
    43    23    24    1
    44    23    22    1
    45    44    48   ar
    46    19    18   ar
    47     4    16    1
    48     4     5   ar
    49    34    35    1
    50    16    17   ar
    51     1     5   ar
    52     1     7    1
    53     5     6    1
    54    18    17   ar
    55    18    27    1
    56    17    22    1
    57    27    28    3
    58    28    29    1
    59    47    48   ar
    60    47    50    1
    61    48    49    1
