@<TRIPOS>MOLECULE
mol_data/opt/cam/geoms/mol2/13le13le13le13le-.out
 58 61 0 0 0
SMALL
GASTEIGER

@<TRIPOS>ATOM
      1 C           0.4558    1.4605   -1.3478 C.ar    1  LIG1        0.0457
      2 C           1.0786    0.2380   -1.2840 C.ar    1  LIG1        0.1533
      3 C           0.0898   -0.7534   -1.0000 C.ar    1  LIG1        0.0930
      4 C          -1.1245   -0.0752   -0.9010 C.ar    1  LIG1        0.0858
      5 N          -0.8873    1.2439   -1.1113 N.ar    1  LIG1       -0.3554
      6 H          -1.6251    1.9317   -1.0934 H       1  LIG1        0.1655
      7 H           0.8423    2.4468   -1.5399 H       1  LIG1        0.0845
      8 O           2.3836   -0.0741   -1.4436 O.3     1  LIG1       -0.4924
      9 C           3.2313    1.0166   -1.7267 C.3     1  LIG1        0.0789
     10 H           4.2387    0.6144   -1.8300 H       1  LIG1        0.0660
     11 H           2.9400    1.5129   -2.6610 H       1  LIG1        0.0660
     12 H           3.2152    1.7532   -0.9133 H       1  LIG1        0.0660
     13 C           0.2741   -2.1498   -0.8305 C.1     1  LIG1       -0.0638
     14 C           0.3625   -3.3456   -0.6796 C.1     1  LIG1       -0.1137
     15 H           0.4297   -4.4012   -0.5347 H       1  LIG1        0.1232
     16 C          -2.4438   -0.5767   -0.6204 C.ar    1  LIG1        0.1081
     17 C          -3.6295    0.0795   -0.3757 C.ar    1  LIG1        0.1627
     18 C          -4.6456   -0.8965   -0.1293 C.ar    1  LIG1        0.0937
     19 C          -4.0258   -2.1426   -0.2485 C.ar    1  LIG1        0.0862
     20 N          -2.7130   -1.9202   -0.5466 N.ar    1  LIG1       -0.3478
     21 H          -2.0288   -2.6251   -0.7842 H       1  LIG1        0.1661
     22 O          -3.7452    1.4412   -0.4068 O.3     1  LIG1       -0.4917
     23 C          -4.1971    2.0346    0.8102 C.3     1  LIG1        0.0789
     24 H          -4.2342    3.1101    0.6337 H       1  LIG1        0.0660
     25 H          -5.1928    1.6736    1.0756 H       1  LIG1        0.0660
     26 H          -3.5003    1.8191    1.6277 H       1  LIG1        0.0660
     27 C          -6.0015   -0.6450    0.2038 C.1     1  LIG1       -0.0638
     28 C          -7.1501   -0.4181    0.4890 C.1     1  LIG1       -0.1137
     29 H          -8.1702   -0.2411    0.7392 H       1  LIG1        0.1232
     30 C          -4.4731   -3.5040   -0.0561 C.ar    1  LIG1        0.1082
     31 C          -5.6794   -4.1623   -0.2129 C.ar    1  LIG1        0.1627
     32 C          -5.4731   -5.5449    0.0807 C.ar    1  LIG1        0.0937
     33 C          -4.1281   -5.6896    0.4088 C.ar    1  LIG1        0.0862
     34 N          -3.5488   -4.4655    0.3111 N.ar    1  LIG1       -0.3478
     35 H          -2.5843   -4.3142    0.5733 H       1  LIG1        0.1661
     36 O          -6.8780   -3.6461   -0.5797 O.3     1  LIG1       -0.4917
     37 C          -6.9528   -3.1983   -1.9274 C.3     1  LIG1        0.0789
     38 H          -7.9758   -2.8546   -2.0811 H       1  LIG1        0.0660
     39 H          -6.2662   -2.3670   -2.1123 H       1  LIG1        0.0660
     40 H          -6.7327   -4.0166   -2.6219 H       1  LIG1        0.0660
     41 C          -6.4412   -6.5802    0.0336 C.1     1  LIG1       -0.0638
     42 C          -7.2411   -7.4833   -0.0029 C.1     1  LIG1       -0.1137
     43 H          -7.9808   -8.2493   -0.0410 H       1  LIG1        0.1232
     44 C          -3.3469   -6.8367    0.7931 C.ar    1  LIG1        0.1077
     45 C          -2.0078   -6.9172    1.1178 C.ar    1  LIG1        0.1620
     46 C          -1.6968   -8.2826    1.3967 C.ar    1  LIG1        0.0842
     47 C          -2.8792   -8.9833    1.2300 C.ar    1  LIG1        0.0213
     48 N          -3.8526   -8.1131    0.8652 N.ar    1  LIG1       -0.3554
     49 H          -4.8189   -8.3340    0.6696 H       1  LIG1        0.1655
     50 H          -3.0697  -10.0384    1.3458 H       1  LIG1        0.0820
     51 O          -1.1679   -5.8348    1.1034 O.3     1  LIG1       -0.4917
     52 C          -0.4727   -5.5887    2.3291 C.3     1  LIG1        0.0789
     53 H           0.1174   -4.6862    2.1667 H       1  LIG1        0.0660
     54 H          -1.1820   -5.4263    3.1473 H       1  LIG1        0.0660
     55 H           0.1861   -6.4232    2.5770 H       1  LIG1        0.0660
     56 C          -0.4349   -8.8381    1.7396 C.1     1  LIG1       -0.0645
     57 C           0.6350   -9.3094    2.0307 C.1     1  LIG1       -0.1137
     58 H           1.5820   -9.7316    2.2758 H       1  LIG1        0.1232
@<TRIPOS>BOND
     1    11     9    1
     2    40    37    1
     3    39    37    1
     4    38    37    1
     5    37    36    1
     6    10     9    1
     7     9     8    1
     8     9    12    1
     9     7     1    1
    10     8     2    1
    11     1     2   ar
    12     1     5   ar
    13     2     3   ar
    14     5     6    1
    15     5     4   ar
    16     3     4   ar
    17     3    13    1
    18     4    16    1
    19    13    14    3
    20    21    20    1
    21    14    15    1
    22    16    20   ar
    23    16    17   ar
    24    36    31    1
    25    20    19   ar
    26    22    17    1
    27    22    23    1
    28    17    18   ar
    29    19    18   ar
    30    19    30    1
    31    31    30   ar
    32    31    32   ar
    33    18    27    1
    34    30    34   ar
    35    43    42    1
    36    42    41    3
    37    41    32    1
    38    32    33   ar
    39    27    28    3
    40    34    33   ar
    41    34    35    1
    42    33    44    1
    43    28    29    1
    44    24    23    1
    45    49    48    1
    46    44    48   ar
    47    44    45   ar
    48    23    25    1
    49    23    26    1
    50    48    47   ar
    51    51    45    1
    52    51    52    1
    53    45    46   ar
    54    47    50    1
    55    47    46   ar
    56    46    56    1
    57    56    57    3
    58    57    58    1
    59    53    52    1
    60    52    55    1
    61    52    54    1
