@<TRIPOS>MOLECULE
mol_data/opt/cam/geoms/mol2/13le6fe6dd6lf-.out
 53 56 0 0 0
SMALL
GASTEIGER

@<TRIPOS>ATOM
      1 C           1.2514   -0.1525   -0.8306 C.ar    1  LIG1        0.0456
      2 C           0.9914    0.9586   -0.0717 C.ar    1  LIG1        0.1532
      3 C          -0.3746    0.9045    0.3514 C.ar    1  LIG1        0.0916
      4 C          -0.9113   -0.2607   -0.1756 C.ar    1  LIG1        0.0709
      5 N           0.0927   -0.9062   -0.8583 N.ar    1  LIG1       -0.3565
      6 H          -0.0803   -1.6398   -1.5288 H       1  LIG1        0.1655
      7 H           2.1473   -0.4839   -1.3279 H       1  LIG1        0.0845
      8 O           1.8084    1.9663    0.2891 O.3     1  LIG1       -0.4924
      9 C           3.1310    1.8784   -0.1986 C.3     1  LIG1        0.0789
     10 H           3.6607    2.7544    0.1732 H       1  LIG1        0.0660
     11 H           3.6269    0.9705    0.1663 H       1  LIG1        0.0660
     12 H           3.1490    1.8803   -1.2954 H       1  LIG1        0.0660
     13 C          -1.0215    1.8532    1.1850 C.1     1  LIG1       -0.0639
     14 C          -1.5684    2.6646    1.8870 C.1     1  LIG1       -0.1137
     15 H          -2.0423    3.3800    2.5187 H       1  LIG1        0.1232
     16 C          -2.5101   -2.1973   -0.0189 C.ar    1  LIG1        0.2223
     17 C          -2.2661   -0.8063   -0.0911 C.ar    1  LIG1        0.0621
     18 C          -3.3814    0.0165   -0.0728 C.ar    1  LIG1       -0.0300
     19 C          -4.6722   -0.5213   -0.0237 C.ar    1  LIG1        0.0516
     20 C          -4.7837   -1.9205   -0.0139 C.ar    1  LIG1        0.0929
     21 N          -3.7178   -2.7198   -0.0038 N.ar    1  LIG1       -0.2111
     22 H          -3.2539    1.0917   -0.0973 H       1  LIG1        0.0639
     23 O          -1.5041   -3.0963    0.0132 O.3     1  LIG1       -0.4919
     24 H          -0.6862   -2.6522    0.2802 H       1  LIG1        0.2937
     25 C          -5.8030    0.3531    0.0199 C.1     1  LIG1       -0.0675
     26 C          -6.7343    1.1150    0.0556 C.1     1  LIG1       -0.1138
     27 H          -7.5627    1.7852    0.0914 H       1  LIG1        0.1232
     28 C          -6.3672   -3.6813    0.8695 C.ar    1  LIG1        0.1500
     29 C          -6.0937   -2.6189   -0.0073 C.ar    1  LIG1        0.0388
     30 C          -7.1013   -2.2840   -0.9007 C.ar    1  LIG1       -0.0303
     31 C          -8.2962   -2.9991   -0.9054 C.ar    1  LIG1        0.0785
     32 C          -8.4682   -4.0522    0.0112 C.ar    1  LIG1        0.0950
     33 N          -7.5089   -4.3651    0.8779 N.ar    1  LIG1       -0.2342
     34 H          -6.9577   -1.4767   -1.6079 H       1  LIG1        0.0638
     35 N          -4.7234   -4.3941    2.7548 N.1     1  LIG1       -0.1893
     36 C          -5.4245   -4.0767    1.8936 C.1     1  LIG1        0.1198
     37 N         -10.0998   -2.3509   -2.6479 N.1     1  LIG1       -0.1908
     38 C          -9.3074   -2.6567   -1.8632 C.1     1  LIG1        0.1013
     39 C          -9.6975   -6.2527   -0.0475 C.ar    1  LIG1        0.2241
     40 C          -9.7197   -4.8454    0.0781 C.ar    1  LIG1        0.0666
     41 C         -10.9451   -4.2420    0.2878 C.ar    1  LIG1       -0.0043
     42 C         -12.0937   -5.0279    0.3910 C.ar    1  LIG1        0.1357
     43 C         -11.9541   -6.3985    0.2734 C.ar    1  LIG1        0.0728
     44 N         -10.7788   -6.9961    0.0510 N.ar    1  LIG1       -0.2171
     45 H         -11.0332   -3.1662    0.3909 H       1  LIG1        0.0663
     46 H         -12.8218   -7.0520    0.3579 H       1  LIG1        0.0868
     47 O          -8.5120   -6.8285   -0.3092 O.3     1  LIG1       -0.4792
     48 C          -8.4904   -8.2466   -0.4047 C.3     1  LIG1        0.0804
     49 H          -7.4508   -8.5088   -0.5970 H       1  LIG1        0.0660
     50 H          -8.8314   -8.7071    0.5255 H       1  LIG1        0.0660
     51 H          -9.1290   -8.5962   -1.2196 H       1  LIG1        0.0660
     52 O         -13.2806   -4.4018    0.6138 O.3     1  LIG1       -0.5052
     53 H         -13.9881   -5.0562    0.6535 H       1  LIG1        0.2922
@<TRIPOS>BOND
     1    37    38    3
     2    38    31    1
     3    34    30    1
     4     6     5    1
     5     7     1    1
     6    12     9    1
     7    51    48    1
     8    31    30   ar
     9    31    32   ar
    10    30    29   ar
    11     5     1   ar
    12     5     4   ar
    13     1     2   ar
    14    49    48    1
    15    48    47    1
    16    48    50    1
    17    47    39    1
    18     9    11    1
    19     9    10    1
    20     9     8    1
    21     4    17    1
    22     4     3   ar
    23    22    18    1
    24    17    18   ar
    25    17    16   ar
    26    18    19   ar
    27     2     8    1
    28     2     3   ar
    29    39    44   ar
    30    39    40   ar
    31    19    20   ar
    32    19    25    1
    33    16    21   ar
    34    16    23    1
    35    20    29    1
    36    20    21   ar
    37    29    28   ar
    38    32    40    1
    39    32    33   ar
    40    23    24    1
    41    25    26    3
    42    44    43   ar
    43    26    27    1
    44    40    41   ar
    45    43    46    1
    46    43    42   ar
    47    41    45    1
    48    41    42   ar
    49     3    13    1
    50    42    52    1
    51    52    53    1
    52    28    33   ar
    53    28    36    1
    54    13    14    3
    55    14    15    1
    56    36    35    3
