@<TRIPOS>MOLECULE
mol_data/opt/cam/geoms/mol2/13le13le-.out
 30 31 0 0 0
SMALL
GASTEIGER

@<TRIPOS>ATOM
      1 C           1.1485   -0.4339   -0.0003 C.ar    1  LIG1        0.0457
      2 C           0.7952    0.8919   -0.0000 C.ar    1  LIG1        0.1533
      3 C          -0.6315    0.9751    0.0005 C.ar    1  LIG1        0.0930
      4 C          -1.1011   -0.3375    0.0005 C.ar    1  LIG1        0.0857
      5 N          -0.0237   -1.1635    0.0001 N.ar    1  LIG1       -0.3554
      6 H          -0.1169   -2.1677    0.0000 H       1  LIG1        0.1655
      7 H           2.1116   -0.9151   -0.0007 H       1  LIG1        0.0845
      8 O           1.5779    1.9942   -0.0002 O.3     1  LIG1       -0.4924
      9 C           2.9651    1.7432   -0.0007 C.3     1  LIG1        0.0789
     10 H           3.4615    2.7133   -0.0008 H       1  LIG1        0.0660
     11 H           3.2667    1.1802    0.8917 H       1  LIG1        0.0660
     12 H           3.2660    1.1804   -0.8935 H       1  LIG1        0.0660
     13 C          -1.4164    2.1547    0.0009 C.1     1  LIG1       -0.0638
     14 C          -2.1080    3.1446    0.0012 C.1     1  LIG1       -0.1137
     15 H          -2.6806    4.0429    0.0011 H       1  LIG1        0.1232
     16 C          -2.4459   -0.8549    0.0009 C.ar    1  LIG1        0.1077
     17 C          -2.8915   -2.1626    0.0009 C.ar    1  LIG1        0.1620
     18 C          -4.3222   -2.1452    0.0015 C.ar    1  LIG1        0.0842
     19 C          -4.6819   -0.8043    0.0018 C.ar    1  LIG1        0.0213
     20 N          -3.5625   -0.0500    0.0015 N.ar    1  LIG1       -0.3554
     21 H          -3.5101    0.9594    0.0016 H       1  LIG1        0.1655
     22 H          -5.6688   -0.3700    0.0022 H       1  LIG1        0.0820
     23 O          -2.0013   -3.1946    0.0005 O.3     1  LIG1       -0.4917
     24 C          -2.5085   -4.5187   -0.0006 C.3     1  LIG1        0.0789
     25 H          -1.6377   -5.1746   -0.0011 H       1  LIG1        0.0660
     26 H          -3.1138   -4.7125    0.8889 H       1  LIG1        0.0660
     27 H          -3.1139   -4.7110   -0.8903 H       1  LIG1        0.0660
     28 C          -5.2620   -3.2132    0.0017 C.1     1  LIG1       -0.0645
     29 C          -6.0912   -4.0874    0.0019 C.1     1  LIG1       -0.1137
     30 H          -6.8226   -4.8619    0.0022 H       1  LIG1        0.1232
@<TRIPOS>BOND
     1    12     9    1
     2    27    24    1
     3    25    24    1
     4    10     9    1
     5     9     8    1
     6     9    11    1
     7     7     1    1
     8    24    23    1
     9    24    26    1
    10     1     2   ar
    11     1     5   ar
    12     8     2    1
    13     2     3   ar
    14     6     5    1
    15     5     4   ar
    16     3     4   ar
    17     3    13    1
    18    23    17    1
    19     4    16    1
    20    13    14    3
    21    17    16   ar
    22    17    18   ar
    23    16    20   ar
    24    15    14    1
    25    18    28    1
    26    18    19   ar
    27    20    21    1
    28    20    19   ar
    29    28    29    3
    30    19    22    1
    31    29    30    1
