@<TRIPOS>MOLECULE
mol_data/opt/cam/geoms/mol2/13le13le13le.out
 44 46 0 0 0
SMALL
GASTEIGER

@<TRIPOS>ATOM
      1 C           0.3553    1.4985   -1.3920 C.ar    1  LIG1        0.0457
      2 C           0.8981    0.2845   -1.0504 C.ar    1  LIG1        0.1533
      3 C          -0.1500   -0.5524   -0.5578 C.ar    1  LIG1        0.0930
      4 C          -1.3172    0.2052   -0.6212 C.ar    1  LIG1        0.0858
      5 N          -0.9954    1.4271   -1.1210 N.ar    1  LIG1       -0.3554
      6 H          -1.6904    2.1416   -1.2774 H       1  LIG1        0.1655
      7 H           0.8027    2.3902   -1.7969 H       1  LIG1        0.0845
      8 O           2.1799   -0.1382   -1.1257 O.3     1  LIG1       -0.4924
      9 C           3.0935    0.8084   -1.6316 C.3     1  LIG1        0.0789
     10 H           4.0734    0.3316   -1.6344 H       1  LIG1        0.0660
     11 H           2.8307    1.1060   -2.6548 H       1  LIG1        0.0660
     12 H           3.1270    1.7049   -0.9994 H       1  LIG1        0.0660
     13 C          -0.0314   -1.8791   -0.0741 C.1     1  LIG1       -0.0638
     14 C           0.0412   -3.0077    0.3470 C.1     1  LIG1       -0.1137
     15 H           0.1288   -3.9887    0.7528 H       1  LIG1        0.1232
     16 C          -2.6762   -0.1185   -0.2675 C.ar    1  LIG1        0.1081
     17 C          -3.7942    0.6875   -0.2518 C.ar    1  LIG1        0.1627
     18 C          -4.9143   -0.1035    0.1434 C.ar    1  LIG1        0.0937
     19 C          -4.4204   -1.3928    0.3562 C.ar    1  LIG1        0.0862
     20 N          -3.0863   -1.3779    0.1012 N.ar    1  LIG1       -0.3478
     21 H          -2.4845   -2.1868    0.2066 H       1  LIG1        0.1661
     22 O          -3.7795    2.0068   -0.6139 O.3     1  LIG1       -0.4917
     23 C          -4.2066    2.9085    0.4054 C.3     1  LIG1        0.0789
     24 H          -4.1281    3.9116   -0.0154 H       1  LIG1        0.0660
     25 H          -5.2436    2.7158    0.6910 H       1  LIG1        0.0660
     26 H          -3.5647    2.8274    1.2892 H       1  LIG1        0.0660
     27 C          -6.2671    0.3038    0.2629 C.1     1  LIG1       -0.0638
     28 C          -7.4227    0.6361    0.3766 C.1     1  LIG1       -0.1137
     29 H          -8.4381    0.9523    0.4444 H       1  LIG1        0.1232
     30 C          -5.0867   -2.6069    0.7533 C.ar    1  LIG1        0.1077
     31 C          -4.5852   -3.8880    0.8555 C.ar    1  LIG1        0.1620
     32 C          -5.6390   -4.7480    1.2901 C.ar    1  LIG1        0.0842
     33 C          -6.7539   -3.9410    1.4348 C.ar    1  LIG1        0.0213
     34 N          -6.4121   -2.6671    1.1194 N.ar    1  LIG1       -0.3554
     35 H          -7.0240   -1.8642    1.1182 H       1  LIG1        0.1655
     36 H          -7.7525   -4.2034    1.7463 H       1  LIG1        0.0820
     37 O          -3.2801   -4.2005    0.6088 O.3     1  LIG1       -0.4917
     38 C          -3.0767   -5.1628   -0.4251 C.3     1  LIG1        0.0789
     39 H          -1.9982   -5.2363   -0.5663 H       1  LIG1        0.0660
     40 H          -3.4823   -6.1361   -0.1387 H       1  LIG1        0.0660
     41 H          -3.5442   -4.8321   -1.3586 H       1  LIG1        0.0660
     42 C          -5.5689   -6.1418    1.5562 C.1     1  LIG1       -0.0645
     43 C          -5.5090   -7.3242    1.7791 C.1     1  LIG1       -0.1137
     44 H          -5.4554   -8.3671    1.9898 H       1  LIG1        0.1232
@<TRIPOS>BOND
     1    11     9    1
     2     7     1    1
     3    10     9    1
     4     9     8    1
     5     9    12    1
     6     1     5   ar
     7     1     2   ar
     8    41    38    1
     9     6     5    1
    10     8     2    1
    11     5     4   ar
    12     2     3   ar
    13     4     3   ar
    14     4    16    1
    15    22    17    1
    16    22    23    1
    17    39    38    1
    18     3    13    1
    19    38    40    1
    20    38    37    1
    21    16    17   ar
    22    16    20   ar
    23    17    18   ar
    24    13    14    3
    25    24    23    1
    26    20    21    1
    27    20    19   ar
    28    18    27    1
    29    18    19   ar
    30    27    28    3
    31    14    15    1
    32    19    30    1
    33    28    29    1
    34    23    25    1
    35    23    26    1
    36    37    31    1
    37    30    31   ar
    38    30    34   ar
    39    31    32   ar
    40    35    34    1
    41    34    33   ar
    42    32    33   ar
    43    32    42    1
    44    33    36    1
    45    42    43    3
    46    43    44    1
