@<TRIPOS>MOLECULE
mol_data/opt/cam/geoms/mol2/13le13al4fa13fe12id-4df-6ih13lh-.out
 101 108 0 0 0
SMALL
GASTEIGER

@<TRIPOS>ATOM
      1 C           0.8732    0.5481   -0.4739 C.ar    1  LIG1        0.0457
      2 C           0.3501    1.8148   -0.4728 C.ar    1  LIG1        0.1533
      3 C          -1.0465    1.7277   -0.1731 C.ar    1  LIG1        0.0929
      4 C          -1.3294    0.3798    0.0046 C.ar    1  LIG1        0.0822
      5 N          -0.1719   -0.3185   -0.2027 N.ar    1  LIG1       -0.3555
      6 H          -0.0510   -1.2776    0.0771 H       1  LIG1        0.1655
      7 H           1.8720    0.1874   -0.6523 H       1  LIG1        0.0845
      8 O           0.9566    2.9959   -0.7191 O.3     1  LIG1       -0.4924
      9 C           2.3366    2.9160   -0.9957 C.3     1  LIG1        0.0789
     10 H           2.6834    3.9346   -1.1673 H       1  LIG1        0.0660
     11 H           2.8862    2.4821   -0.1507 H       1  LIG1        0.0660
     12 H           2.5274    2.3111   -1.8914 H       1  LIG1        0.0660
     13 C          -1.9570    2.8124   -0.1061 C.1     1  LIG1       -0.0638
     14 C          -2.7243    3.7393   -0.0438 C.1     1  LIG1       -0.1137
     15 H          -3.3965    4.5644   -0.0022 H       1  LIG1        0.1232
     16 C          -2.5670   -0.2915    0.3295 C.ar    1  LIG1        0.0682
     17 C          -3.6756    0.1497    1.0199 C.ar    1  LIG1        0.0075
     18 C          -4.6030   -0.9233    1.0447 C.ar    1  LIG1        0.1460
     19 C          -4.0542   -1.9978    0.3690 C.ar    1  LIG1        0.0927
     20 N          -2.7847   -1.6010   -0.0245 N.ar    1  LIG1       -0.3500
     21 H          -2.2955   -2.0573   -0.7785 H       1  LIG1        0.1661
     22 H          -3.7749    1.1233    1.4720 H       1  LIG1        0.0676
     23 O          -5.8008   -0.9794    1.6725 O.3     1  LIG1       -0.4930
     24 C          -6.2346    0.2183    2.2769 C.3     1  LIG1        0.0789
     25 H          -7.2175    0.0128    2.7013 H       1  LIG1        0.0660
     26 H          -5.5565    0.5344    3.0792 H       1  LIG1        0.0660
     27 H          -6.3199    1.0305    1.5451 H       1  LIG1        0.0660
     28 C          -5.8321   -3.6297   -0.3254 C.ar    1  LIG1        0.1267
     29 C          -6.2510   -4.9335   -0.5541 C.ar    1  LIG1       -0.0103
     30 C          -4.5254   -3.3569    0.1182 C.ar    1  LIG1        0.0433
     31 C          -5.3794   -6.0144   -0.3875 C.ar    1  LIG1        0.0054
     32 H          -7.2665   -5.1166   -0.8890 H       1  LIG1        0.0661
     33 C          -3.6652   -4.4478    0.2691 C.ar    1  LIG1       -0.0484
     34 C          -4.0667   -5.7493    0.0159 C.ar    1  LIG1       -0.0517
     35 H          -2.6535   -4.2608    0.6156 H       1  LIG1        0.0625
     36 O          -6.6573   -2.5770   -0.5433 O.3     1  LIG1       -0.5061
     37 H          -7.5205   -2.9050   -0.8212 H       1  LIG1        0.2922
     38 H          -3.3448   -6.5515    0.1300 H       1  LIG1        0.0624
     39 C          -5.8442   -7.3749   -0.6292 C.ar    1  LIG1        0.0904
     40 C          -6.9807   -7.8599   -1.2457 C.ar    1  LIG1        0.1581
     41 C          -6.9443   -9.2819   -1.2338 C.ar    1  LIG1        0.0949
     42 C          -5.7671   -9.6427   -0.5820 C.ar    1  LIG1        0.1021
     43 N          -5.1258   -8.4910   -0.2438 N.ar    1  LIG1       -0.3478
     44 H          -4.2865   -8.4691    0.3116 H       1  LIG1        0.1661
     45 O          -7.9607   -7.1077   -1.8022 O.3     1  LIG1       -0.5035
     46 H          -8.6065   -7.7089   -2.1997 H       1  LIG1        0.2923
     47 C          -7.9220  -10.0797   -1.8788 C.1     1  LIG1       -0.0637
     48 C          -8.7995  -10.6675   -2.4618 C.1     1  LIG1       -0.1137
     49 H          -9.5571  -11.2140   -2.9751 H       1  LIG1        0.1232
     50 C          -5.1895  -10.9264   -0.2652 C.ar    1  LIG1        0.1572
     51 C          -5.6897  -12.1569    0.0413 C.ar    1  LIG1        0.0148
     52 C          -4.5355  -12.9800    0.2859 C.ar    1  LIG1        0.1010
     53 C          -3.4251  -12.1921    0.1436 C.ar    1  LIG1        0.1547
     54 O          -3.8169  -10.9440   -0.2026 O.2     1  LIG1       -0.4517
     55 C          -7.1110  -12.5976    0.1522 C.3     1  LIG1       -0.0348
     56 H          -7.2129  -13.3483    0.9389 H       1  LIG1        0.0279
     57 H          -7.4670  -13.0415   -0.7816 H       1  LIG1        0.0279
     58 H          -7.7643  -11.7557    0.3832 H       1  LIG1        0.0279
     59 N          -4.6407  -15.5211    0.7085 N.1     1  LIG1       -0.1907
     60 C          -4.5717  -14.3789    0.5399 C.1     1  LIG1        0.1032
     61 C          -1.3775  -13.1718    1.2302 C.ar    1  LIG1        0.0632
     62 C           0.0039  -13.3853    1.1994 C.ar    1  LIG1       -0.0324
     63 C          -1.9845  -12.4340    0.2014 C.ar    1  LIG1        0.0394
     64 C           0.8137  -12.8755    0.1931 C.ar    1  LIG1        0.0266
     65 H           0.4632  -13.9485    2.0038 H       1  LIG1        0.0638
     66 C          -1.1791  -11.9068   -0.8060 C.ar    1  LIG1       -0.0076
     67 C           0.1931  -12.1253   -0.8207 C.ar    1  LIG1        0.1253
     68 H          -1.6435  -11.3394   -1.6069 H       1  LIG1        0.0662
     69 N          -2.6807  -13.9991    3.3089 N.1     1  LIG1       -0.1908
     70 C          -2.1180  -13.6403    2.3641 C.1     1  LIG1        0.0999
     71 O           0.9743  -11.6517   -1.8196 O.3     1  LIG1       -0.5061
     72 H           0.4325  -11.1799   -2.4637 H       1  LIG1        0.2922
     73 C           3.2464  -12.1550    0.2859 C.ar    1  LIG1        0.0469
     74 C           2.2713  -13.1608    0.1902 C.ar    1  LIG1        0.0084
     75 C           2.6974  -14.4816    0.1512 C.ar    1  LIG1       -0.0294
     76 C           4.0530  -14.8167    0.1771 C.ar    1  LIG1        0.0531
     77 C           4.9618  -13.7350    0.2017 C.ar    1  LIG1        0.1116
     78 N           4.5375  -12.4672    0.2836 N.ar    1  LIG1       -0.2478
     79 H           1.9598  -15.2786    0.1072 H       1  LIG1        0.0643
     80 C           2.9064  -10.6951    0.4104 C.3     1  LIG1       -0.0217
     81 H           2.0678  -10.5310    1.0926 H       1  LIG1        0.0293
     82 H           2.6284  -10.2740   -0.5599 H       1  LIG1        0.0293
     83 H           3.7772  -10.1563    0.7843 H       1  LIG1        0.0293
     84 N           4.4476  -16.1304    0.2430 N.pl3   1  LIG1       -0.3563
     85 H           3.7489  -16.8263    0.0407 H       1  LIG1        0.1424
     86 H           5.4020  -16.3718    0.0012 H       1  LIG1        0.1424
     87 C           6.4219  -13.8767    0.2104 C.ar    1  LIG1        0.1108
     88 C           7.3445  -14.8494   -0.1537 C.ar    1  LIG1        0.1673
     89 C           8.6520  -14.3616    0.0943 C.ar    1  LIG1        0.0851
     90 C           8.5017  -13.0872    0.5941 C.ar    1  LIG1        0.0267
     91 N           7.1641  -12.8143    0.6446 N.ar    1  LIG1       -0.3548
     92 H           6.7112  -11.9508    0.9015 H       1  LIG1        0.1655
     93 H           9.2421  -12.3753    0.9231 H       1  LIG1        0.0827
     94 O           7.1032  -16.0973   -0.6952 O.3     1  LIG1       -0.4911
     95 C           6.9851  -16.0805   -2.1158 C.3     1  LIG1        0.0790
     96 H           7.8889  -15.6661   -2.5735 H       1  LIG1        0.0660
     97 H           6.8548  -17.1157   -2.4361 H       1  LIG1        0.0660
     98 H           6.1214  -15.4856   -2.4306 H       1  LIG1        0.0660
     99 N           9.8408  -15.0891   -0.0978 N.pl3   1  LIG1       -0.3540
    100 H           9.6369  -16.0281   -0.4167 H       1  LIG1        0.1425
    101 H          10.4854  -14.6438   -0.7385 H       1  LIG1        0.1425
@<TRIPOS>BOND
     1    49    48    1
     2    96    95    1
     3    72    71    1
     4    48    47    3
     5    97    95    1
     6    98    95    1
     7    46    45    1
     8    95    94    1
     9    12     9    1
    10    47    41    1
    11    71    67    1
    12    45    40    1
    13    68    66    1
    14    40    41   ar
    15    40    39   ar
    16    41    42   ar
    17    10     9    1
    18     9     8    1
    19     9    11    1
    20    32    29    1
    21    37    36    1
    22    67    66   ar
    23    67    64   ar
    24    66    63   ar
    25    57    55    1
    26    21    20    1
    27   101    99    1
    28     8     2    1
    29    94    88    1
    30     7     1    1
    31    39    31    1
    32    39    43   ar
    33    42    50    1
    34    42    43   ar
    35    82    80    1
    36    29    31   ar
    37    29    28   ar
    38    36    28    1
    39     1     2   ar
    40     1     5   ar
    41     2     3   ar
    42   100    99    1
    43    31    34   ar
    44    28    30   ar
    45    50    54   ar
    46    50    51   ar
    47    43    44    1
    48     5     4   ar
    49     5     6    1
    50    54    53   ar
    51     3    13    1
    52     3     4   ar
    53    88    89   ar
    54    88    87   ar
    55    13    14    3
    56    99    89    1
    57    14    15    1
    58    20    16   ar
    59    20    19   ar
    60    86    84    1
    61     4    16    1
    62    34    38    1
    63    34    33   ar
    64    85    84    1
    65    51    55    1
    66    51    52   ar
    67    89    90   ar
    68    79    75    1
    69    30    33   ar
    70    30    19    1
    71    53    63    1
    72    53    52   ar
    73    75    76   ar
    74    75    74   ar
    75    55    58    1
    76    55    56    1
    77    76    77   ar
    78    76    84    1
    79    74    64    1
    80    74    73   ar
    81    64    62   ar
    82    63    61   ar
    83    77    87    1
    84    77    78   ar
    85    87    91   ar
    86    33    35    1
    87    78    73   ar
    88    73    80    1
    89    52    60    1
    90    16    17   ar
    91    19    18   ar
    92    80    83    1
    93    80    81    1
    94    60    59    3
    95    90    91   ar
    96    90    93    1
    97    91    92    1
    98    17    18   ar
    99    17    22    1
   100    18    23    1
   101    62    61   ar
   102    62    65    1
   103    61    70    1
   104    27    24    1
   105    23    24    1
   106    24    25    1
   107    24    26    1
   108    70    69    3
