@<TRIPOS>MOLECULE
mol_data/opt/cam/geoms/mol2/13le13le-13le13le-.out
 58 61 0 0 0
SMALL
GASTEIGER

@<TRIPOS>ATOM
      1 C           1.3064   -0.6554    0.2235 C.ar    1  LIG1        0.0457
      2 C           0.9649    0.5950   -0.2288 C.ar    1  LIG1        0.1533
      3 C          -0.4591    0.6642   -0.3231 C.ar    1  LIG1        0.0930
      4 C          -0.9385   -0.5784    0.0859 C.ar    1  LIG1        0.0858
      5 N           0.1304   -1.3530    0.4073 N.ar    1  LIG1       -0.3554
      6 H           0.0238   -2.2945    0.7539 H       1  LIG1        0.1655
      7 H           2.2646   -1.1021    0.4273 H       1  LIG1        0.0845
      8 O           1.7582    1.6397   -0.5565 O.3     1  LIG1       -0.4924
      9 C           3.1410    1.4106   -0.4083 C.3     1  LIG1        0.0789
     10 H           3.6469    2.3290   -0.7052 H       1  LIG1        0.0660
     11 H           3.3951    1.1758    0.6333 H       1  LIG1        0.0660
     12 H           3.4779    0.5862   -1.0496 H       1  LIG1        0.0660
     13 C          -1.2362    1.7635   -0.7654 C.1     1  LIG1       -0.0638
     14 C          -1.9230    2.6822   -1.1409 C.1     1  LIG1       -0.1137
     15 H          -2.5122    3.4882   -1.5122 H       1  LIG1        0.1232
     16 C          -2.2838   -1.0803    0.2058 C.ar    1  LIG1        0.1081
     17 C          -2.7234   -2.3442    0.5385 C.ar    1  LIG1        0.1627
     18 C          -4.1497   -2.3360    0.5548 C.ar    1  LIG1        0.0937
     19 C          -4.5315   -1.0331    0.2229 C.ar    1  LIG1        0.0862
     20 N          -3.4028   -0.3027    0.0242 N.ar    1  LIG1       -0.3478
     21 H          -3.4028    0.6723   -0.2521 H       1  LIG1        0.1661
     22 O          -1.8789   -3.3758    0.8451 O.3     1  LIG1       -0.4917
     23 C          -2.0488   -4.5464    0.0488 C.3     1  LIG1        0.0789
     24 H          -1.3019   -5.2640    0.3902 H       1  LIG1        0.0660
     25 H          -3.0467   -4.9706    0.1820 H       1  LIG1        0.0660
     26 H          -1.8873   -4.3218   -1.0111 H       1  LIG1        0.0660
     27 C          -5.0273   -3.3954    0.8976 C.1     1  LIG1       -0.0638
     28 C          -5.7953   -4.2813    1.1861 C.1     1  LIG1       -0.1137
     29 H          -6.4693   -5.0488    1.4895 H       1  LIG1        0.1232
     30 C          -5.8347   -0.4352    0.0969 C.ar    1  LIG1        0.1082
     31 C          -6.1734    0.8872   -0.1021 C.ar    1  LIG1        0.1627
     32 C          -7.5950    0.9836   -0.1600 C.ar    1  LIG1        0.0937
     33 C          -8.0781   -0.3165    0.0056 C.ar    1  LIG1        0.0862
     34 N          -7.0118   -1.1450    0.1525 N.ar    1  LIG1       -0.3478
     35 H          -7.0979   -2.1402    0.3206 H       1  LIG1        0.1661
     36 O          -5.2558    1.8855   -0.2540 O.3     1  LIG1       -0.4917
     37 C          -5.2982    2.8966    0.7520 C.3     1  LIG1        0.0789
     38 H          -4.4542    3.5583    0.5568 H       1  LIG1        0.0660
     39 H          -6.2326    3.4616    0.7005 H       1  LIG1        0.0660
     40 H          -5.1927    2.4557    1.7487 H       1  LIG1        0.0660
     41 C          -8.3761    2.1471   -0.3756 C.1     1  LIG1       -0.0638
     42 C          -9.0559    3.1299   -0.5498 C.1     1  LIG1       -0.1137
     43 H          -9.6272    4.0116   -0.7281 H       1  LIG1        0.1232
     44 C          -9.4233   -0.8314    0.0237 C.ar    1  LIG1        0.1077
     45 C          -9.8610   -2.1378    0.0959 C.ar    1  LIG1        0.1620
     46 C         -11.2887   -2.1329    0.0880 C.ar    1  LIG1        0.0842
     47 C         -11.6644   -0.8032    0.0088 C.ar    1  LIG1        0.0213
     48 N         -10.5460   -0.0370   -0.0221 N.ar    1  LIG1       -0.3554
     49 H         -10.5092    0.9696   -0.0919 H       1  LIG1        0.1655
     50 H         -12.6525   -0.3722   -0.0204 H       1  LIG1        0.0820
     51 O          -9.0160   -3.2058    0.1986 O.3     1  LIG1       -0.4917
     52 C          -9.1283   -4.1615   -0.8549 C.3     1  LIG1        0.0789
     53 H          -8.3495   -4.9041   -0.6789 H       1  LIG1        0.0660
     54 H         -10.1092   -4.6426   -0.8436 H       1  LIG1        0.0660
     55 H          -8.9654   -3.6860   -1.8279 H       1  LIG1        0.0660
     56 C         -12.1613   -3.2506    0.1747 C.1     1  LIG1       -0.0645
     57 C         -12.8996   -4.2001    0.2454 C.1     1  LIG1       -0.1137
     58 H         -13.5558   -5.0359    0.3215 H       1  LIG1        0.1232
@<TRIPOS>BOND
     1    55    52    1
     2    15    14    1
     3    14    13    3
     4    12     9    1
     5    26    23    1
     6    52    54    1
     7    52    53    1
     8    52    51    1
     9    13     3    1
    10    43    42    1
    11    10     9    1
    12     8     9    1
    13     8     2    1
    14    42    41    3
    15     9    11    1
    16    41    32    1
    17     3     2   ar
    18     3     4   ar
    19    36    31    1
    20    36    37    1
    21    21    20    1
    22     2     1   ar
    23    32    31   ar
    24    32    33   ar
    25    31    30   ar
    26    49    48    1
    27    48    47   ar
    28    48    44   ar
    29    50    47    1
    30    33    44    1
    31    33    34   ar
    32    47    46   ar
    33    44    45   ar
    34    20    16   ar
    35    20    19   ar
    36    23    25    1
    37    23    24    1
    38    23    22    1
    39     4    16    1
    40     4     5   ar
    41    46    45   ar
    42    46    56    1
    43    45    51    1
    44    30    34   ar
    45    30    19    1
    46    34    35    1
    47    56    57    3
    48    16    17   ar
    49    19    18   ar
    50     1     5   ar
    51     1     7    1
    52    57    58    1
    53     5     6    1
    54    17    18   ar
    55    17    22    1
    56    18    27    1
    57    38    37    1
    58    39    37    1
    59    37    40    1
    60    27    28    3
    61    28    29    1
