@<TRIPOS>MOLECULE
mol_data/opt/cam/geoms/mol2/13le13le-13le-13le.out
 58 61 0 0 0
SMALL
GASTEIGER

@<TRIPOS>ATOM
      1 C           1.0646   -0.3687   -0.0009 C.ar    1  LIG1        0.0457
      2 C           0.5922    0.8913   -0.2738 C.ar    1  LIG1        0.1533
      3 C          -0.8341    0.8310   -0.3352 C.ar    1  LIG1        0.0930
      4 C          -1.1787   -0.4985   -0.0941 C.ar    1  LIG1        0.0858
      5 N          -0.0336   -1.2001    0.0993 N.ar    1  LIG1       -0.3554
      6 H          -0.0411   -2.1758    0.3556 H       1  LIG1        0.1655
      7 H           2.0667   -0.7412    0.1259 H       1  LIG1        0.0845
      8 O           1.2714    2.0439   -0.4664 O.3     1  LIG1       -0.4924
      9 C           2.6737    1.9373   -0.3656 C.3     1  LIG1        0.0789
     10 H           3.0792    2.9336   -0.5400 H       1  LIG1        0.0660
     11 H           2.9745    1.5911    0.6313 H       1  LIG1        0.0660
     12 H           3.0737    1.2451   -1.1173 H       1  LIG1        0.0660
     13 C          -1.7433    1.8972   -0.5557 C.1     1  LIG1       -0.0638
     14 C          -2.5680    2.7632   -0.7312 C.1     1  LIG1       -0.1137
     15 H          -3.3041    3.5233   -0.8712 H       1  LIG1        0.1232
     16 C          -2.4742   -1.1209   -0.0186 C.ar    1  LIG1        0.1081
     17 C          -2.8447   -2.4084    0.2979 C.ar    1  LIG1        0.1627
     18 C          -4.2732   -2.4847    0.2962 C.ar    1  LIG1        0.0937
     19 C          -4.7297   -1.2122   -0.0530 C.ar    1  LIG1        0.0862
     20 N          -3.6349   -0.4166   -0.2228 N.ar    1  LIG1       -0.3478
     21 H          -3.6360    0.5280   -0.5831 H       1  LIG1        0.1661
     22 O          -1.9409   -3.3838    0.6157 O.3     1  LIG1       -0.4917
     23 C          -2.0388   -4.5713   -0.1692 C.3     1  LIG1        0.0789
     24 H          -1.2510   -5.2384    0.1828 H       1  LIG1        0.0660
     25 H          -3.0099   -5.0518   -0.0351 H       1  LIG1        0.0660
     26 H          -1.8863   -4.3480   -1.2309 H       1  LIG1        0.0660
     27 C          -5.0451   -3.6054    0.6967 C.1     1  LIG1       -0.0638
     28 C          -5.6541   -4.5781    1.0661 C.1     1  LIG1       -0.1137
     29 H          -6.1977   -5.4330    1.3949 H       1  LIG1        0.1232
     30 C          -6.0403   -0.6182   -0.1842 C.ar    1  LIG1        0.1082
     31 C          -7.2767   -1.1031   -0.5584 C.ar    1  LIG1        0.1627
     32 C          -8.1922   -0.0022   -0.6034 C.ar    1  LIG1        0.0937
     33 C          -7.4623    1.1349   -0.2632 C.ar    1  LIG1        0.0862
     34 N          -6.1839    0.7480   -0.0248 N.ar    1  LIG1       -0.3478
     35 H          -5.4841    1.4030    0.2961 H       1  LIG1        0.1661
     36 O          -7.5261   -2.3842   -0.9191 O.3     1  LIG1       -0.4917
     37 C          -8.5002   -3.0598   -0.1335 C.3     1  LIG1        0.0789
     38 H          -8.5920   -4.0609   -0.5556 H       1  LIG1        0.0660
     39 H          -8.1708   -3.1355    0.9074 H       1  LIG1        0.0660
     40 H          -9.4698   -2.5559   -0.1808 H       1  LIG1        0.0660
     41 C          -9.5586   -0.0240   -0.9830 C.1     1  LIG1       -0.0638
     42 C         -10.7239   -0.0154   -1.2997 C.1     1  LIG1       -0.1137
     43 H         -11.7455   -0.0435   -1.6017 H       1  LIG1        0.1232
     44 C          -7.8338    2.5218   -0.1488 C.ar    1  LIG1        0.1077
     45 C          -7.0530    3.6123    0.1791 C.ar    1  LIG1        0.1620
     46 C          -7.8717    4.7809    0.1247 C.ar    1  LIG1        0.0842
     47 C          -9.1345    4.3435   -0.2368 C.ar    1  LIG1        0.0213
     48 N          -9.0986    2.9986   -0.4020 N.ar    1  LIG1       -0.3554
     49 H          -9.8668    2.4043   -0.6788 H       1  LIG1        0.1655
     50 H         -10.0372    4.9140   -0.3873 H       1  LIG1        0.0820
     51 O          -5.7124    3.5167    0.4416 O.3     1  LIG1       -0.4917
     52 C          -5.2882    4.0776    1.6870 C.3     1  LIG1        0.0789
     53 H          -4.2164    3.8889    1.7532 H       1  LIG1        0.0660
     54 H          -5.4784    5.1522    1.7152 H       1  LIG1        0.0660
     55 H          -5.8034    3.5925    2.5226 H       1  LIG1        0.0660
     56 C          -7.4881    6.1303    0.3502 C.1     1  LIG1       -0.0645
     57 C          -7.1653    7.2754    0.5403 C.1     1  LIG1       -0.1137
     58 H          -6.8803    8.2901    0.6955 H       1  LIG1        0.1232
@<TRIPOS>BOND
     1    43    42    1
     2    42    41    3
     3    26    23    1
     4    12     9    1
     5    41    32    1
     6    36    31    1
     7    36    37    1
     8    15    14    1
     9    14    13    3
    10    49    48    1
    11    32    31   ar
    12    32    33   ar
    13    21    20    1
    14    31    30   ar
    15    13     3    1
    16    38    37    1
    17    10     9    1
    18     8     9    1
    19     8     2    1
    20    48    47   ar
    21    48    44   ar
    22    50    47    1
    23     9    11    1
    24     3     2   ar
    25     3     4   ar
    26     2     1   ar
    27    33    44    1
    28    33    34   ar
    29    47    46   ar
    30    20    19   ar
    31    20    16   ar
    32    30    19    1
    33    30    34   ar
    34    40    37    1
    35    23    25    1
    36    23    24    1
    37    23    22    1
    38    44    45   ar
    39    37    39    1
    40     4    16    1
    41     4     5   ar
    42    19    18   ar
    43    34    35    1
    44    16    17   ar
    45     1     5   ar
    46     1     7    1
    47     5     6    1
    48    46    45   ar
    49    46    56    1
    50    45    51    1
    51    18    17   ar
    52    18    27    1
    53    17    22    1
    54    56    57    3
    55    51    52    1
    56    57    58    1
    57    27    28    3
    58    28    29    1
    59    52    54    1
    60    52    53    1
    61    52    55    1
