@<TRIPOS>MOLECULE
mol_data/opt/cam/geoms/mol2/13lf13lf-13lf.out
 41 43 0 0 0
SMALL
GASTEIGER

@<TRIPOS>ATOM
      1 C           1.3071   -0.7541   -0.3529 C.ar    1  LIG1        0.0482
      2 C           0.9505    0.5602   -0.1491 C.ar    1  LIG1        0.1793
      3 C          -0.4609    0.6219   -0.0793 C.ar    1  LIG1        0.1859
      4 C          -0.9454   -0.6556   -0.2397 C.ar    1  LIG1        0.1124
      5 N           0.1429   -1.4828   -0.3939 N.ar    1  LIG1       -0.3534
      6 H           0.0467   -2.4629   -0.6052 H       1  LIG1        0.1656
      7 H           2.2728   -1.2181   -0.4642 H       1  LIG1        0.0845
      8 O           1.7021    1.6894   -0.0178 O.3     1  LIG1       -0.4900
      9 C           3.0929    1.4973   -0.1419 C.3     1  LIG1        0.0790
     10 H           3.5626    2.4742   -0.0272 H       1  LIG1        0.0660
     11 H           3.4685    0.8199    0.6355 H       1  LIG1        0.0660
     12 H           3.3478    1.0833   -1.1257 H       1  LIG1        0.0660
     13 O          -1.2268    1.7367    0.1182 O.3     1  LIG1       -0.5019
     14 H          -0.6337    2.4984    0.1315 H       1  LIG1        0.2924
     15 C          -2.2973   -1.1460   -0.2655 C.ar    1  LIG1        0.1131
     16 C          -2.7680   -2.4420   -0.3732 C.ar    1  LIG1        0.1889
     17 C          -4.1798   -2.3858   -0.3964 C.ar    1  LIG1        0.1866
     18 C          -4.5504   -1.0618   -0.2932 C.ar    1  LIG1        0.1129
     19 N          -3.3915   -0.3264   -0.2118 N.ar    1  LIG1       -0.3458
     20 H          -3.3680    0.6836   -0.1631 H       1  LIG1        0.1662
     21 O          -1.9933   -3.5771   -0.4716 O.3     1  LIG1       -0.4895
     22 C          -2.0179   -4.3666    0.7159 C.3     1  LIG1        0.0791
     23 H          -1.4126   -5.2538    0.5208 H       1  LIG1        0.0660
     24 H          -1.5985   -3.8124    1.5625 H       1  LIG1        0.0660
     25 H          -3.0407   -4.6691    0.9628 H       1  LIG1        0.0660
     26 O          -5.0571   -3.4449   -0.4664 O.3     1  LIG1       -0.5019
     27 H          -4.6797   -4.0978   -1.0692 H       1  LIG1        0.2924
     28 C          -5.8587   -0.4637   -0.2625 C.ar    1  LIG1        0.1126
     29 C          -6.2266    0.8620   -0.1456 C.ar    1  LIG1        0.1882
     30 C          -7.6441    0.9180   -0.1961 C.ar    1  LIG1        0.1769
     31 C          -8.1046   -0.3697   -0.3371 C.ar    1  LIG1        0.0480
     32 N          -7.0062   -1.1979   -0.3854 N.ar    1  LIG1       -0.3534
     33 H          -7.0040   -2.2006   -0.4828 H       1  LIG1        0.1656
     34 H          -9.1110   -0.7516   -0.4084 H       1  LIG1        0.0845
     35 O          -5.3331    1.8974   -0.0558 O.3     1  LIG1       -0.4895
     36 C          -5.5084    2.7222    1.0904 C.3     1  LIG1        0.0791
     37 H          -4.7271    3.4824    1.0490 H       1  LIG1        0.0660
     38 H          -6.4907    3.2022    1.0799 H       1  LIG1        0.0660
     39 H          -5.4009    2.1387    2.0122 H       1  LIG1        0.0660
     40 O          -8.3482    2.0864   -0.1065 O.3     1  LIG1       -0.5023
     41 H          -9.2898    1.8874   -0.1508 H       1  LIG1        0.2923
@<TRIPOS>BOND
     1    12     9    1
     2    27    26    1
     3     6     5    1
     4    33    32    1
     5    21    16    1
     6    21    22    1
     7    26    17    1
     8     7     1    1
     9    34    31    1
    10    17    16   ar
    11    17    18   ar
    12     5     1   ar
    13     5     4   ar
    14    32    31   ar
    15    32    28   ar
    16    16    15   ar
    17     1     2   ar
    18    31    30   ar
    19    18    28    1
    20    18    19   ar
    21    15     4    1
    22    15    19   ar
    23    28    29   ar
    24     4     3   ar
    25    19    20    1
    26    30    29   ar
    27    30    40    1
    28    41    40    1
    29     2     3   ar
    30     2     8    1
    31    29    35    1
    32     9    10    1
    33     9     8    1
    34     9    11    1
    35     3    13    1
    36    35    36    1
    37    13    14    1
    38    23    22    1
    39    22    25    1
    40    22    24    1
    41    37    36    1
    42    38    36    1
    43    36    39    1
