@<TRIPOS>MOLECULE
mol_data/opt/cam/geoms/mol2/13lf13lf-13lf13lf-.out
 54 57 0 0 0
SMALL
GASTEIGER

@<TRIPOS>ATOM
      1 C           1.2583   -0.7354   -0.4245 C.ar    1  LIG1        0.0482
      2 C           0.8884    0.5808   -0.2589 C.ar    1  LIG1        0.1793
      3 C          -0.5218    0.6266   -0.1648 C.ar    1  LIG1        0.1859
      4 C          -0.9921   -0.6618   -0.2724 C.ar    1  LIG1        0.1124
      5 N           0.1035   -1.4795   -0.4203 N.ar    1  LIG1       -0.3534
      6 H           0.0164   -2.4693   -0.5857 H       1  LIG1        0.1656
      7 H           2.2277   -1.1906   -0.5387 H       1  LIG1        0.0845
      8 O           1.6268    1.7233   -0.1811 O.3     1  LIG1       -0.4900
      9 C           3.0185    1.5448   -0.3198 C.3     1  LIG1        0.0790
     10 H           3.4767    2.5308   -0.2436 H       1  LIG1        0.0660
     11 H           3.4138    0.8978    0.4735 H       1  LIG1        0.0660
     12 H           3.2645    1.1025   -1.2933 H       1  LIG1        0.0660
     13 O          -1.2999    1.7383    0.0088 O.3     1  LIG1       -0.5019
     14 H          -0.7170    2.5074   -0.0224 H       1  LIG1        0.2924
     15 C          -2.3383   -1.1661   -0.2530 C.ar    1  LIG1        0.1131
     16 C          -2.8016   -2.4675   -0.3071 C.ar    1  LIG1        0.1889
     17 C          -4.2150   -2.4217   -0.3023 C.ar    1  LIG1        0.1866
     18 C          -4.5929   -1.0968   -0.2347 C.ar    1  LIG1        0.1129
     19 N          -3.4368   -0.3507   -0.1996 N.ar    1  LIG1       -0.3458
     20 H          -3.4087    0.6594   -0.2216 H       1  LIG1        0.1662
     21 O          -2.0152   -3.5946   -0.3839 O.3     1  LIG1       -0.4895
     22 C          -2.0508   -4.3781    0.8075 C.3     1  LIG1        0.0791
     23 H          -1.4344   -5.2603    0.6259 H       1  LIG1        0.0660
     24 H          -1.6489   -3.8155    1.6570 H       1  LIG1        0.0660
     25 H          -3.0744   -4.6885    1.0401 H       1  LIG1        0.0660
     26 O          -5.0869   -3.4856   -0.3124 O.3     1  LIG1       -0.5019
     27 H          -4.7597   -4.1309   -0.9516 H       1  LIG1        0.2924
     28 C          -5.9007   -0.5035   -0.1981 C.ar    1  LIG1        0.1131
     29 C          -6.2749    0.8244   -0.0898 C.ar    1  LIG1        0.1889
     30 C          -7.6847    0.8805   -0.1483 C.ar    1  LIG1        0.1866
     31 C          -8.1543   -0.4082   -0.2829 C.ar    1  LIG1        0.1129
     32 N          -7.0527   -1.2348   -0.3023 N.ar    1  LIG1       -0.3458
     33 H          -7.0899   -2.2336   -0.4497 H       1  LIG1        0.1662
     34 O          -5.4315    1.9052    0.0251 O.3     1  LIG1       -0.4895
     35 C          -5.2896    2.3639    1.3685 C.3     1  LIG1        0.0791
     36 H          -4.6245    3.2283    1.3387 H       1  LIG1        0.0660
     37 H          -6.2582    2.6585    1.7867 H       1  LIG1        0.0660
     38 H          -4.8504    1.5866    2.0025 H       1  LIG1        0.0660
     39 O          -8.4747    1.9993   -0.0638 O.3     1  LIG1       -0.5019
     40 H          -7.9499    2.7479   -0.3747 H       1  LIG1        0.2924
     41 C          -9.4991   -0.9070   -0.3862 C.ar    1  LIG1        0.1126
     42 C          -9.9682   -2.2035   -0.4575 C.ar    1  LIG1        0.1882
     43 C         -11.3783   -2.1529   -0.5840 C.ar    1  LIG1        0.1769
     44 C         -11.7466   -0.8315   -0.5824 C.ar    1  LIG1        0.0480
     45 N         -10.5920   -0.0882   -0.4573 N.ar    1  LIG1       -0.3534
     46 H         -10.5226    0.9165   -0.4274 H       1  LIG1        0.1656
     47 H         -12.7198   -0.3756   -0.6557 H       1  LIG1        0.0845
     48 O          -9.2106   -3.3546   -0.4342 O.3     1  LIG1       -0.4895
     49 C          -9.1635   -3.9617    0.8558 C.3     1  LIG1        0.0791
     50 H          -8.5677   -4.8707    0.7574 H       1  LIG1        0.0660
     51 H          -8.6931   -3.2939    1.5853 H       1  LIG1        0.0660
     52 H         -10.1697   -4.2170    1.2056 H       1  LIG1        0.0660
     53 O         -12.2056   -3.2352   -0.6704 O.3     1  LIG1       -0.5023
     54 H         -11.6635   -3.9762   -0.9699 H       1  LIG1        0.2923
@<TRIPOS>BOND
     1    12     9    1
     2    54    53    1
     3    27    26    1
     4    53    43    1
     5    47    44    1
     6     6     5    1
     7    43    44   ar
     8    43    42   ar
     9    44    45   ar
    10     7     1    1
    11    42    48    1
    12    42    41   ar
    13    45    46    1
    14    45    41   ar
    15    33    32    1
    16    48    49    1
    17     1     5   ar
    18     1     2   ar
    19     5     4   ar
    20    41    31    1
    21    21    16    1
    22    21    22    1
    23    40    39    1
    24     9    10    1
    25     9     8    1
    26     9    11    1
    27    26    17    1
    28    16    17   ar
    29    16    15   ar
    30    32    31   ar
    31    32    28   ar
    32    17    18   ar
    33    31    30   ar
    34     4    15    1
    35     4     3   ar
    36     2     8    1
    37     2     3   ar
    38    15    19   ar
    39    18    19   ar
    40    18    28    1
    41    20    19    1
    42    28    29   ar
    43     3    13    1
    44    30    29   ar
    45    30    39    1
    46    29    34    1
    47    14    13    1
    48    34    35    1
    49    23    22    1
    50    50    49    1
    51    22    25    1
    52    22    24    1
    53    49    52    1
    54    49    51    1
    55    36    35    1
    56    35    37    1
    57    35    38    1
