@<TRIPOS>MOLECULE
mol_data/opt/cam/geoms/mol2/13lf6dd-6ah-6il.out
 53 56 0 0 0
SMALL
GASTEIGER

@<TRIPOS>ATOM
      1 C           1.4757   -0.2830    0.2177 C.ar    1  LIG1        0.0481
      2 C           1.0047    1.0044    0.1009 C.ar    1  LIG1        0.1792
      3 C          -0.3997    0.9385    0.0255 C.ar    1  LIG1        0.1844
      4 C          -0.7804   -0.3969    0.0974 C.ar    1  LIG1        0.0950
      5 N           0.3972   -1.1173    0.2140 N.ar    1  LIG1       -0.3546
      6 H           0.4589   -2.1198    0.2921 H       1  LIG1        0.1656
      7 H           2.4799   -0.6649    0.3018 H       1  LIG1        0.0845
      8 O           1.6348    2.2074    0.0521 O.3     1  LIG1       -0.4900
      9 C           3.0445    2.1561    0.1384 C.3     1  LIG1        0.0790
     10 H           3.4027    3.1837    0.0879 H       1  LIG1        0.0660
     11 H           3.3636    1.7051    1.0857 H       1  LIG1        0.0660
     12 H           3.4680    1.5813   -0.6939 H       1  LIG1        0.0660
     13 O          -1.2135    2.0172   -0.0985 O.3     1  LIG1       -0.5019
     14 H          -0.6503    2.8035   -0.1185 H       1  LIG1        0.2924
     15 C          -2.4478   -2.3275    0.1262 C.ar    1  LIG1        0.1500
     16 C          -2.1161   -0.9588    0.0594 C.ar    1  LIG1        0.0391
     17 C          -3.2274   -0.1058   -0.0440 C.ar    1  LIG1       -0.0303
     18 C          -4.5169   -0.6103   -0.0945 C.ar    1  LIG1        0.0784
     19 C          -4.7306   -2.0091   -0.0551 C.ar    1  LIG1        0.0913
     20 N          -3.6860   -2.8179    0.0674 N.ar    1  LIG1       -0.2343
     21 H          -3.0739    0.9647   -0.0748 H       1  LIG1        0.0638
     22 N          -0.5838   -4.1221    0.3756 N.1     1  LIG1       -0.1893
     23 C          -1.4312   -3.3420    0.2644 C.1     1  LIG1        0.1198
     24 N          -6.4256    1.1397   -0.2004 N.1     1  LIG1       -0.1908
     25 C          -5.5915    0.3401   -0.1509 C.1     1  LIG1        0.1013
     26 C          -6.2501   -3.8666    0.5719 C.ar    1  LIG1        0.0376
     27 C          -6.0577   -2.6621   -0.1113 C.ar    1  LIG1        0.0215
     28 C          -7.1280   -2.1585   -0.8416 C.ar    1  LIG1       -0.0283
     29 C          -8.3475   -2.8347   -0.8535 C.ar    1  LIG1        0.0516
     30 C          -8.4428   -4.0289   -0.1082 C.ar    1  LIG1        0.0934
     31 N          -7.4034   -4.5184    0.5700 N.ar    1  LIG1       -0.2524
     32 H          -7.0310   -1.2478   -1.4218 H       1  LIG1        0.0644
     33 H          -5.4340   -4.3043    1.1366 H       1  LIG1        0.0836
     34 N          -9.4288   -2.3233   -1.5565 N.pl3   1  LIG1       -0.3563
     35 H          -9.1993   -1.6557   -2.2777 H       1  LIG1        0.1424
     36 H         -10.1210   -2.9989   -1.8453 H       1  LIG1        0.1424
     37 C          -9.7756   -6.1641   -0.3578 C.ar    1  LIG1        0.0477
     38 C          -9.7164   -4.7991   -0.0409 C.ar    1  LIG1        0.0266
     39 C         -10.8829   -4.1521    0.3781 C.ar    1  LIG1       -0.0075
     40 C         -12.0617   -4.8767    0.4788 C.ar    1  LIG1        0.1387
     41 C         -12.0236   -6.2302    0.1429 C.ar    1  LIG1        0.0695
     42 N         -10.9243   -6.8462   -0.2629 N.ar    1  LIG1       -0.2559
     43 H         -10.8440   -3.0980    0.6243 H       1  LIG1        0.0662
     44 H         -12.9373   -6.8157    0.2120 H       1  LIG1        0.0867
     45 C          -8.5781   -6.9454   -0.8242 C.3     1  LIG1       -0.0217
     46 H          -7.8684   -7.0936   -0.0075 H       1  LIG1        0.0293
     47 H          -8.0382   -6.4249   -1.6199 H       1  LIG1        0.0293
     48 H          -8.9143   -7.9151   -1.1909 H       1  LIG1        0.0293
     49 O         -13.2612   -4.3815    0.8764 O.3     1  LIG1       -0.4936
     50 C         -13.3215   -3.0182    1.2393 C.3     1  LIG1        0.0789
     51 H         -14.3543   -2.8249    1.5275 H       1  LIG1        0.0660
     52 H         -12.6633   -2.7975    2.0877 H       1  LIG1        0.0660
     53 H         -13.0534   -2.3643    0.4010 H       1  LIG1        0.0660
@<TRIPOS>BOND
     1    35    34    1
     2    36    34    1
     3    47    45    1
     4    34    29    1
     5    32    28    1
     6    48    45    1
     7    29    28   ar
     8    29    30   ar
     9    28    27   ar
    10    45    37    1
    11    45    46    1
    12    12     9    1
    13    37    42   ar
    14    37    38   ar
    15    42    41   ar
    16    24    25    3
    17    25    18    1
    18    14    13    1
    19    27    19    1
    20    27    26   ar
    21    30    38    1
    22    30    31   ar
    23    13     3    1
    24    18    19   ar
    25    18    17   ar
    26    21    17    1
    27    19    20   ar
    28    17    16   ar
    29    38    39   ar
    30     3     4   ar
    31     3     2   ar
    32     8     2    1
    33     8     9    1
    34    16     4    1
    35    16    15   ar
    36    20    15   ar
    37    10     9    1
    38     4     5   ar
    39     2     1   ar
    40    15    23    1
    41     9    11    1
    42    41    44    1
    43    41    40   ar
    44     5     1   ar
    45     5     6    1
    46     1     7    1
    47    23    22    3
    48    39    40   ar
    49    39    43    1
    50    53    50    1
    51    40    49    1
    52    31    26   ar
    53    26    33    1
    54    49    50    1
    55    50    51    1
    56    50    52    1
