@<TRIPOS>MOLECULE
mol_data/opt/cam/geoms/mol2/13lf6lf6ea-13ah-.out
 50 53 0 0 0
SMALL
GASTEIGER

@<TRIPOS>ATOM
      1 C           1.3580   -0.2354    0.4276 C.ar    1  LIG1        0.0481
      2 C           0.9384    0.9862   -0.0502 C.ar    1  LIG1        0.1792
      3 C          -0.4500    0.9055   -0.2835 C.ar    1  LIG1        0.1845
      4 C          -0.8691   -0.3710    0.0548 C.ar    1  LIG1        0.0975
      5 N           0.2577   -1.0412    0.4849 N.ar    1  LIG1       -0.3545
      6 H           0.2173   -2.0002    0.7891 H       1  LIG1        0.1656
      7 H           2.3335   -0.5839    0.7242 H       1  LIG1        0.0845
      8 O           1.6124    2.1440   -0.3024 O.3     1  LIG1       -0.4900
      9 C           2.9957    2.1020   -0.0332 C.3     1  LIG1        0.0790
     10 H           3.3995    3.0840   -0.2794 H       1  LIG1        0.0660
     11 H           3.1854    1.8861    1.0258 H       1  LIG1        0.0660
     12 H           3.4939    1.3399   -0.6455 H       1  LIG1        0.0660
     13 O          -1.2200    1.9234   -0.7596 O.3     1  LIG1       -0.5019
     14 H          -0.6345    2.6796   -0.8984 H       1  LIG1        0.2924
     15 C          -2.4824   -2.3000    0.3783 C.ar    1  LIG1        0.2247
     16 C          -2.1959   -0.9632   -0.0001 C.ar    1  LIG1        0.0670
     17 C          -3.2878   -0.2287   -0.4483 C.ar    1  LIG1       -0.0037
     18 C          -4.5578   -0.7972   -0.4981 C.ar    1  LIG1        0.1437
     19 C          -4.7260   -2.1144   -0.0802 C.ar    1  LIG1        0.1187
     20 N          -3.6744   -2.8333    0.3433 N.ar    1  LIG1       -0.2086
     21 H          -3.1602    0.7954   -0.7748 H       1  LIG1        0.0663
     22 O          -1.4456   -3.0775    0.8094 O.3     1  LIG1       -0.4792
     23 C          -1.7640   -4.4193    1.1623 C.3     1  LIG1        0.0804
     24 H          -0.8156   -4.8851    1.4307 H       1  LIG1        0.0660
     25 H          -2.4537   -4.4477    2.0089 H       1  LIG1        0.0660
     26 H          -2.2279   -4.9442    0.3246 H       1  LIG1        0.0660
     27 O          -5.5754   -0.0181   -0.9632 O.3     1  LIG1       -0.5046
     28 H          -6.3457   -0.5750   -1.1335 H       1  LIG1        0.2922
     29 C          -6.2936   -4.0222   -0.6638 C.ar    1  LIG1        0.1231
     30 C          -6.0557   -2.7694   -0.0677 C.ar    1  LIG1        0.0379
     31 C          -7.1429   -2.1681    0.5756 C.ar    1  LIG1       -0.0477
     32 C          -8.3717   -2.7965    0.6188 C.ar    1  LIG1       -0.0336
     33 C          -8.5045   -4.0491    0.0107 C.ar    1  LIG1        0.0886
     34 N          -7.4790   -4.6369   -0.6181 N.ar    1  LIG1       -0.2363
     35 H          -7.0056   -1.2069    1.0617 H       1  LIG1        0.0626
     36 C          -5.2707   -4.7114   -1.4050 C.1     1  LIG1       -0.0491
     37 C          -4.4547   -5.3029   -2.0616 C.1     1  LIG1       -0.1124
     38 H          -3.7286   -5.8210   -2.6447 H       1  LIG1        0.1232
     39 H          -9.2139   -2.3395    1.1244 H       1  LIG1        0.0640
     40 C          -9.7544   -4.7931    0.0141 C.ar    1  LIG1        0.0668
     41 C         -11.0062   -4.5267    0.5435 C.ar    1  LIG1       -0.0142
     42 C         -11.8414   -5.6256    0.2288 C.ar    1  LIG1        0.0427
     43 C         -11.0739   -6.5285   -0.4825 C.ar    1  LIG1        0.0230
     44 N          -9.8146   -6.0082   -0.5973 N.ar    1  LIG1       -0.3578
     45 H          -9.0122   -6.4093   -1.0577 H       1  LIG1        0.1654
     46 H         -11.3317   -7.4906   -0.8975 H       1  LIG1        0.0826
     47 H         -11.2941   -3.6485    1.1037 H       1  LIG1        0.0658
     48 N         -13.1770   -5.7854    0.6339 N.pl3   1  LIG1       -0.3568
     49 H         -13.6871   -4.9119    0.6369 H       1  LIG1        0.1424
     50 H         -13.6779   -6.4621    0.0734 H       1  LIG1        0.1424
@<TRIPOS>BOND
     1    38    37    1
     2    37    36    3
     3    36    29    1
     4    28    27    1
     5    45    44    1
     6    27    18    1
     7    14    13    1
     8    46    43    1
     9    21    17    1
    10    13     3    1
    11    29    34   ar
    12    29    30   ar
    13    12     9    1
    14    34    33   ar
    15    44    43   ar
    16    44    40   ar
    17    18    17   ar
    18    18    19   ar
    19    43    42   ar
    20    17    16   ar
    21     8     2    1
    22     8     9    1
    23     3     2   ar
    24     3     4   ar
    25    10     9    1
    26    19    30    1
    27    19    20   ar
    28    30    31   ar
    29     2     1   ar
    30     9    11    1
    31    16     4    1
    32    16    15   ar
    33    33    40    1
    34    33    32   ar
    35    40    41   ar
    36     4     5   ar
    37    50    48    1
    38    42    41   ar
    39    42    48    1
    40    26    23    1
    41    20    15   ar
    42    15    22    1
    43     1     5   ar
    44     1     7    1
    45     5     6    1
    46    41    47    1
    47    31    32   ar
    48    31    35    1
    49    32    39    1
    50    48    49    1
    51    22    23    1
    52    23    24    1
    53    23    25    1
