@<TRIPOS>MOLECULE
mol_data/opt/cam/geoms/mol2/13lf6hi6hh-4hh-.out
 53 56 0 0 0
SMALL
GASTEIGER

@<TRIPOS>ATOM
      1 C           1.1953   -0.1560    0.7084 C.ar    1  LIG1        0.0457
      2 C           0.8452    1.1592    0.4701 C.ar    1  LIG1        0.1533
      3 C          -0.5239    1.1936    0.0479 C.ar    1  LIG1        0.0945
      4 C          -0.9675   -0.1381    0.0453 C.ar    1  LIG1        0.1013
      5 N           0.0786   -0.9253    0.4436 N.ar    1  LIG1       -0.3542
      6 H           0.0198   -1.9267    0.5273 H       1  LIG1        0.1656
      7 H           2.1201   -0.6006    1.0358 H       1  LIG1        0.0845
      8 O           1.5896    2.2857    0.5852 O.3     1  LIG1       -0.4924
      9 C           2.9276    2.0923    1.0144 C.3     1  LIG1        0.0789
     10 H           3.3862    3.0809    1.0573 H       1  LIG1        0.0660
     11 H           2.9636    1.6303    2.0105 H       1  LIG1        0.0660
     12 H           3.4854    1.4622    0.3082 H       1  LIG1        0.0660
     13 C          -1.2695    2.3445   -0.2954 C.1     1  LIG1       -0.0638
     14 C          -1.9082    3.3313   -0.5894 C.1     1  LIG1       -0.1137
     15 H          -2.4560    4.2084   -0.8439 H       1  LIG1        0.1232
     16 C          -2.2459   -0.7006   -0.2895 C.ar    1  LIG1        0.1543
     17 C          -3.4384   -0.1785   -0.7051 C.ar    1  LIG1        0.0017
     18 C          -4.3373   -1.2847   -0.8709 C.ar    1  LIG1        0.0710
     19 C          -3.6280   -2.4330   -0.5410 C.ar    1  LIG1        0.1511
     20 O          -2.3532   -2.0677   -0.1879 O.2     1  LIG1       -0.4521
     21 H          -3.6567    0.8638   -0.8743 H       1  LIG1        0.0668
     22 C          -5.6857   -1.1692   -1.2945 C.1     1  LIG1       -0.0658
     23 C          -6.8301   -1.0167   -1.6598 C.1     1  LIG1       -0.1138
     24 H          -7.8378   -0.8885   -1.9805 H       1  LIG1        0.1232
     25 C          -5.2127   -4.3388   -0.8357 C.ar    1  LIG1       -0.0505
     26 C          -5.4724   -5.7009   -0.7791 C.ar    1  LIG1       -0.0530
     27 C          -3.9373   -3.8528   -0.4950 C.ar    1  LIG1        0.0188
     28 C          -4.4922   -6.6284   -0.3966 C.ar    1  LIG1       -0.0113
     29 H          -6.4611   -6.0646   -1.0406 H       1  LIG1        0.0624
     30 C          -2.9595   -4.7821   -0.0960 C.ar    1  LIG1       -0.0475
     31 C          -3.2107   -6.1543   -0.0401 C.ar    1  LIG1       -0.0420
     32 H          -1.9768   -4.4204    0.1867 H       1  LIG1        0.0627
     33 H          -5.9922   -3.6524   -1.1416 H       1  LIG1        0.0625
     34 C          -2.1152   -7.0893    0.4226 C.3     1  LIG1       -0.0391
     35 H          -1.3095   -6.5308    0.9068 H       1  LIG1        0.0278
     36 H          -1.6731   -7.6492   -0.4093 H       1  LIG1        0.0278
     37 H          -2.4949   -7.8293    1.1332 H       1  LIG1        0.0278
     38 C          -5.7678   -8.6172    0.5102 C.ar    1  LIG1        0.1280
     39 C          -6.0722   -9.9827    0.4751 C.ar    1  LIG1       -0.0159
     40 C          -4.8236   -8.0846   -0.3936 C.ar    1  LIG1        0.0275
     41 C          -5.4551  -10.8267   -0.4477 C.ar    1  LIG1       -0.0167
     42 H          -6.7919  -10.4036    1.1668 H       1  LIG1        0.0655
     43 C          -4.2163   -8.9487   -1.3113 C.ar    1  LIG1       -0.0090
     44 C          -4.5236  -10.3116   -1.3474 C.ar    1  LIG1        0.1177
     45 H          -3.5024   -8.5368   -2.0216 H       1  LIG1        0.0661
     46 H          -5.6922  -11.8847   -0.4779 H       1  LIG1        0.0655
     47 O          -6.3279   -7.7294    1.3913 O.3     1  LIG1       -0.4945
     48 C          -7.2792   -8.2163    2.3210 C.3     1  LIG1        0.0788
     49 H          -7.5914   -7.3532    2.9108 H       1  LIG1        0.0660
     50 H          -8.1568   -8.6464    1.8203 H       1  LIG1        0.0660
     51 H          -6.8461   -8.9714    2.9903 H       1  LIG1        0.0660
     52 O          -3.9487  -11.1785   -2.2412 O.3     1  LIG1       -0.5067
     53 H          -3.3392  -10.6870   -2.8066 H       1  LIG1        0.2921
@<TRIPOS>BOND
     1    53    52    1
     2    52    44    1
     3    45    43    1
     4    24    23    1
     5    23    22    3
     6    44    43   ar
     7    44    41   ar
     8    43    40   ar
     9    22    18    1
    10    33    25    1
    11    29    26    1
    12    21    17    1
    13    18    17   ar
    14    18    19   ar
    15    15    14    1
    16    25    26   ar
    17    25    27   ar
    18    26    28   ar
    19    17    16   ar
    20    14    13    3
    21    19    27    1
    22    19    20   ar
    23    27    30   ar
    24    46    41    1
    25    41    39   ar
    26    36    34    1
    27    28    40    1
    28    28    31   ar
    29    40    38   ar
    30    13     3    1
    31    16    20   ar
    32    16     4    1
    33    30    31   ar
    34    30    32    1
    35    31    34    1
    36     4     3   ar
    37     4     5   ar
    38     3     2   ar
    39    12     9    1
    40    34    35    1
    41    34    37    1
    42     5     6    1
    43     5     1   ar
    44     2     8    1
    45     2     1   ar
    46    39    38   ar
    47    39    42    1
    48    38    47    1
    49     8     9    1
    50     1     7    1
    51     9    10    1
    52     9    11    1
    53    47    48    1
    54    50    48    1
    55    48    49    1
    56    48    51    1
