@<TRIPOS>MOLECULE
mol_data/opt/cam/geoms/mol2/13lf12ai-13hi-4aa6af-13fe-12lh6ii.out
 97 104 0 0 0
SMALL
GASTEIGER

@<TRIPOS>ATOM
      1 C           0.4590    0.1848   -2.6784 C.ar    1  LIG1        0.0482
      2 C           0.4817    1.3144   -1.8880 C.ar    1  LIG1        0.1793
      3 C          -0.5474    1.1794   -0.9222 C.ar    1  LIG1        0.1874
      4 C          -1.1771   -0.0278   -1.1507 C.ar    1  LIG1        0.1278
      5 N          -0.5442   -0.6277   -2.2130 N.ar    1  LIG1       -0.3522
      6 H          -0.8166   -1.5142   -2.5999 H       1  LIG1        0.1656
      7 H           1.0744   -0.1017   -3.5146 H       1  LIG1        0.0845
      8 O           1.2973    2.3959   -1.9414 O.3     1  LIG1       -0.4900
      9 C           2.2608    2.3619   -2.9675 C.3     1  LIG1        0.0790
     10 H           2.8344    3.2858   -2.8938 H       1  LIG1        0.0660
     11 H           2.9378    1.5052   -2.8520 H       1  LIG1        0.0660
     12 H           1.7881    2.3067   -3.9570 H       1  LIG1        0.0660
     13 O          -0.8257    2.0948    0.0476 O.3     1  LIG1       -0.5018
     14 H          -1.1839    1.6235    0.8111 H       1  LIG1        0.2924
     15 C          -2.2814   -0.6220   -0.4479 C.ar    1  LIG1        0.1558
     16 C          -3.2382   -0.1175    0.3799 C.ar    1  LIG1       -0.0107
     17 C          -4.0430   -1.2212    0.8155 C.ar    1  LIG1       -0.0025
     18 C          -3.5385   -2.3252    0.1904 C.ar    1  LIG1        0.1565
     19 O          -2.4494   -1.9679   -0.5785 O.2     1  LIG1       -0.4514
     20 H          -3.3832    0.9255    0.6231 H       1  LIG1        0.0659
     21 C          -5.1584   -1.1598    1.8114 C.3     1  LIG1       -0.0360
     22 H          -5.6041   -2.1411    1.9786 H       1  LIG1        0.0279
     23 H          -5.9515   -0.4798    1.4830 H       1  LIG1        0.0279
     24 H          -4.7951   -0.7843    2.7730 H       1  LIG1        0.0279
     25 C          -3.8869   -3.7261    0.1697 C.ar    1  LIG1        0.1040
     26 C          -5.1115   -4.3674    0.1278 C.ar    1  LIG1        0.0568
     27 C          -4.8768   -5.7687    0.0856 C.ar    1  LIG1       -0.0038
     28 C          -3.5015   -5.9481    0.0802 C.ar    1  LIG1        0.0517
     29 N          -2.9198   -4.7121    0.1560 N.ar    1  LIG1       -0.3501
     30 H          -1.9373   -4.5281    0.0390 H       1  LIG1        0.1661
     31 N          -6.3796   -3.7694    0.1752 N.pl3   1  LIG1       -0.3560
     32 H          -6.3624   -2.8088   -0.1454 H       1  LIG1        0.1424
     33 H          -7.0679   -4.2895   -0.3543 H       1  LIG1        0.1424
     34 C          -5.9530   -6.8087    0.1169 C.3     1  LIG1       -0.0359
     35 H          -5.5717   -7.7680    0.4722 H       1  LIG1        0.0279
     36 H          -6.4037   -6.9821   -0.8685 H       1  LIG1        0.0279
     37 H          -6.7588   -6.5041    0.7923 H       1  LIG1        0.0279
     38 C          -3.0785   -8.2870   -0.6861 C.ar    1  LIG1       -0.0520
     39 C          -2.2946   -9.4292   -0.7161 C.ar    1  LIG1       -0.0534
     40 C          -2.6845   -7.1618    0.0473 C.ar    1  LIG1       -0.0013
     41 C          -1.0800   -9.4925   -0.0272 C.ar    1  LIG1       -0.0163
     42 H          -2.6131  -10.2769   -1.3143 H       1  LIG1        0.0624
     43 C          -1.4692   -7.2270    0.7400 C.ar    1  LIG1       -0.0520
     44 C          -0.6817   -8.3661    0.6992 C.ar    1  LIG1       -0.0534
     45 H          -1.1562   -6.3855    1.3502 H       1  LIG1        0.0624
     46 H          -3.9939   -8.2520   -1.2653 H       1  LIG1        0.0624
     47 H           0.2395   -8.3965    1.2716 H       1  LIG1        0.0624
     48 C           1.1531  -10.6363   -0.0976 C.ar    1  LIG1        0.0363
     49 C          -0.2430  -10.7106   -0.0667 C.ar    1  LIG1        0.0037
     50 C          -0.7984  -11.9851   -0.0804 C.ar    1  LIG1       -0.0088
     51 C           0.0068  -13.1185   -0.1201 C.ar    1  LIG1        0.1448
     52 C           1.4037  -12.9346   -0.1493 C.ar    1  LIG1        0.1319
     53 N           1.9356  -11.7025   -0.1361 N.ar    1  LIG1       -0.2491
     54 H          -1.8715  -12.1339   -0.0319 H       1  LIG1        0.0661
     55 H           1.6527   -9.6716   -0.1132 H       1  LIG1        0.0836
     56 O          -0.6283  -14.3051   -0.1068 O.3     1  LIG1       -0.5045
     57 H          -0.0214  -15.0659   -0.1548 H       1  LIG1        0.2922
     58 C           2.4018  -14.0050   -0.1809 C.ar    1  LIG1        0.1123
     59 C           2.3952  -15.3809   -0.2572 C.ar    1  LIG1        0.1598
     60 C           3.7315  -15.8592   -0.2343 C.ar    1  LIG1        0.0951
     61 C           4.5485  -14.7271   -0.1561 C.ar    1  LIG1        0.1055
     62 N           3.7310  -13.6474   -0.1281 N.ar    1  LIG1       -0.3464
     63 H           4.0031  -12.6752   -0.0765 H       1  LIG1        0.1662
     64 O           1.2890  -16.1742   -0.3450 O.3     1  LIG1       -0.5034
     65 H           1.5525  -17.0984   -0.2306 H       1  LIG1        0.2923
     66 C           4.0485  -17.2392   -0.2165 C.1     1  LIG1       -0.0637
     67 C           4.2086  -18.4350   -0.2018 C.1     1  LIG1       -0.1137
     68 H           4.3933  -19.4841   -0.1703 H       1  LIG1        0.1232
     69 C           5.9770  -14.5706   -0.0799 C.ar    1  LIG1        0.1963
     70 C           7.0614  -15.3347   -0.4151 C.ar    1  LIG1        0.1885
     71 C           8.2280  -14.5881   -0.0699 C.ar    1  LIG1        0.1141
     72 C           7.7886  -13.3950    0.4401 C.ar    1  LIG1        0.1617
     73 O           6.4148  -13.3838    0.4216 O.2     1  LIG1       -0.4475
     74 O           7.1328  -16.5654   -0.9883 O.3     1  LIG1       -0.4896
     75 C           6.6287  -16.6367   -2.3202 C.3     1  LIG1        0.0791
     76 H           6.8057  -17.6567   -2.6614 H       1  LIG1        0.0660
     77 H           5.5563  -16.4309   -2.3523 H       1  LIG1        0.0660
     78 H           7.1552  -15.9318   -2.9732 H       1  LIG1        0.0660
     79 N           9.5235  -15.0717   -0.2285 N.pl3   1  LIG1       -0.3522
     80 H           9.5353  -15.9100   -0.7959 H       1  LIG1        0.1425
     81 H          10.1865  -14.3848   -0.5629 H       1  LIG1        0.1425
     82 C           8.0086  -10.9240    0.9549 C.ar    1  LIG1        0.0489
     83 C           8.5029  -12.2478    0.9844 C.ar    1  LIG1        0.0405
     84 C           9.7568  -12.4609    1.5616 C.ar    1  LIG1       -0.0449
     85 C          10.4910  -11.4027    2.0843 C.ar    1  LIG1       -0.0317
     86 C           9.9051  -10.1453    2.0032 C.ar    1  LIG1        0.0308
     87 N           8.7114   -9.9121    1.4613 N.ar    1  LIG1       -0.2592
     88 H          10.1479  -13.4729    1.6185 H       1  LIG1        0.0628
     89 H          10.4289   -9.2751    2.3956 H       1  LIG1        0.0832
     90 C           6.6793  -10.5535    0.3542 C.3     1  LIG1       -0.0217
     91 H           5.8510  -10.8913    0.9834 H       1  LIG1        0.0293
     92 H           6.5403  -11.0045   -0.6316 H       1  LIG1        0.0293
     93 H           6.6317   -9.4685    0.2686 H       1  LIG1        0.0293
     94 C          11.8403  -11.6074    2.7155 C.3     1  LIG1       -0.0383
     95 H          12.2426  -10.6663    3.0970 H       1  LIG1        0.0278
     96 H          12.5606  -12.0114    1.9977 H       1  LIG1        0.0278
     97 H          11.7855  -12.3112    3.5512 H       1  LIG1        0.0278
@<TRIPOS>BOND
     1    12     9    1
     2     7     1    1
     3    78    75    1
     4     9    10    1
     5     9    11    1
     6     9     8    1
     7     1     5   ar
     8     1     2   ar
     9    76    75    1
    10     6     5    1
    11    77    75    1
    12    75    74    1
    13     5     4   ar
    14     8     2    1
    15     2     3   ar
    16    42    39    1
    17    46    38    1
    18     4     3   ar
    19     4    15    1
    20    74    70    1
    21     3    13    1
    22    36    34    1
    23    80    79    1
    24    39    38   ar
    25    39    41   ar
    26    38    40   ar
    27    92    90    1
    28    19    15   ar
    29    19    18   ar
    30    81    79    1
    31    15    16   ar
    32    70    69   ar
    33    70    71   ar
    34    33    31    1
    35    64    59    1
    36    64    65    1
    37    59    60   ar
    38    59    58   ar
    39    60    66    1
    40    60    61   ar
    41    79    71    1
    42    66    67    3
    43    67    68    1
    44    58    52    1
    45    58    62   ar
    46    61    62   ar
    47    61    69    1
    48    57    56    1
    49    52    53   ar
    50    52    51   ar
    51    32    31    1
    52    53    48   ar
    53    62    63    1
    54    51    56    1
    55    51    50   ar
    56    55    48    1
    57    48    49   ar
    58    50    49   ar
    59    50    54    1
    60    69    73   ar
    61    71    72   ar
    62    49    41    1
    63    41    44   ar
    64    30    29    1
    65    40    28    1
    66    40    43   ar
    67    13    14    1
    68    28    27   ar
    69    28    29   ar
    70    27    34    1
    71    27    26   ar
    72    34    35    1
    73    34    37    1
    74    26    25   ar
    75    26    31    1
    76    29    25   ar
    77    25    18    1
    78    18    17   ar
    79    93    90    1
    80    90    82    1
    81    90    91    1
    82    16    20    1
    83    16    17   ar
    84    73    72   ar
    85    72    83    1
    86    44    43   ar
    87    44    47    1
    88    43    45    1
    89    17    21    1
    90    82    83   ar
    91    82    87   ar
    92    83    84   ar
    93    87    86   ar
    94    23    21    1
    95    84    88    1
    96    84    85   ar
    97    21    22    1
    98    21    24    1
    99    96    94    1
   100    86    85   ar
   101    86    89    1
   102    85    94    1
   103    94    95    1
   104    94    97    1
