@<TRIPOS>MOLECULE
mol_data/opt/cam/geoms/mol2/13lf13lf-13lf-13lf.out
 54 57 0 0 0
SMALL
GASTEIGER

@<TRIPOS>ATOM
      1 C           1.1559   -0.8119    0.1846 C.ar    1  LIG1        0.0482
      2 C           0.7970    0.4201   -0.3176 C.ar    1  LIG1        0.1793
      3 C          -0.6142    0.4905   -0.3216 C.ar    1  LIG1        0.1859
      4 C          -1.0965   -0.6985    0.1765 C.ar    1  LIG1        0.1124
      5 N          -0.0076   -1.4796    0.4767 N.ar    1  LIG1       -0.3534
      6 H          -0.1056   -2.3951    0.8868 H       1  LIG1        0.1656
      7 H           2.1235   -1.2534    0.3548 H       1  LIG1        0.0845
      8 O           1.5467    1.4662   -0.7672 O.3     1  LIG1       -0.4900
      9 C           2.9413    1.2717   -0.7004 C.3     1  LIG1        0.0790
     10 H           3.4097    2.1775   -1.0855 H       1  LIG1        0.0660
     11 H           3.2673    1.1046    0.3339 H       1  LIG1        0.0660
     12 H           3.2498    0.4143   -1.3119 H       1  LIG1        0.0660
     13 O          -1.3879    1.5389   -0.7459 O.3     1  LIG1       -0.5019
     14 H          -0.7907    2.2335   -1.0509 H       1  LIG1        0.2924
     15 C          -2.4502   -1.1381    0.3745 C.ar    1  LIG1        0.1131
     16 C          -2.9358   -2.3609    0.7940 C.ar    1  LIG1        0.1889
     17 C          -4.3515   -2.2862    0.8076 C.ar    1  LIG1        0.1866
     18 C          -4.7012   -1.0123    0.3836 C.ar    1  LIG1        0.1129
     19 N          -3.5259   -0.3217    0.1495 N.ar    1  LIG1       -0.3458
     20 H          -3.4378    0.5740   -0.3059 H       1  LIG1        0.1662
     21 O          -2.1280   -3.3996    1.1830 O.3     1  LIG1       -0.4895
     22 C          -2.4371   -4.6444    0.5657 C.3     1  LIG1        0.0791
     23 H          -1.7331   -5.3749    0.9672 H       1  LIG1        0.0660
     24 H          -3.4594   -4.9506    0.7986 H       1  LIG1        0.0660
     25 H          -2.3165   -4.5810   -0.5225 H       1  LIG1        0.0660
     26 O          -5.1632   -3.2987    1.2060 O.3     1  LIG1       -0.5019
     27 H          -6.0818   -3.0863    0.9553 H       1  LIG1        0.2924
     28 C          -6.0082   -0.4195    0.2604 C.ar    1  LIG1        0.1131
     29 C          -7.2388   -1.0316    0.0929 C.ar    1  LIG1        0.1889
     30 C          -8.2341   -0.0309    0.0584 C.ar    1  LIG1        0.1866
     31 C          -7.6062    1.1854    0.1923 C.ar    1  LIG1        0.1129
     32 N          -6.2527    0.9283    0.2990 N.ar    1  LIG1       -0.3458
     33 H          -5.6012    1.6556    0.5571 H       1  LIG1        0.1662
     34 O          -7.4815   -2.3885   -0.0127 O.3     1  LIG1       -0.4895
     35 C          -7.3293   -2.8907   -1.3448 C.3     1  LIG1        0.0791
     36 H          -7.5650   -3.9552   -1.3089 H       1  LIG1        0.0660
     37 H          -8.0175   -2.3802   -2.0249 H       1  LIG1        0.0660
     38 H          -6.3025   -2.7499   -1.6941 H       1  LIG1        0.0660
     39 O          -9.5822   -0.2049   -0.1049 O.3     1  LIG1       -0.5019
     40 H          -9.7835   -1.1265    0.1013 H       1  LIG1        0.2924
     41 C          -8.1424    2.5179    0.2503 C.ar    1  LIG1        0.1126
     42 C          -7.4910    3.7249    0.4109 C.ar    1  LIG1        0.1882
     43 C          -8.4792    4.7430    0.4475 C.ar    1  LIG1        0.1769
     44 C          -9.7039    4.1355    0.3040 C.ar    1  LIG1        0.0480
     45 N          -9.4829    2.7809    0.1920 N.ar    1  LIG1       -0.3534
     46 H         -10.1806    2.0601    0.1000 H       1  LIG1        0.1656
     47 H         -10.6970    4.5557    0.2743 H       1  LIG1        0.0845
     48 O          -6.1319    3.8427    0.5645 O.3     1  LIG1       -0.4895
     49 C          -5.5135    4.7267   -0.3645 C.3     1  LIG1        0.0791
     50 H          -4.4467    4.7240   -0.1354 H       1  LIG1        0.0660
     51 H          -5.6687    4.3829   -1.3939 H       1  LIG1        0.0660
     52 H          -5.9084    5.7404   -0.2598 H       1  LIG1        0.0660
     53 O          -8.1797    6.0686    0.5931 O.3     1  LIG1       -0.5023
     54 H          -8.9986    6.5762    0.5942 H       1  LIG1        0.2923
@<TRIPOS>BOND
     1    37    35    1
     2    38    35    1
     3    51    49    1
     4    35    36    1
     5    35    34    1
     6    12     9    1
     7    10     9    1
     8    14    13    1
     9     8     9    1
    10     8     2    1
    11    13     3    1
    12     9    11    1
    13    25    22    1
    14    49    52    1
    15    49    50    1
    16    49    48    1
    17     3     2   ar
    18     3     4   ar
    19     2     1   ar
    20    20    19    1
    21    39    30    1
    22    39    40    1
    23    34    29    1
    24    30    29   ar
    25    30    31   ar
    26    29    28   ar
    27    46    45    1
    28    19    15   ar
    29    19    18   ar
    30     4    15    1
    31     4     5   ar
    32     1     7    1
    33     1     5   ar
    34    45    41   ar
    35    45    44   ar
    36    31    41    1
    37    31    32   ar
    38    41    42   ar
    39    28    32   ar
    40    28    18    1
    41    47    44    1
    42    32    33    1
    43    44    43   ar
    44    15    16   ar
    45    18    17   ar
    46    42    43   ar
    47    42    48    1
    48    43    53    1
    49     5     6    1
    50    22    24    1
    51    22    23    1
    52    22    21    1
    53    53    54    1
    54    16    17   ar
    55    16    21    1
    56    17    26    1
    57    27    26    1
