@<TRIPOS>MOLECULE
mol_data/opt/cam/geoms/mol2/13lf13lf-13lf-13lf-.out
 54 57 0 0 0
SMALL
GASTEIGER

@<TRIPOS>ATOM
      1 C           0.8316   -0.6611   -0.7198 C.ar    1  LIG1        0.0482
      2 C           0.4222    0.6410   -0.9005 C.ar    1  LIG1        0.1793
      3 C          -0.9713    0.6928   -0.6640 C.ar    1  LIG1        0.1859
      4 C          -1.3909   -0.5758   -0.3400 C.ar    1  LIG1        0.1124
      5 N          -0.2799   -1.3872   -0.3630 N.ar    1  LIG1       -0.3534
      6 H          -0.3417   -2.3887   -0.2745 H       1  LIG1        0.1656
      7 H           1.8039   -1.1166   -0.8059 H       1  LIG1        0.0845
      8 O           1.1107    1.7665   -1.2349 O.3     1  LIG1       -0.4900
      9 C           2.4873    1.5764   -1.4777 C.3     1  LIG1        0.0790
     10 H           2.9023    2.5491   -1.7410 H       1  LIG1        0.0660
     11 H           2.9957    1.1941   -0.5837 H       1  LIG1        0.0660
     12 H           2.6481    0.8748   -2.3056 H       1  LIG1        0.0660
     13 O          -1.7815    1.7924   -0.7358 O.3     1  LIG1       -0.5019
     14 H          -1.2413    2.5359   -1.0325 H       1  LIG1        0.2924
     15 C          -2.7080   -1.0652   -0.0372 C.ar    1  LIG1        0.1131
     16 C          -3.1369   -2.3306    0.3071 C.ar    1  LIG1        0.1889
     17 C          -4.5457   -2.3002    0.4285 C.ar    1  LIG1        0.1866
     18 C          -4.9680   -1.0157    0.1550 C.ar    1  LIG1        0.1129
     19 N          -3.8233   -0.2765   -0.1088 N.ar    1  LIG1       -0.3458
     20 H          -3.8039    0.6587   -0.4877 H       1  LIG1        0.1662
     21 O          -2.3461   -3.4412    0.5077 O.3     1  LIG1       -0.4895
     22 C          -2.0539   -3.6709    1.8864 C.3     1  LIG1        0.0791
     23 H          -1.4704   -4.5918    1.9386 H       1  LIG1        0.0660
     24 H          -1.4740   -2.8418    2.3054 H       1  LIG1        0.0660
     25 H          -2.9743   -3.7883    2.4681 H       1  LIG1        0.0660
     26 O          -5.3378   -3.3509    0.7829 O.3     1  LIG1       -0.5019
     27 H          -4.8153   -4.1537    0.6573 H       1  LIG1        0.2924
     28 C          -6.2760   -0.3985    0.2002 C.ar    1  LIG1        0.1131
     29 C          -7.5414   -0.8428   -0.1411 C.ar    1  LIG1        0.1889
     30 C          -8.4603    0.1998    0.1215 C.ar    1  LIG1        0.1866
     31 C          -7.7669    1.2835    0.6070 C.ar    1  LIG1        0.1129
     32 N          -6.4351    0.8970    0.6361 N.ar    1  LIG1       -0.3458
     33 H          -5.6970    1.4669    1.0139 H       1  LIG1        0.1662
     34 O          -7.9917   -2.0386   -0.6261 O.3     1  LIG1       -0.4895
     35 C          -7.3183   -2.5407   -1.7712 C.3     1  LIG1        0.0791
     36 H          -7.9192   -3.3715   -2.1448 H       1  LIG1        0.0660
     37 H          -7.2348   -1.7710   -2.5465 H       1  LIG1        0.0660
     38 H          -6.3224   -2.9071   -1.5120 H       1  LIG1        0.0660
     39 O          -9.8007    0.1005   -0.0877 O.3     1  LIG1       -0.5019
     40 H          -9.9473   -0.7923   -0.4327 H       1  LIG1        0.2924
     41 C          -8.1859    2.6024    1.0515 C.ar    1  LIG1        0.1126
     42 C          -8.8065    3.6486    0.4000 C.ar    1  LIG1        0.1882
     43 C          -8.9252    4.7305    1.3098 C.ar    1  LIG1        0.1769
     44 C          -8.3765    4.3393    2.5017 C.ar    1  LIG1        0.0480
     45 N          -7.9156    3.0517    2.3268 N.ar    1  LIG1       -0.3534
     46 H          -7.6409    2.4379    3.0750 H       1  LIG1        0.1656
     47 H          -8.2686    4.8678    3.4344 H       1  LIG1        0.0845
     48 O          -9.1859    3.7585   -0.9108 O.3     1  LIG1       -0.4895
     49 C         -10.4669    3.1980   -1.1980 C.3     1  LIG1        0.0791
     50 H         -10.6558    3.3854   -2.2567 H       1  LIG1        0.0660
     51 H         -10.4784    2.1230   -1.0017 H       1  LIG1        0.0660
     52 H         -11.2486    3.6816   -0.5998 H       1  LIG1        0.0660
     53 O          -9.4622    5.9414    1.0005 O.3     1  LIG1       -0.5023
     54 H          -9.5941    5.9342    0.0420 H       1  LIG1        0.2923
@<TRIPOS>BOND
     1    37    35    1
     2    12     9    1
     3    50    49    1
     4    36    35    1
     5    35    38    1
     6    35    34    1
     7    10     9    1
     8     9     8    1
     9     9    11    1
    10     8     2    1
    11    49    51    1
    12    49    48    1
    13    49    52    1
    14    14    13    1
    15    48    42    1
    16     2     1   ar
    17     2     3   ar
    18     7     1    1
    19    13     3    1
    20     1     5   ar
    21     3     4   ar
    22    34    29    1
    23    20    19    1
    24    40    39    1
    25     5     4   ar
    26     5     6    1
    27     4    15    1
    28    29    30   ar
    29    29    28   ar
    30    19    15   ar
    31    19    18   ar
    32    39    30    1
    33    15    16   ar
    34    54    53    1
    35    30    31   ar
    36    18    28    1
    37    18    17   ar
    38    28    32   ar
    39    16    17   ar
    40    16    21    1
    41    42    41   ar
    42    42    43   ar
    43    17    26    1
    44    21    22    1
    45    31    32   ar
    46    31    41    1
    47    32    33    1
    48    27    26    1
    49    53    43    1
    50    41    45   ar
    51    43    44   ar
    52    22    23    1
    53    22    24    1
    54    22    25    1
    55    45    44   ar
    56    45    46    1
    57    44    47    1
