@<TRIPOS>MOLECULE
mol_data/opt/cam/geoms/mol2/13lf13lf-.out
 28 29 0 0 0
SMALL
GASTEIGER

@<TRIPOS>ATOM
      1 C           1.0187   -0.5578   -0.2858 C.ar    1  LIG1        0.0482
      2 C           0.6731    0.7320    0.0502 C.ar    1  LIG1        0.1793
      3 C          -0.7362    0.7898    0.1540 C.ar    1  LIG1        0.1859
      4 C          -1.2300   -0.4640   -0.1172 C.ar    1  LIG1        0.1124
      5 N          -0.1503   -1.2757   -0.3728 N.ar    1  LIG1       -0.3534
      6 H          -0.2561   -2.2271   -0.6866 H       1  LIG1        0.1656
      7 H           1.9796   -1.0122   -0.4603 H       1  LIG1        0.0845
      8 O           1.4316    1.8403    0.2795 O.3     1  LIG1       -0.4900
      9 C           2.8215    1.6530    0.1346 C.3     1  LIG1        0.0790
     10 H           3.2970    2.6115    0.3426 H       1  LIG1        0.0660
     11 H           3.1937    0.9010    0.8417 H       1  LIG1        0.0660
     12 H           3.0725    1.3355   -0.8853 H       1  LIG1        0.0660
     13 O          -1.4958    1.8845    0.4686 O.3     1  LIG1       -0.5019
     14 H          -0.8937    2.6272    0.6026 H       1  LIG1        0.2924
     15 C          -2.5871   -0.9425   -0.1595 C.ar    1  LIG1        0.1126
     16 C          -3.0796   -2.2121   -0.3807 C.ar    1  LIG1        0.1882
     17 C          -4.4950   -2.1424   -0.3592 C.ar    1  LIG1        0.1769
     18 C          -4.8398   -0.8365   -0.1195 C.ar    1  LIG1        0.0480
     19 N          -3.6684   -0.1217    0.0021 N.ar    1  LIG1       -0.3534
     20 H          -3.5824    0.8671    0.1776 H       1  LIG1        0.1656
     21 H          -5.8088   -0.3753   -0.0258 H       1  LIG1        0.0845
     22 O          -2.3313   -3.3486   -0.6059 O.3     1  LIG1       -0.4895
     23 C          -2.2776   -4.2056    0.5335 C.3     1  LIG1        0.0791
     24 H          -1.7115   -5.0915    0.2397 H       1  LIG1        0.0660
     25 H          -1.7776   -3.7096    1.3725 H       1  LIG1        0.0660
     26 H          -3.2838   -4.5023    0.8473 H       1  LIG1        0.0660
     27 O          -5.3484   -3.1976   -0.5199 O.3     1  LIG1       -0.5023
     28 H          -4.8902   -3.8516   -1.0625 H       1  LIG1        0.2923
@<TRIPOS>BOND
     1    28    27    1
     2    12     9    1
     3     6     5    1
     4    22    16    1
     5    22    23    1
     6    27    17    1
     7     7     1    1
     8    16    17   ar
     9    16    15   ar
    10     5     1   ar
    11     5     4   ar
    12    17    18   ar
    13     1     2   ar
    14    15     4    1
    15    15    19   ar
    16    18    21    1
    17    18    19   ar
    18     4     3   ar
    19    19    20    1
    20     2     3   ar
    21     2     8    1
    22     9     8    1
    23     9    10    1
    24     9    11    1
    25     3    13    1
    26    24    23    1
    27    13    14    1
    28    23    26    1
    29    23    25    1
