@<TRIPOS>MOLECULE
mol_data/opt/cam/geoms/mol2/13lg.out
 15 15 0 0 0
SMALL
GASTEIGER

@<TRIPOS>ATOM
      1 C           1.1161   -0.5247   -0.0000 C.ar    1  LIG1        0.0450
      2 C           0.7448    0.7989    0.0001 C.ar    1  LIG1        0.1504
      3 C          -0.6756    0.8615    0.0003 C.ar    1  LIG1        0.0638
      4 C          -1.1299   -0.4337    0.0002 C.ar    1  LIG1        0.0186
      5 N          -0.0438   -1.2647    0.0001 N.ar    1  LIG1       -0.3630
      6 H          -0.0855   -2.2685   -0.0003 H       1  LIG1        0.1649
      7 H          -2.1376   -0.8192    0.0003 H       1  LIG1        0.0819
      8 H           2.0871   -0.9909   -0.0002 H       1  LIG1        0.0844
      9 O           1.5087    1.9188    0.0001 O.3     1  LIG1       -0.4925
     10 C           2.9000    1.6966   -0.0002 C.3     1  LIG1        0.0789
     11 H           3.3773    2.6763   -0.0002 H       1  LIG1        0.0660
     12 H           3.2130    1.1398    0.8924 H       1  LIG1        0.0660
     13 H           3.2126    1.1399   -0.8930 H       1  LIG1        0.0660
     14 S          -1.5717    2.3858    0.0007 S.3     1  LIG1       -0.1377
     15 H          -2.7948    1.8307    0.0006 H       1  LIG1        0.1073
@<TRIPOS>BOND
     1    13    10    1
     2     6     5    1
     3     8     1    1
     4    10    11    1
     5    10     9    1
     6    10    12    1
     7     1     5   ar
     8     1     2   ar
     9     9     2    1
    10     5     4   ar
    11     2     3   ar
    12     4     7    1
    13     4     3   ar
    14     3    14    1
    15    15    14    1
