@<TRIPOS>MOLECULE
mol_data/opt/cam/geoms/mol2/13lh6ee12ll12fe-.out
 54 57 0 0 0
SMALL
GASTEIGER

@<TRIPOS>ATOM
      1 C           1.1021    0.3183   -1.3169 C.ar    1  LIG1        0.0463
      2 C           1.0178    1.0077   -0.1274 C.ar    1  LIG1        0.1585
      3 C          -0.2623    0.7582    0.4605 C.ar    1  LIG1        0.0925
      4 C          -0.9517   -0.0817   -0.4167 C.ar    1  LIG1        0.0729
      5 N          -0.0755   -0.3889   -1.4625 N.ar    1  LIG1       -0.3561
      6 H          -0.4183   -0.6954   -2.3598 H       1  LIG1        0.1655
      7 H           1.8889    0.2627   -2.0520 H       1  LIG1        0.0845
      8 O           1.9350    1.7909    0.5155 O.3     1  LIG1       -0.4918
      9 C           3.1729    1.9455   -0.1544 C.3     1  LIG1        0.0789
     10 H           3.7963    2.5824    0.4754 H       1  LIG1        0.0660
     11 H           3.6706    0.9765   -0.2981 H       1  LIG1        0.0660
     12 H           3.0397    2.4232   -1.1354 H       1  LIG1        0.0660
     13 N          -0.6121    1.1672    1.7468 N.pl3   1  LIG1       -0.3535
     14 H          -0.0580    1.9556    2.0572 H       1  LIG1        0.1425
     15 H          -1.6114    1.3265    1.8566 H       1  LIG1        0.1425
     16 C          -3.4076   -0.0525    0.1437 C.ar    1  LIG1        0.0346
     17 C          -4.6183   -0.7358    0.2082 C.ar    1  LIG1       -0.0279
     18 C          -2.2564   -0.7334   -0.3251 C.ar    1  LIG1        0.0226
     19 C          -4.7694   -2.0745   -0.2088 C.ar    1  LIG1        0.0415
     20 H          -5.4844   -0.2200    0.6149 H       1  LIG1        0.0644
     21 C          -2.4049   -2.0683   -0.7320 C.ar    1  LIG1       -0.0294
     22 C          -3.6201   -2.7615   -0.6863 C.ar    1  LIG1        0.0361
     23 H          -1.5172   -2.6077   -1.0519 H       1  LIG1        0.0643
     24 N          -3.3122    1.2964    0.5720 N.pl3   1  LIG1       -0.3574
     25 H          -2.7114    1.8383   -0.0442 H       1  LIG1        0.1423
     26 H          -4.2197    1.7423    0.6445 H       1  LIG1        0.1423
     27 N          -3.6452   -4.1095   -1.0493 N.pl3   1  LIG1       -0.3574
     28 H          -4.5590   -4.5137   -1.1899 H       1  LIG1        0.1423
     29 H          -2.9753   -4.3703   -1.7585 H       1  LIG1        0.1423
     30 C          -6.1003   -2.6644   -0.1814 C.ar    1  LIG1        0.1583
     31 C          -7.3645   -2.1278   -0.3256 C.ar    1  LIG1        0.0746
     32 C          -8.3113   -3.1960   -0.1863 C.ar    1  LIG1        0.0166
     33 C          -7.5667   -4.3398   -0.0051 C.ar    1  LIG1        0.1417
     34 O          -6.2294   -4.0253    0.0183 O.2     1  LIG1       -0.4526
     35 N          -7.7173   -0.7843   -0.5179 N.pl3   1  LIG1       -0.3548
     36 H          -6.9691   -0.2463   -0.9407 H       1  LIG1        0.1424
     37 H          -8.5608   -0.6863   -1.0719 H       1  LIG1        0.1424
     38 C          -9.7971   -3.0052   -0.1562 C.3     1  LIG1       -0.0343
     39 H         -10.2961   -3.8245    0.3656 H       1  LIG1        0.0279
     40 H         -10.2318   -2.9594   -1.1611 H       1  LIG1        0.0279
     41 H         -10.0410   -2.0748    0.3683 H       1  LIG1        0.0279
     42 C          -8.9321   -6.4384   -0.3870 C.ar    1  LIG1        0.0626
     43 C          -9.1839   -7.7845   -0.0545 C.ar    1  LIG1       -0.0402
     44 C          -7.8733   -5.7421    0.2526 C.ar    1  LIG1        0.0384
     45 C          -8.3966   -8.4589    0.8621 C.ar    1  LIG1       -0.0189
     46 H          -9.9991   -8.3002   -0.5508 H       1  LIG1        0.0632
     47 C          -7.0690   -6.4489    1.1619 C.ar    1  LIG1       -0.0083
     48 C          -7.3196   -7.7872    1.4611 C.ar    1  LIG1        0.1176
     49 H          -6.2478   -5.9270    1.6441 H       1  LIG1        0.0661
     50 H          -8.5829   -9.4962    1.1155 H       1  LIG1        0.0654
     51 N         -10.3194   -5.4227   -2.3291 N.1     1  LIG1       -0.1908
     52 C          -9.6954   -5.8543   -1.4452 C.1     1  LIG1        0.0999
     53 O          -6.5619   -8.4924    2.3422 O.3     1  LIG1       -0.5067
     54 H          -5.8509   -7.9296    2.6780 H       1  LIG1        0.2921
@<TRIPOS>BOND
     1     6     5    1
     2    51    52    3
     3     7     1    1
     4    29    27    1
     5     5     1   ar
     6     5     4   ar
     7    52    42    1
     8     1     2   ar
     9    28    27    1
    10    40    38    1
    11    12     9    1
    12    37    35    1
    13    23    21    1
    14    27    22    1
    15    36    35    1
    16    21    22   ar
    17    21    18   ar
    18    22    19   ar
    19    46    43    1
    20    35    31    1
    21     4    18    1
    22     4     3   ar
    23    42    43   ar
    24    42    44   ar
    25    31    32   ar
    26    31    30   ar
    27    18    16   ar
    28    11     9    1
    29    19    30    1
    30    19    17   ar
    31    32    38    1
    32    32    33   ar
    33    30    34   ar
    34    38    39    1
    35    38    41    1
    36     9    10    1
    37     9     8    1
    38     2     3   ar
    39     2     8    1
    40    43    45   ar
    41    25    24    1
    42    33    34   ar
    43    33    44    1
    44    16    17   ar
    45    16    24    1
    46    17    20    1
    47    44    47   ar
    48     3    13    1
    49    24    26    1
    50    45    50    1
    51    45    48   ar
    52    47    48   ar
    53    47    49    1
    54    48    53    1
    55    13    15    1
    56    13    14    1
    57    53    54    1
