@<TRIPOS>MOLECULE
mol_data/opt/cam/geoms/mol2/13lh13lh-.out
 30 31 0 0 0
SMALL
GASTEIGER

@<TRIPOS>ATOM
      1 C           1.0815   -0.5299   -0.2946 C.ar    1  LIG1        0.0463
      2 C           0.7302    0.7812   -0.0719 C.ar    1  LIG1        0.1585
      3 C          -0.6881    0.8571    0.0020 C.ar    1  LIG1        0.0940
      4 C          -1.1639   -0.4264   -0.1774 C.ar    1  LIG1        0.0912
      5 N          -0.0925   -1.2525   -0.3492 N.ar    1  LIG1       -0.3549
      6 H          -0.1972   -2.2356   -0.5468 H       1  LIG1        0.1655
      7 H           2.0419   -1.0027   -0.4139 H       1  LIG1        0.0845
      8 O           1.5132    1.8847    0.0679 O.3     1  LIG1       -0.4918
      9 C           2.8976    1.6482   -0.0434 C.3     1  LIG1        0.0789
     10 H           3.3975    2.6087    0.0843 H       1  LIG1        0.0660
     11 H           3.2450    0.9521    0.7309 H       1  LIG1        0.0660
     12 H           3.1517    1.2341   -1.0277 H       1  LIG1        0.0660
     13 N          -1.5099    2.0065    0.2130 N.pl3   1  LIG1       -0.3535
     14 H          -1.3125    2.4208    1.1205 H       1  LIG1        0.1425
     15 H          -1.2913    2.7226   -0.4746 H       1  LIG1        0.1425
     16 C          -2.5200   -0.9155   -0.2027 C.ar    1  LIG1        0.1089
     17 C          -3.0108   -2.1972   -0.3470 C.ar    1  LIG1        0.1673
     18 C          -4.4296   -2.1339   -0.3433 C.ar    1  LIG1        0.0851
     19 C          -4.7597   -0.8054   -0.1878 C.ar    1  LIG1        0.0267
     20 N          -3.5955   -0.0817   -0.1022 N.ar    1  LIG1       -0.3549
     21 H          -3.4698    0.9155    0.0190 H       1  LIG1        0.1655
     22 H          -5.7271   -0.3314   -0.1256 H       1  LIG1        0.0827
     23 O          -2.2334   -3.3246   -0.5021 O.3     1  LIG1       -0.4911
     24 C          -2.3202   -4.2168    0.6074 C.3     1  LIG1        0.0790
     25 H          -1.7155   -5.0909    0.3582 H       1  LIG1        0.0660
     26 H          -1.9285   -3.7467    1.5167 H       1  LIG1        0.0660
     27 H          -3.3563   -4.5214    0.7816 H       1  LIG1        0.0660
     28 N          -5.2751   -3.2596   -0.4264 N.pl3   1  LIG1       -0.3540
     29 H          -6.2454   -2.9984   -0.5489 H       1  LIG1        0.1425
     30 H          -5.0018   -3.8649   -1.1926 H       1  LIG1        0.1425
@<TRIPOS>BOND
     1    30    28    1
     2    12     9    1
     3    29    28    1
     4     6     5    1
     5    23    17    1
     6    23    24    1
     7    15    13    1
     8    28    18    1
     9     7     1    1
    10     5     1   ar
    11     5     4   ar
    12    17    18   ar
    13    17    16   ar
    14    18    19   ar
    15     1     2   ar
    16    16     4    1
    17    16    20   ar
    18    19    22    1
    19    19    20   ar
    20     4     3   ar
    21    20    21    1
    22     2     3   ar
    23     2     8    1
    24     9     8    1
    25     9    10    1
    26     9    11    1
    27     3    13    1
    28    13    14    1
    29    25    24    1
    30    24    27    1
    31    24    26    1
