@<TRIPOS>MOLECULE
mol_data/opt/cam/geoms/mol2/13lh6dl-13if-12ia.out
 52 55 0 0 0
SMALL
GASTEIGER

@<TRIPOS>ATOM
      1 C           1.3943   -0.4270    0.1448 C.ar    1  LIG1        0.0463
      2 C           0.9745    0.8767    0.0155 C.ar    1  LIG1        0.1585
      3 C          -0.4342    0.8790   -0.1024 C.ar    1  LIG1        0.0925
      4 C          -0.8558   -0.4464   -0.0377 C.ar    1  LIG1        0.0739
      5 N           0.2813   -1.2163    0.1025 N.ar    1  LIG1       -0.3560
      6 H           0.2990   -2.2233    0.1213 H       1  LIG1        0.1655
      7 H           2.3798   -0.8503    0.2488 H       1  LIG1        0.0845
      8 O           1.6803    2.0393   -0.0101 O.3     1  LIG1       -0.4918
      9 C           3.0766    1.8966    0.1297 C.3     1  LIG1        0.0789
     10 H           3.5042    2.8985    0.0939 H       1  LIG1        0.0660
     11 H           3.3323    1.4264    1.0874 H       1  LIG1        0.0660
     12 H           3.4964    1.2936   -0.6852 H       1  LIG1        0.0660
     13 N          -1.2115    2.0492   -0.2365 N.pl3   1  LIG1       -0.3535
     14 H          -0.6030    2.8601   -0.1991 H       1  LIG1        0.1425
     15 H          -1.7162    2.0710   -1.1172 H       1  LIG1        0.1425
     16 C          -2.5692   -2.3154   -0.2868 C.ar    1  LIG1        0.1501
     17 C          -2.2123   -0.9756   -0.0654 C.ar    1  LIG1        0.0395
     18 C          -3.2914   -0.1060    0.1774 C.ar    1  LIG1       -0.0059
     19 C          -4.5933   -0.5633    0.1605 C.ar    1  LIG1        0.1481
     20 C          -4.8520   -1.9240   -0.1524 C.ar    1  LIG1        0.1304
     21 N          -3.8324   -2.7538   -0.3312 N.ar    1  LIG1       -0.2305
     22 H          -3.0675    0.9248    0.4168 H       1  LIG1        0.0662
     23 N          -0.7563   -4.1443   -0.6230 N.1     1  LIG1       -0.1893
     24 C          -1.5810   -3.3427   -0.4873 C.1     1  LIG1        0.1198
     25 O          -5.6588    0.2026    0.4635 O.3     1  LIG1       -0.4929
     26 C          -5.4426    1.5523    0.8300 C.3     1  LIG1        0.0789
     27 H          -6.4282    1.9665    1.0380 H       1  LIG1        0.0660
     28 H          -4.8174    1.6263    1.7260 H       1  LIG1        0.0660
     29 H          -4.9741    2.1186    0.0179 H       1  LIG1        0.0660
     30 C          -6.1799   -2.5339   -0.2283 C.ar    1  LIG1        0.0756
     31 C          -7.4746   -2.0861   -0.4945 C.ar    1  LIG1        0.0186
     32 C          -8.2871   -3.2409   -0.4854 C.ar    1  LIG1        0.1486
     33 C          -7.5075   -4.3531   -0.2161 C.ar    1  LIG1        0.1250
     34 N          -6.2284   -3.8935   -0.0750 N.ar    1  LIG1       -0.3473
     35 H          -5.3965   -4.4565    0.0179 H       1  LIG1        0.1662
     36 C          -8.0092   -0.7308   -0.8371 C.3     1  LIG1       -0.0342
     37 H          -8.9612   -0.8497   -1.3591 H       1  LIG1        0.0279
     38 H          -7.3274   -0.1730   -1.4805 H       1  LIG1        0.0279
     39 H          -8.1893   -0.1218    0.0528 H       1  LIG1        0.0279
     40 O          -9.6319   -3.2079   -0.7329 O.3     1  LIG1       -0.5043
     41 H          -9.8921   -4.0581   -1.1090 H       1  LIG1        0.2922
     42 C          -7.8443   -5.7556   -0.1217 C.ar    1  LIG1        0.1573
     43 C          -8.9291   -6.4477    0.3413 C.ar    1  LIG1       -0.0032
     44 C          -8.6181   -7.8334    0.1331 C.ar    1  LIG1       -0.0203
     45 C          -7.3819   -7.8794   -0.4118 C.ar    1  LIG1        0.0929
     46 O          -6.8925   -6.6269   -0.5816 O.2     1  LIG1       -0.4611
     47 H          -6.7361   -8.6853   -0.7225 H       1  LIG1        0.1029
     48 C         -10.1559   -5.9118    1.0122 C.3     1  LIG1       -0.0361
     49 H         -10.2088   -6.2548    2.0502 H       1  LIG1        0.0279
     50 H         -11.0668   -6.2608    0.5148 H       1  LIG1        0.0279
     51 H         -10.1720   -4.8215    1.0198 H       1  LIG1        0.0279
     52 H          -9.2435   -8.6787    0.3818 H       1  LIG1        0.0652
@<TRIPOS>BOND
     1    38    36    1
     2    37    36    1
     3    15    13    1
     4    41    40    1
     5    36    31    1
     6    36    39    1
     7    40    32    1
     8    47    45    1
     9    12     9    1
    10    23    24    3
    11    46    45   ar
    12    46    42   ar
    13    31    32   ar
    14    31    30   ar
    15    24    16    1
    16    32    33   ar
    17    45    44   ar
    18    21    16   ar
    19    21    20   ar
    20    16    17   ar
    21    13    14    1
    22    13     3    1
    23    30    20    1
    24    30    34   ar
    25    33    42    1
    26    33    34   ar
    27    20    19   ar
    28    42    43   ar
    29     3     4   ar
    30     3     2   ar
    31    34    35    1
    32    17     4    1
    33    17    18   ar
    34     4     5   ar
    35     8     2    1
    36     8     9    1
    37     2     1   ar
    38    29    26    1
    39    10     9    1
    40     5     6    1
    41     5     1   ar
    42     9    11    1
    43    44    43   ar
    44    44    52    1
    45     1     7    1
    46    19    18   ar
    47    19    25    1
    48    18    22    1
    49    43    48    1
    50    25    26    1
    51    50    48    1
    52    26    27    1
    53    26    28    1
    54    48    51    1
    55    48    49    1
