@<TRIPOS>MOLECULE
mol_data/opt/cam/geoms/mol2/13lh12fe4ha6ld-.out
 52 55 0 0 0
SMALL
GASTEIGER

@<TRIPOS>ATOM
      1 C           1.1925   -0.2028   -0.4928 C.ar    1  LIG1        0.0463
      2 C           0.8333    1.0382   -0.0219 C.ar    1  LIG1        0.1586
      3 C          -0.5626    1.0422    0.2435 C.ar    1  LIG1        0.0956
      4 C          -1.0246   -0.2192   -0.0915 C.ar    1  LIG1        0.1104
      5 N           0.0540   -0.9633   -0.5318 N.ar    1  LIG1       -0.3536
      6 H          -0.0120   -1.9185   -0.8352 H       1  LIG1        0.1656
      7 H           2.1486   -0.5964   -0.7954 H       1  LIG1        0.0845
      8 O           1.5857    2.1527    0.1953 O.3     1  LIG1       -0.4918
      9 C           2.9531    2.0160   -0.1099 C.3     1  LIG1        0.0789
     10 H           3.4268    2.9736    0.1069 H       1  LIG1        0.0660
     11 H           3.4202    1.2341    0.5028 H       1  LIG1        0.0660
     12 H           3.1017    1.7690   -1.1694 H       1  LIG1        0.0660
     13 N          -1.2477    2.1093    0.8169 N.pl3   1  LIG1       -0.3534
     14 H          -0.7829    2.9916    0.6521 H       1  LIG1        0.1425
     15 H          -2.2325    2.1412    0.5845 H       1  LIG1        0.1425
     16 C          -2.3440   -0.7848   -0.0449 C.ar    1  LIG1        0.1961
     17 C          -3.6055   -0.2801    0.0184 C.ar    1  LIG1        0.1806
     18 C          -4.5175   -1.3878    0.0323 C.ar    1  LIG1        0.1125
     19 C          -3.7461   -2.5249   -0.0538 C.ar    1  LIG1        0.1565
     20 O          -2.4378   -2.1550   -0.0968 O.2     1  LIG1       -0.4482
     21 O          -3.9529    1.0339    0.0392 O.3     1  LIG1       -0.5023
     22 H          -4.8988    1.0915    0.2338 H       1  LIG1        0.2923
     23 C          -5.9151   -1.2096    0.1974 C.1     1  LIG1       -0.0622
     24 C          -7.0825   -0.9451    0.3390 C.1     1  LIG1       -0.1137
     25 H          -8.1228   -0.7573    0.4759 H       1  LIG1        0.1232
     26 C          -5.0697   -4.5575   -0.7417 C.ar    1  LIG1        0.0359
     27 C          -5.2135   -5.9492   -0.6855 C.ar    1  LIG1       -0.0325
     28 C          -3.9981   -3.9620   -0.0433 C.ar    1  LIG1        0.0393
     29 C          -4.3260   -6.7582    0.0151 C.ar    1  LIG1       -0.0110
     30 H          -6.0320   -6.4039   -1.2362 H       1  LIG1        0.0642
     31 C          -3.1019   -4.7911    0.6435 C.ar    1  LIG1       -0.0487
     32 C          -3.2473   -6.1633    0.6794 C.ar    1  LIG1       -0.0531
     33 H          -2.2759   -4.3243    1.1683 H       1  LIG1        0.0625
     34 N          -5.9808   -3.8141   -1.4637 N.pl3   1  LIG1       -0.3574
     35 H          -5.7110   -2.8773   -1.7202 H       1  LIG1        0.1423
     36 H          -6.4864   -4.3077   -2.1823 H       1  LIG1        0.1423
     37 H          -2.5403   -6.7731    1.2256 H       1  LIG1        0.0624
     38 C          -3.5541   -9.1920   -0.0699 C.ar    1  LIG1        0.2224
     39 C          -4.5757   -8.2189    0.0768 C.ar    1  LIG1        0.0449
     40 C          -5.8523   -8.7121    0.2692 C.ar    1  LIG1       -0.0301
     41 C          -6.0877  -10.0944    0.3075 C.ar    1  LIG1        0.0706
     42 C          -5.0015  -10.9447    0.1508 C.ar    1  LIG1        0.0488
     43 N          -3.7621  -10.4979   -0.0349 N.ar    1  LIG1       -0.2195
     44 H          -6.6773   -8.0227    0.4084 H       1  LIG1        0.0639
     45 H          -5.1351  -12.0224    0.1770 H       1  LIG1        0.0844
     46 O          -2.3066   -8.7505   -0.2683 O.3     1  LIG1       -0.4792
     47 C          -1.2833   -9.7270   -0.4474 C.3     1  LIG1        0.0804
     48 H          -0.3669   -9.1578   -0.5967 H       1  LIG1        0.0660
     49 H          -1.1969  -10.3689    0.4315 H       1  LIG1        0.0660
     50 H          -1.4902  -10.3535   -1.3173 H       1  LIG1        0.0660
     51 N          -8.4686  -11.0433    0.6660 N.1     1  LIG1       -0.1908
     52 C          -7.4041  -10.6187    0.5075 C.1     1  LIG1        0.1007
@<TRIPOS>BOND
     1    36    34    1
     2    35    34    1
     3    34    26    1
     4    50    47    1
     5    30    27    1
     6    12     9    1
     7     6     5    1
     8     7     1    1
     9    26    27   ar
    10    26    28   ar
    11    27    29   ar
    12    48    47    1
    13     5     1   ar
    14     5     4   ar
    15     1     2   ar
    16    47    46    1
    17    47    49    1
    18    46    38    1
    19     9    10    1
    20     9     8    1
    21     9    11    1
    22    20    19   ar
    23    20    16   ar
    24     4    16    1
    25     4     3   ar
    26    38    43   ar
    27    38    39   ar
    28    19    28    1
    29    19    18   ar
    30    16    17   ar
    31    28    31   ar
    32    43    42   ar
    33     2     8    1
    34     2     3   ar
    35    29    39    1
    36    29    32   ar
    37    17    18   ar
    38    17    21    1
    39    18    23    1
    40    21    22    1
    41    39    40   ar
    42    42    45    1
    43    42    41   ar
    44    23    24    3
    45     3    13    1
    46    40    41   ar
    47    40    44    1
    48    41    52    1
    49    24    25    1
    50    52    51    3
    51    15    13    1
    52    31    32   ar
    53    31    33    1
    54    14    13    1
    55    32    37    1
