@<TRIPOS>MOLECULE
mol_data/opt/cam/geoms/mol2/13lh13lh-13lh-13lh-.out
 58 61 0 0 0
SMALL
GASTEIGER

@<TRIPOS>ATOM
      1 C           1.0746   -0.5533   -0.2099 C.ar    1  LIG1        0.0463
      2 C           0.6859    0.6826    0.2532 C.ar    1  LIG1        0.1585
      3 C          -0.7349    0.7272    0.2673 C.ar    1  LIG1        0.0940
      4 C          -1.1753   -0.4993   -0.1916 C.ar    1  LIG1        0.0912
      5 N          -0.0794   -1.2612   -0.4721 N.ar    1  LIG1       -0.3549
      6 H          -0.1548   -2.1923   -0.8516 H       1  LIG1        0.1655
      7 H           2.0494   -0.9814   -0.3728 H       1  LIG1        0.0845
      8 O           1.4375    1.7430    0.6535 O.3     1  LIG1       -0.4918
      9 C           2.8308    1.5467    0.5762 C.3     1  LIG1        0.0789
     10 H           3.3029    2.4663    0.9228 H       1  LIG1        0.0660
     11 H           3.1498    0.7120    1.2135 H       1  LIG1        0.0660
     12 H           3.1462    1.3424   -0.4550 H       1  LIG1        0.0660
     13 N          -1.5875    1.8001    0.6737 N.pl3   1  LIG1       -0.3535
     14 H          -1.4116    2.0363    1.6471 H       1  LIG1        0.1425
     15 H          -1.3675    2.6381    0.1414 H       1  LIG1        0.1425
     16 C          -2.5165   -0.9900   -0.3717 C.ar    1  LIG1        0.1094
     17 C          -2.9769   -2.2405   -0.7296 C.ar    1  LIG1        0.1679
     18 C          -4.3958   -2.2115   -0.7495 C.ar    1  LIG1        0.0947
     19 C          -4.7679   -0.9223   -0.3847 C.ar    1  LIG1        0.0917
     20 N          -3.6110   -0.1974   -0.1731 N.ar    1  LIG1       -0.3473
     21 H          -3.5145    0.7219    0.2416 H       1  LIG1        0.1662
     22 O          -2.1631   -3.3002   -1.0583 O.3     1  LIG1       -0.4911
     23 C          -2.2985   -4.4089   -0.1702 C.3     1  LIG1        0.0790
     24 H          -1.6608   -5.2040   -0.5606 H       1  LIG1        0.0660
     25 H          -1.9703   -4.1389    0.8401 H       1  LIG1        0.0660
     26 H          -3.3369   -4.7489   -0.1320 H       1  LIG1        0.0660
     27 N          -5.2114   -3.3101   -1.0571 N.pl3   1  LIG1       -0.3534
     28 H          -6.1999   -3.0931   -0.9854 H       1  LIG1        0.1425
     29 H          -4.9875   -3.7162   -1.9575 H       1  LIG1        0.1425
     30 C          -6.0644   -0.2979   -0.2867 C.ar    1  LIG1        0.1094
     31 C          -7.3303   -0.8126   -0.1233 C.ar    1  LIG1        0.1679
     32 C          -8.2770    0.2519   -0.1370 C.ar    1  LIG1        0.0947
     33 C          -7.5642    1.4175   -0.3062 C.ar    1  LIG1        0.0916
     34 N          -6.2056    1.0767   -0.3579 N.ar    1  LIG1       -0.3473
     35 H          -5.5704    1.6114   -0.9329 H       1  LIG1        0.1662
     36 O          -7.6798   -2.1327    0.0468 O.3     1  LIG1       -0.4911
     37 C          -7.6438   -2.5588    1.4081 C.3     1  LIG1        0.0790
     38 H          -7.9717   -3.5993    1.4223 H       1  LIG1        0.0660
     39 H          -6.6274   -2.4911    1.8083 H       1  LIG1        0.0660
     40 H          -8.3176   -1.9501    2.0198 H       1  LIG1        0.0660
     41 N          -9.6446    0.0824    0.0680 N.pl3   1  LIG1       -0.3534
     42 H         -10.1865    0.7659   -0.4490 H       1  LIG1        0.1425
     43 H          -9.9292   -0.8636   -0.1535 H       1  LIG1        0.1425
     44 C          -7.9690    2.8026   -0.3512 C.ar    1  LIG1        0.1089
     45 C          -9.1839    3.4209   -0.5703 C.ar    1  LIG1        0.1673
     46 C          -8.9902    4.8335   -0.5378 C.ar    1  LIG1        0.0851
     47 C          -7.6620    5.0478   -0.2834 C.ar    1  LIG1        0.0267
     48 N          -7.0425    3.8118   -0.2042 N.ar    1  LIG1       -0.3549
     49 H          -6.1565    3.6592    0.2483 H       1  LIG1        0.1655
     50 H          -7.1044    5.9650   -0.1767 H       1  LIG1        0.0827
     51 O         -10.3881    2.8112   -0.8462 O.3     1  LIG1       -0.4911
     52 C         -11.3416    2.9672    0.2095 C.3     1  LIG1        0.0790
     53 H         -12.2857    2.5619   -0.1603 H       1  LIG1        0.0660
     54 H         -11.0240    2.4071    1.0950 H       1  LIG1        0.0660
     55 H         -11.4690    4.0227    0.4648 H       1  LIG1        0.0660
     56 N         -10.0290    5.7630   -0.7197 N.pl3   1  LIG1       -0.3540
     57 H          -9.6864    6.6963   -0.9074 H       1  LIG1        0.1425
     58 H         -10.6463    5.4764   -1.4711 H       1  LIG1        0.1425
@<TRIPOS>BOND
     1    29    27    1
     2    58    56    1
     3    22    17    1
     4    22    23    1
     5    27    28    1
     6    27    18    1
     7    35    34    1
     8    57    56    1
     9     6     5    1
    10    51    45    1
    11    51    52    1
    12    18    17   ar
    13    18    19   ar
    14    17    16   ar
    15    56    46    1
    16    45    46   ar
    17    45    44   ar
    18    24    23    1
    19    46    47   ar
    20     5     1   ar
    21     5     4   ar
    22    12     9    1
    23    42    41    1
    24    19    30    1
    25    19    20   ar
    26     7     1    1
    27    16     4    1
    28    16    20   ar
    29    34    33   ar
    30    34    30   ar
    31    44    33    1
    32    44    48   ar
    33    33    32   ar
    34    30    31   ar
    35    47    48   ar
    36    47    50    1
    37     1     2   ar
    38    48    49    1
    39     4     3   ar
    40    20    21    1
    41    23    26    1
    42    23    25    1
    43    53    52    1
    44    43    41    1
    45    32    31   ar
    46    32    41    1
    47    31    36    1
    48    36    37    1
    49    15    13    1
    50    52    55    1
    51    52    54    1
    52     2     3   ar
    53     2     8    1
    54     3    13    1
    55     9     8    1
    56     9    10    1
    57     9    11    1
    58    13    14    1
    59    37    38    1
    60    37    39    1
    61    37    40    1
