@<TRIPOS>MOLECULE
mol_data/opt/cam/geoms/mol2/13lh13ia-6la6ll.out
 57 60 0 0 0
SMALL
GASTEIGER

@<TRIPOS>ATOM
      1 C           0.8878    0.2281    1.3992 C.ar    1  LIG1        0.0463
      2 C           0.8889    1.0812    0.3257 C.ar    1  LIG1        0.1585
      3 C          -0.3204    0.8980   -0.4026 C.ar    1  LIG1        0.0939
      4 C          -1.0460   -0.0664    0.2600 C.ar    1  LIG1        0.0877
      5 N          -0.2775   -0.5057    1.3302 N.ar    1  LIG1       -0.3550
      6 H          -0.6905   -0.9609    2.1278 H       1  LIG1        0.1655
      7 H           1.6134    0.0668    2.1793 H       1  LIG1        0.0845
      8 O           1.8393    1.9501   -0.1151 O.3     1  LIG1       -0.4918
      9 C           2.9997    2.0174    0.6806 C.3     1  LIG1        0.0789
     10 H           3.6662    2.7428    0.2138 H       1  LIG1        0.0660
     11 H           2.7619    2.3469    1.7000 H       1  LIG1        0.0660
     12 H           3.5016    1.0425    0.7331 H       1  LIG1        0.0660
     13 N          -0.6519    1.5927   -1.5742 N.pl3   1  LIG1       -0.3535
     14 H           0.1705    1.9998   -2.0025 H       1  LIG1        0.1425
     15 H          -1.1466    1.0125   -2.2410 H       1  LIG1        0.1425
     16 C          -2.3289   -0.6723   -0.0466 C.ar    1  LIG1        0.0682
     17 C          -3.5393   -0.1213   -0.4461 C.ar    1  LIG1       -0.0231
     18 C          -4.4465   -1.1971   -0.5823 C.ar    1  LIG1       -0.0327
     19 C          -3.7923   -2.3740   -0.2576 C.ar    1  LIG1        0.0523
     20 N          -2.5068   -2.0273    0.0706 N.ar    1  LIG1       -0.3526
     21 H          -1.7883   -2.7077    0.2629 H       1  LIG1        0.1660
     22 C          -3.8594    1.3341   -0.6075 C.3     1  LIG1       -0.0376
     23 H          -4.1765    1.7796    0.3420 H       1  LIG1        0.0278
     24 H          -4.6792    1.4722   -1.3180 H       1  LIG1        0.0278
     25 H          -2.9989    1.9058   -0.9629 H       1  LIG1        0.0278
     26 H          -5.4829   -1.1042   -0.8754 H       1  LIG1        0.0642
     27 C          -3.5021   -4.8778    0.0891 C.ar    1  LIG1        0.2244
     28 C          -4.2853   -3.7461   -0.2459 C.ar    1  LIG1        0.0598
     29 C          -5.6039   -4.0381   -0.5831 C.ar    1  LIG1       -0.0455
     30 C          -6.0781   -5.3435   -0.5809 C.ar    1  LIG1       -0.0347
     31 C          -5.2129   -6.3702   -0.2249 C.ar    1  LIG1        0.0800
     32 N          -3.9399   -6.1142    0.1078 N.ar    1  LIG1       -0.2122
     33 H          -6.2681   -3.2285   -0.8639 H       1  LIG1        0.0626
     34 O          -2.1988   -4.6690    0.4166 O.3     1  LIG1       -0.4792
     35 C          -1.4192   -5.8260    0.7092 C.3     1  LIG1        0.0804
     36 H          -0.4048   -5.4608    0.8685 H       1  LIG1        0.0660
     37 H          -1.7891   -6.3280    1.6058 H       1  LIG1        0.0660
     38 H          -1.4504   -6.5362   -0.1188 H       1  LIG1        0.0660
     39 H          -7.0991   -5.5602   -0.8715 H       1  LIG1        0.0639
     40 C          -4.9381   -8.8469   -0.7219 C.ar    1  LIG1        0.2241
     41 C          -5.6713   -7.7787   -0.1687 C.ar    1  LIG1        0.0654
     42 C          -6.8825   -8.0933    0.4380 C.ar    1  LIG1       -0.0042
     43 C          -7.3162   -9.4166    0.4922 C.ar    1  LIG1        0.1390
     44 C          -6.5008  -10.3869   -0.0733 C.ar    1  LIG1        0.0730
     45 N          -5.3446  -10.1035   -0.6685 N.ar    1  LIG1       -0.2171
     46 H          -7.4629   -7.2943    0.8828 H       1  LIG1        0.0663
     47 H          -6.8081  -11.4286   -0.0376 H       1  LIG1        0.0868
     48 O          -3.7857   -8.5640   -1.3619 O.3     1  LIG1       -0.4792
     49 C          -3.0951   -9.6566   -1.9484 C.3     1  LIG1        0.0804
     50 H          -2.2128   -9.2237   -2.4198 H       1  LIG1        0.0660
     51 H          -2.7998  -10.3909   -1.1945 H       1  LIG1        0.0660
     52 H          -3.7121  -10.1632   -2.6950 H       1  LIG1        0.0660
     53 O          -8.4741   -9.8457    1.0654 O.3     1  LIG1       -0.4936
     54 C          -9.3155   -8.8773    1.6504 C.3     1  LIG1        0.0789
     55 H         -10.1775   -9.4176    2.0412 H       1  LIG1        0.0660
     56 H          -8.8184   -8.3522    2.4751 H       1  LIG1        0.0660
     57 H          -9.6592   -8.1402    0.9144 H       1  LIG1        0.0660
@<TRIPOS>BOND
     1    52    49    1
     2    50    49    1
     3    15    13    1
     4    14    13    1
     5    49    48    1
     6    49    51    1
     7    13     3    1
     8    48    40    1
     9    24    22    1
    10    25    22    1
    11    26    18    1
    12    39    30    1
    13    33    29    1
    14    40    45   ar
    15    40    41   ar
    16    45    44   ar
    17    22    17    1
    18    22    23    1
    19    29    30   ar
    20    29    28   ar
    21    18    17   ar
    22    18    19   ar
    23    30    31   ar
    24    17    16   ar
    25     3     4   ar
    26     3     2   ar
    27    19    28    1
    28    19    20   ar
    29    28    27   ar
    30    31    41    1
    31    31    32   ar
    32    41    42   ar
    33    38    35    1
    34     8     2    1
    35     8     9    1
    36    44    47    1
    37    44    43   ar
    38    16    20   ar
    39    16     4    1
    40    20    21    1
    41    27    32   ar
    42    27    34    1
    43    10     9    1
    44     4     5   ar
    45     2     1   ar
    46    34    35    1
    47    42    43   ar
    48    42    46    1
    49    43    53    1
    50     9    12    1
    51     9    11    1
    52    35    36    1
    53    35    37    1
    54    57    54    1
    55    53    54    1
    56     5     1   ar
    57     5     6    1
    58     1     7    1
    59    54    55    1
    60    54    56    1
