@<TRIPOS>MOLECULE
mol_data/opt/cam/geoms/mol2/13lh13lh-13lh.out
 44 46 0 0 0
SMALL
GASTEIGER

@<TRIPOS>ATOM
      1 C           1.2482   -0.6720   -0.2739 C.ar    1  LIG1        0.0463
      2 C           0.8818    0.6093    0.0659 C.ar    1  LIG1        0.1585
      3 C          -0.5359    0.6558    0.1736 C.ar    1  LIG1        0.0940
      4 C          -0.9970   -0.6157   -0.1047 C.ar    1  LIG1        0.0912
      5 N           0.0847   -1.4091   -0.3600 N.ar    1  LIG1       -0.3549
      6 H          -0.0072   -2.3649   -0.6655 H       1  LIG1        0.1655
      7 H           2.2129   -1.1168   -0.4514 H       1  LIG1        0.0845
      8 O           1.6505    1.7100    0.2816 O.3     1  LIG1       -0.4918
      9 C           3.0345    1.5110    0.1086 C.3     1  LIG1        0.0789
     10 H           3.5219    2.4665    0.3036 H       1  LIG1        0.0660
     11 H           3.4180    0.7584    0.8096 H       1  LIG1        0.0660
     12 H           3.2640    1.1874   -0.9148 H       1  LIG1        0.0660
     13 N          -1.3671    1.7695    0.4959 N.pl3   1  LIG1       -0.3535
     14 H          -1.2374    2.0473    1.4653 H       1  LIG1        0.1425
     15 H          -1.1050    2.5743   -0.0662 H       1  LIG1        0.1425
     16 C          -2.3461   -1.1196   -0.1545 C.ar    1  LIG1        0.1094
     17 C          -2.8256   -2.3932   -0.3825 C.ar    1  LIG1        0.1679
     18 C          -4.2451   -2.3438   -0.3648 C.ar    1  LIG1        0.0947
     19 C          -4.5910   -1.0230   -0.1258 C.ar    1  LIG1        0.0916
     20 N          -3.4367   -0.3035    0.0000 N.ar    1  LIG1       -0.3473
     21 H          -3.3568    0.6811    0.2309 H       1  LIG1        0.1662
     22 O          -2.0314   -3.4936   -0.6266 O.3     1  LIG1       -0.4911
     23 C          -1.9706   -4.4009    0.4653 C.3     1  LIG1        0.0790
     24 H          -1.3043   -5.2133    0.1693 H       1  LIG1        0.0660
     25 H          -1.5788   -3.9118    1.3641 H       1  LIG1        0.0660
     26 H          -2.9577   -4.8181    0.6937 H       1  LIG1        0.0660
     27 N          -5.1882   -3.3977   -0.5687 N.pl3   1  LIG1       -0.3534
     28 H          -4.9350   -3.9528   -1.3806 H       1  LIG1        0.1425
     29 H          -5.2178   -4.0300    0.2266 H       1  LIG1        0.1425
     30 C          -5.8944   -0.4140   -0.0360 C.ar    1  LIG1        0.1089
     31 C          -6.2713    0.8973    0.1797 C.ar    1  LIG1        0.1673
     32 C          -7.6899    0.9622    0.1883 C.ar    1  LIG1        0.0851
     33 C          -8.1388   -0.3213   -0.0324 C.ar    1  LIG1        0.0267
     34 N          -7.0469   -1.1376   -0.1723 N.ar    1  LIG1       -0.3549
     35 H          -7.0174   -2.1261   -0.3867 H       1  LIG1        0.1655
     36 H          -9.1460   -0.7033   -0.0857 H       1  LIG1        0.0827
     37 O          -5.4120    1.9550    0.3803 O.3     1  LIG1       -0.4911
     38 C          -5.2003    2.7345   -0.7897 C.3     1  LIG1        0.0790
     39 H          -4.5084    3.5337   -0.5178 H       1  LIG1        0.0660
     40 H          -4.7617    2.1312   -1.5924 H       1  LIG1        0.0660
     41 H          -6.1383    3.1724   -1.1502 H       1  LIG1        0.0660
     42 N          -8.4694    2.1158    0.4330 N.pl3   1  LIG1       -0.3540
     43 H          -7.8838    2.8651    0.7827 H       1  LIG1        0.1425
     44 H          -8.9568    2.4423   -0.3934 H       1  LIG1        0.1425
@<TRIPOS>BOND
     1    40    38    1
     2    28    27    1
     3    41    38    1
     4    12     9    1
     5    38    39    1
     6    38    37    1
     7     6     5    1
     8    22    17    1
     9    22    23    1
    10    27    18    1
    11    27    29    1
    12     7     1    1
    13    44    42    1
    14    35    34    1
    15    17    18   ar
    16    17    16   ar
    17    18    19   ar
    18     5     1   ar
    19     5     4   ar
    20     1     2   ar
    21    34    30   ar
    22    34    33   ar
    23    16     4    1
    24    16    20   ar
    25    19    30    1
    26    19    20   ar
    27     4     3   ar
    28    36    33    1
    29    15    13    1
    30    30    31   ar
    31    33    32   ar
    32    20    21    1
    33     2     3   ar
    34     2     8    1
    35     9     8    1
    36     9    10    1
    37     9    11    1
    38    24    23    1
    39     3    13    1
    40    31    32   ar
    41    31    37    1
    42    32    42    1
    43    42    43    1
    44    23    26    1
    45    23    25    1
    46    13    14    1
