@<TRIPOS>MOLECULE
mol_data/opt/cam/geoms/mol2/13lh12al-4ff-13fe-.out
 50 53 0 0 0
SMALL
GASTEIGER

@<TRIPOS>ATOM
      1 C           1.2578   -0.1606    0.6404 C.ar    1  LIG1        0.0463
      2 C           0.8694    1.1018    0.2520 C.ar    1  LIG1        0.1586
      3 C          -0.5111    1.0699   -0.0715 C.ar    1  LIG1        0.0955
      4 C          -0.9342   -0.2297    0.1323 C.ar    1  LIG1        0.1068
      5 N           0.1525   -0.9671    0.5435 N.ar    1  LIG1       -0.3537
      6 H           0.0955   -1.9333    0.8144 H       1  LIG1        0.1656
      7 H           2.2136   -0.5435    0.9571 H       1  LIG1        0.0845
      8 O           1.5876    2.2532    0.1431 O.3     1  LIG1       -0.4918
      9 C           2.9435    2.1487    0.5108 C.3     1  LIG1        0.0789
     10 H           3.3870    3.1359    0.3805 H       1  LIG1        0.0660
     11 H           3.0469    1.8397    1.5588 H       1  LIG1        0.0660
     12 H           3.4727    1.4266   -0.1244 H       1  LIG1        0.0660
     13 N          -1.2827    2.1639   -0.4963 N.pl3   1  LIG1       -0.3534
     14 H          -0.6971    2.9800   -0.6279 H       1  LIG1        0.1425
     15 H          -1.7849    1.9695   -1.3557 H       1  LIG1        0.1425
     16 C          -2.2390   -0.8104   -0.0185 C.ar    1  LIG1        0.1573
     17 C          -3.4799   -0.2718   -0.1983 C.ar    1  LIG1        0.0282
     18 C          -4.3807   -1.3799   -0.2509 C.ar    1  LIG1        0.1664
     19 C          -3.6453   -2.5237   -0.0832 C.ar    1  LIG1        0.1807
     20 O          -2.3177   -2.1616    0.0409 O.2     1  LIG1       -0.4494
     21 H          -3.7057    0.7814   -0.2431 H       1  LIG1        0.0693
     22 O          -5.7096   -1.3572   -0.4836 O.3     1  LIG1       -0.4913
     23 C          -6.3101   -0.0810   -0.5271 C.3     1  LIG1        0.0790
     24 H          -7.3753   -0.2479   -0.6872 H       1  LIG1        0.0660
     25 H          -6.1679    0.4632    0.4137 H       1  LIG1        0.0660
     26 H          -5.9147    0.5239   -1.3523 H       1  LIG1        0.0660
     27 C          -5.0718   -4.5167    0.4623 C.ar    1  LIG1        0.1285
     28 C          -5.2796   -5.8872    0.4115 C.ar    1  LIG1       -0.0067
     29 C          -3.9194   -3.9512   -0.1015 C.ar    1  LIG1        0.0658
     30 C          -4.3571   -6.7684   -0.1653 C.ar    1  LIG1        0.0468
     31 H          -6.1802   -6.3006    0.8515 H       1  LIG1        0.0662
     32 C          -2.9892   -4.8293   -0.6659 C.ar    1  LIG1       -0.0052
     33 C          -3.1910   -6.1964   -0.6994 C.ar    1  LIG1        0.1270
     34 H          -2.0837   -4.4130   -1.0987 H       1  LIG1        0.0662
     35 O          -5.9560   -3.6891    1.0824 O.3     1  LIG1       -0.5060
     36 H          -6.6977   -4.2137    1.4050 H       1  LIG1        0.2922
     37 O          -2.2475   -7.0281   -1.2719 O.3     1  LIG1       -0.5061
     38 H          -1.5296   -6.4914   -1.6247 H       1  LIG1        0.2922
     39 C          -4.6295   -8.2008   -0.1840 C.ar    1  LIG1        0.0934
     40 C          -5.7065   -8.9245    0.2940 C.ar    1  LIG1        0.1575
     41 C          -5.4869  -10.3043    0.0245 C.ar    1  LIG1        0.0839
     42 C          -4.2641  -10.3868   -0.6200 C.ar    1  LIG1        0.0213
     43 N          -3.7690   -9.1380   -0.7363 N.ar    1  LIG1       -0.3565
     44 H          -2.8952   -8.8651   -1.1597 H       1  LIG1        0.1655
     45 H          -3.7364  -11.2509   -0.9915 H       1  LIG1        0.0820
     46 O          -6.8009   -8.4171    0.9201 O.3     1  LIG1       -0.5035
     47 H          -7.3822   -9.1600    1.1353 H       1  LIG1        0.2923
     48 C          -6.3959  -11.3324    0.3806 C.1     1  LIG1       -0.0645
     49 C          -7.2215  -12.1450    0.7176 C.1     1  LIG1       -0.1137
     50 H          -7.9318  -12.8860    1.0028 H       1  LIG1        0.1232
@<TRIPOS>BOND
     1    38    37    1
     2    15    13    1
     3    26    23    1
     4    37    33    1
     5    44    43    1
     6    34    32    1
     7    45    42    1
     8    43    42   ar
     9    43    39   ar
    10    33    32   ar
    11    33    30   ar
    12    24    23    1
    13    32    29   ar
    14    14    13    1
    15    42    41   ar
    16    23    22    1
    17    23    25    1
    18    13     3    1
    19    22    18    1
    20    18    17   ar
    21    18    19   ar
    22    21    17    1
    23    17    16   ar
    24    39    30    1
    25    39    40   ar
    26    30    28   ar
    27    12     9    1
    28    29    19    1
    29    29    27   ar
    30    19    20   ar
    31     3     4   ar
    32     3     2   ar
    33    16    20   ar
    34    16     4    1
    35    41    40   ar
    36    41    48    1
    37     4     5   ar
    38     8     2    1
    39     8     9    1
    40     2     1   ar
    41    40    46    1
    42    10     9    1
    43    48    49    3
    44    28    27   ar
    45    28    31    1
    46    27    35    1
    47     9    11    1
    48     5     1   ar
    49     5     6    1
    50     1     7    1
    51    49    50    1
    52    46    47    1
    53    35    36    1
