@<TRIPOS>MOLECULE
mol_data/opt/cam/geoms/mol2/13lh13lh-13lh13lh-.out
 58 61 0 0 0
SMALL
GASTEIGER

@<TRIPOS>ATOM
      1 C           1.2716   -0.7012   -0.3508 C.ar    1  LIG1        0.0463
      2 C           0.9115    0.5655    0.0455 C.ar    1  LIG1        0.1585
      3 C          -0.5047    0.6102    0.1701 C.ar    1  LIG1        0.0940
      4 C          -0.9718   -0.6482   -0.1554 C.ar    1  LIG1        0.0912
      5 N           0.1057   -1.4317   -0.4550 N.ar    1  LIG1       -0.3549
      6 H           0.0077   -2.3751   -0.7954 H       1  LIG1        0.1655
      7 H           2.2335   -1.1399   -0.5571 H       1  LIG1        0.0845
      8 O           1.6843    1.6558    0.2981 O.3     1  LIG1       -0.4918
      9 C           3.0659    1.4630    0.1014 C.3     1  LIG1        0.0789
     10 H           3.5567    2.4093    0.3303 H       1  LIG1        0.0660
     11 H           3.4564    0.6818    0.7662 H       1  LIG1        0.0660
     12 H           3.2837    1.1820   -0.9371 H       1  LIG1        0.0660
     13 N          -1.3278    1.7132    0.5470 N.pl3   1  LIG1       -0.3535
     14 H          -1.1888    1.9464    1.5269 H       1  LIG1        0.1425
     15 H          -1.0617    2.5402    0.0200 H       1  LIG1        0.1425
     16 C          -2.3216   -1.1489   -0.2129 C.ar    1  LIG1        0.1094
     17 C          -2.8040   -2.4116   -0.4919 C.ar    1  LIG1        0.1679
     18 C          -4.2232   -2.3641   -0.4594 C.ar    1  LIG1        0.0947
     19 C          -4.5662   -1.0542   -0.1594 C.ar    1  LIG1        0.0917
     20 N          -3.4101   -0.3406   -0.0124 N.ar    1  LIG1       -0.3473
     21 H          -3.3302    0.6335    0.2578 H       1  LIG1        0.1662
     22 O          -2.0098   -3.4977   -0.7930 O.3     1  LIG1       -0.4911
     23 C          -1.9651   -4.4710    0.2410 C.3     1  LIG1        0.0790
     24 H          -1.2959   -5.2649   -0.0960 H       1  LIG1        0.0660
     25 H          -1.5845   -4.0394    1.1735 H       1  LIG1        0.0660
     26 H          -2.9557   -4.8993    0.4292 H       1  LIG1        0.0660
     27 N          -5.1687   -3.4041   -0.7034 N.pl3   1  LIG1       -0.3534
     28 H          -4.9309   -3.9221   -1.5434 H       1  LIG1        0.1425
     29 H          -5.2044   -4.0700    0.0632 H       1  LIG1        0.1425
     30 C          -5.8661   -0.4471   -0.0320 C.ar    1  LIG1        0.1094
     31 C          -6.2272    0.8554    0.2543 C.ar    1  LIG1        0.1679
     32 C          -7.6444    0.9309    0.2673 C.ar    1  LIG1        0.0947
     33 C          -8.1119   -0.3434   -0.0116 C.ar    1  LIG1        0.0916
     34 N          -7.0295   -1.1576   -0.1889 N.ar    1  LIG1       -0.3473
     35 H          -7.0513   -2.1294   -0.4773 H       1  LIG1        0.1662
     36 O          -5.3419    1.8735    0.5228 O.3     1  LIG1       -0.4911
     37 C          -5.1773    2.7872   -0.5516 C.3     1  LIG1        0.0790
     38 H          -4.4095    3.4998   -0.2461 H       1  LIG1        0.0660
     39 H          -4.8543    2.2720   -1.4630 H       1  LIG1        0.0660
     40 H          -6.1067    3.3293   -0.7633 H       1  LIG1        0.0660
     41 N          -8.4825    2.0568    0.5377 N.pl3   1  LIG1       -0.3534
     42 H          -8.1557    2.5501    1.3635 H       1  LIG1        0.1425
     43 H          -8.4621    2.7233   -0.2297 H       1  LIG1        0.1425
     44 C          -9.4668   -0.8290   -0.0900 C.ar    1  LIG1        0.1089
     45 C          -9.9624   -2.0904   -0.3558 C.ar    1  LIG1        0.1673
     46 C         -11.3803   -2.0310   -0.3158 C.ar    1  LIG1        0.0851
     47 C         -11.7094   -0.7274   -0.0184 C.ar    1  LIG1        0.0267
     48 N         -10.5428   -0.0118    0.1107 N.ar    1  LIG1       -0.3549
     49 H         -10.4178    0.9573    0.3732 H       1  LIG1        0.1655
     50 H         -12.6750   -0.2630    0.1087 H       1  LIG1        0.0827
     51 O          -9.2023   -3.2010   -0.6429 O.3     1  LIG1       -0.4911
     52 C          -9.2097   -4.1655    0.4048 C.3     1  LIG1        0.0790
     53 H          -8.6117   -5.0111    0.0590 H       1  LIG1        0.0660
     54 H          -8.7660   -3.7530    1.3183 H       1  LIG1        0.0660
     55 H         -10.2291   -4.4991    0.6234 H       1  LIG1        0.0660
     56 N         -12.2210   -3.1466   -0.5022 N.pl3   1  LIG1       -0.3540
     57 H         -13.1851   -2.8789   -0.6545 H       1  LIG1        0.1425
     58 H         -11.9081   -3.7061   -1.2878 H       1  LIG1        0.1425
@<TRIPOS>BOND
     1    28    27    1
     2    39    37    1
     3    58    56    1
     4    12     9    1
     5     6     5    1
     6    22    17    1
     7    22    23    1
     8    40    37    1
     9    27    18    1
    10    27    29    1
    11    57    56    1
    12    51    45    1
    13    51    52    1
    14     7     1    1
    15    37    38    1
    16    37    36    1
    17    56    46    1
    18    17    18   ar
    19    17    16   ar
    20    35    34    1
    21    18    19   ar
    22     5     1   ar
    23     5     4   ar
    24    45    46   ar
    25    45    44   ar
    26     1     2   ar
    27    46    47   ar
    28    43    41    1
    29    16     4    1
    30    16    20   ar
    31    34    30   ar
    32    34    33   ar
    33    19    30    1
    34    19    20   ar
    35     4     3   ar
    36    24    23    1
    37    44    33    1
    38    44    48   ar
    39    30    31   ar
    40    47    50    1
    41    47    48   ar
    42    20    21    1
    43    33    32   ar
    44    15    13    1
    45     2     3   ar
    46     2     8    1
    47    53    52    1
    48     9     8    1
    49     9    10    1
    50     9    11    1
    51    48    49    1
    52     3    13    1
    53    23    26    1
    54    23    25    1
    55    31    32   ar
    56    31    36    1
    57    32    41    1
    58    52    55    1
    59    52    54    1
    60    41    42    1
    61    13    14    1
