@<TRIPOS>MOLECULE
mol_data/opt/cam/geoms/mol2/13lh13lh-13lh-13lh.out
 58 61 0 0 0
SMALL
GASTEIGER

@<TRIPOS>ATOM
      1 C           1.0275   -0.8942    0.4800 C.ar    1  LIG1        0.0463
      2 C           0.6637    0.3977    0.7810 C.ar    1  LIG1        0.1585
      3 C          -0.7489    0.5046    0.6544 C.ar    1  LIG1        0.0940
      4 C          -1.2090   -0.7397    0.2717 C.ar    1  LIG1        0.0912
      5 N          -0.1311   -1.5701    0.1550 N.ar    1  LIG1       -0.3549
      6 H          -0.2301   -2.5611   -0.0011 H       1  LIG1        0.1655
      7 H           1.9889   -1.3794    0.4587 H       1  LIG1        0.0845
      8 O           1.4303    1.4597    1.1445 O.3     1  LIG1       -0.4918
      9 C           2.8076    1.1864    1.2631 C.3     1  LIG1        0.0789
     10 H           3.2923    2.1141    1.5680 H       1  LIG1        0.0660
     11 H           2.9949    0.4126    2.0185 H       1  LIG1        0.0660
     12 H           3.2302    0.8538    0.3063 H       1  LIG1        0.0660
     13 N          -1.5820    1.6406    0.8877 N.pl3   1  LIG1       -0.3535
     14 H          -1.3750    2.0432    1.7976 H       1  LIG1        0.1425
     15 H          -1.3911    2.3719    0.2075 H       1  LIG1        0.1425
     16 C          -2.5566   -1.1907    0.0392 C.ar    1  LIG1        0.1094
     17 C          -3.0409   -2.4333   -0.3208 C.ar    1  LIG1        0.1679
     18 C          -4.4589   -2.3826   -0.3249 C.ar    1  LIG1        0.0947
     19 C          -4.8071   -1.0859    0.0364 C.ar    1  LIG1        0.0917
     20 N          -3.6343   -0.3826    0.2488 N.ar    1  LIG1       -0.3473
     21 H          -3.5135    0.5445    0.6401 H       1  LIG1        0.1662
     22 O          -2.2568   -3.5233   -0.6388 O.3     1  LIG1       -0.4911
     23 C          -2.0358   -3.6635   -2.0363 C.3     1  LIG1        0.0790
     24 H          -1.4431   -4.5694   -2.1781 H       1  LIG1        0.0660
     25 H          -2.9797   -3.7641   -2.5848 H       1  LIG1        0.0660
     26 H          -1.4925   -2.8009   -2.4392 H       1  LIG1        0.0660
     27 N          -5.3082   -3.4594   -0.5764 N.pl3   1  LIG1       -0.3534
     28 H          -6.2815   -3.2059   -0.6852 H       1  LIG1        0.1425
     29 H          -4.9795   -4.0952   -1.2878 H       1  LIG1        0.1425
     30 C          -6.1002   -0.4446    0.1115 C.ar    1  LIG1        0.1094
     31 C          -7.3707   -0.9406    0.3516 C.ar    1  LIG1        0.1679
     32 C          -8.2965    0.1358    0.3001 C.ar    1  LIG1        0.0947
     33 C          -7.5696    1.2763    0.0282 C.ar    1  LIG1        0.0916
     34 N          -6.2534    0.9129   -0.0800 N.ar    1  LIG1       -0.3473
     35 H          -5.5272    1.5748   -0.3082 H       1  LIG1        0.1662
     36 O          -7.7264   -2.2478    0.5848 O.3     1  LIG1       -0.4911
     37 C          -7.3269   -2.7424    1.8605 C.3     1  LIG1        0.0790
     38 H          -7.7274   -3.7538    1.9436 H       1  LIG1        0.0660
     39 H          -6.2376   -2.7796    1.9460 H       1  LIG1        0.0660
     40 H          -7.7348   -2.1175    2.6630 H       1  LIG1        0.0660
     41 N          -9.7130    0.1095    0.4858 N.pl3   1  LIG1       -0.3534
     42 H         -10.1559   -0.4242   -0.2579 H       1  LIG1        0.1425
     43 H          -9.9447   -0.3718    1.3501 H       1  LIG1        0.1425
     44 C          -8.0013    2.6402   -0.1378 C.ar    1  LIG1        0.1089
     45 C          -7.3003    3.7728   -0.4998 C.ar    1  LIG1        0.1673
     46 C          -8.1905    4.8804   -0.4743 C.ar    1  LIG1        0.0851
     47 C          -9.4192    4.3797   -0.1035 C.ar    1  LIG1        0.0267
     48 N          -9.2926    3.0291    0.0858 N.ar    1  LIG1       -0.3549
     49 H          -9.9988    2.3538    0.3507 H       1  LIG1        0.1655
     50 H         -10.3572    4.8914    0.0427 H       1  LIG1        0.0827
     51 O          -5.9545    3.8053   -0.8072 O.3     1  LIG1       -0.4911
     52 C          -5.7076    3.9248   -2.2033 C.3     1  LIG1        0.0790
     53 H          -4.6245    3.9594   -2.3355 H       1  LIG1        0.0660
     54 H          -6.1173    3.0685   -2.7509 H       1  LIG1        0.0660
     55 H          -6.1489    4.8432   -2.6054 H       1  LIG1        0.0660
     56 N          -7.8667    6.2334   -0.7349 N.pl3   1  LIG1       -0.3540
     57 H          -6.8648    6.3746   -0.6817 H       1  LIG1        0.1425
     58 H          -8.1897    6.5463   -1.6434 H       1  LIG1        0.1425
@<TRIPOS>BOND
     1    54    52    1
     2    55    52    1
     3    25    23    1
     4    26    23    1
     5    53    52    1
     6    52    51    1
     7    24    23    1
     8    23    22    1
     9    58    56    1
    10    29    27    1
    11    51    45    1
    12    56    57    1
    13    56    46    1
    14    28    27    1
    15    22    17    1
    16    27    18    1
    17    45    46   ar
    18    45    44   ar
    19    46    47   ar
    20    18    17   ar
    21    18    19   ar
    22    17    16   ar
    23    35    34    1
    24    42    41    1
    25    44    33    1
    26    44    48   ar
    27    47    50    1
    28    47    48   ar
    29    34    33   ar
    30    34    30   ar
    31     6     5    1
    32    33    32   ar
    33    19    30    1
    34    19    20   ar
    35    16    20   ar
    36    16     4    1
    37    48    49    1
    38    30    31   ar
    39     5     4   ar
    40     5     1   ar
    41    15    13    1
    42    20    21    1
    43     4     3   ar
    44    32    31   ar
    45    32    41    1
    46    12     9    1
    47    31    36    1
    48     7     1    1
    49     1     2   ar
    50    41    43    1
    51    36    37    1
    52     3     2   ar
    53     3    13    1
    54     2     8    1
    55    13    14    1
    56     8     9    1
    57     9    10    1
    58     9    11    1
    59    37    38    1
    60    37    39    1
    61    37    40    1
