@<TRIPOS>MOLECULE
mol_data/opt/cam/geoms/mol2/13lh4hh-12hi4df-.out
 56 59 0 0 0
SMALL
GASTEIGER

@<TRIPOS>ATOM
      1 C           1.5065   -0.2314   -0.3531 C.ar    1  LIG1        0.0481
      2 C           1.0736    1.0489   -0.0605 C.ar    1  LIG1        0.1792
      3 C          -0.3460    1.0077    0.0396 C.ar    1  LIG1        0.1844
      4 C          -0.7590   -0.2991   -0.1933 C.ar    1  LIG1        0.0956
      5 N           0.3899   -1.0316   -0.4843 N.ar    1  LIG1       -0.3546
      6 H           0.4060   -2.0395   -0.4443 H       1  LIG1        0.1656
      7 H           2.4985   -0.6224   -0.5103 H       1  LIG1        0.0845
      8 O           1.7798    2.2011    0.0899 O.3     1  LIG1       -0.4900
      9 C           3.1853    2.0646   -0.0252 C.3     1  LIG1        0.0790
     10 H           3.6092    3.0582    0.1270 H       1  LIG1        0.0660
     11 H           3.5841    1.3784    0.7349 H       1  LIG1        0.0660
     12 H           3.4717    1.6957   -1.0203 H       1  LIG1        0.0660
     13 O          -1.1076    2.1154    0.2900 O.3     1  LIG1       -0.5019
     14 H          -2.0145    1.9276    0.0118 H       1  LIG1        0.2924
     15 C          -2.5090   -1.9765   -0.9430 C.ar    1  LIG1        0.1261
     16 C          -2.0991   -0.8729   -0.1445 C.ar    1  LIG1        0.0418
     17 C          -3.0699   -0.3736    0.7304 C.ar    1  LIG1       -0.0443
     18 C          -4.3675   -0.8930    0.8048 C.ar    1  LIG1       -0.0236
     19 C          -4.6681   -1.9729   -0.0516 C.ar    1  LIG1        0.0793
     20 N          -3.7327   -2.4922   -0.8796 N.ar    1  LIG1       -0.2314
     21 H          -2.7874    0.4202    1.4175 H       1  LIG1        0.0628
     22 N          -1.6151   -2.6152   -1.8066 N.pl3   1  LIG1       -0.3426
     23 H          -2.1019   -3.2180   -2.4591 H       1  LIG1        0.1437
     24 H          -0.9588   -1.9925   -2.2635 H       1  LIG1        0.1437
     25 C          -5.3240   -0.3250    1.8292 C.3     1  LIG1       -0.0377
     26 H          -6.0136   -1.0838    2.2051 H       1  LIG1        0.0278
     27 H          -5.9329    0.4935    1.4258 H       1  LIG1        0.0278
     28 H          -4.7667    0.0815    2.6787 H       1  LIG1        0.0278
     29 C          -6.1741   -4.0317   -0.1583 C.ar    1  LIG1        0.1262
     30 C          -6.0066   -2.6177   -0.1139 C.ar    1  LIG1        0.0419
     31 C          -7.1726   -1.8580   -0.1630 C.ar    1  LIG1       -0.0265
     32 C          -8.4521   -2.4343   -0.2072 C.ar    1  LIG1        0.0517
     33 C          -8.5038   -3.8487   -0.2296 C.ar    1  LIG1        0.0955
     34 N          -7.3818   -4.5944   -0.2094 N.ar    1  LIG1       -0.2299
     35 H          -7.0963   -0.7741   -0.1676 H       1  LIG1        0.0644
     36 N          -5.0929   -4.8988   -0.0877 N.pl3   1  LIG1       -0.3426
     37 H          -5.3510   -5.8424   -0.3431 H       1  LIG1        0.1437
     38 H          -4.2595   -4.5456   -0.5415 H       1  LIG1        0.1437
     39 N          -9.5968   -1.6301   -0.1357 N.pl3   1  LIG1       -0.3563
     40 H          -9.3941   -0.6514   -0.2981 H       1  LIG1        0.1424
     41 H         -10.3511   -1.9495   -0.7435 H       1  LIG1        0.1424
     42 C         -10.8578   -4.4168   -1.0696 C.ar    1  LIG1        0.0340
     43 C         -12.0106   -5.1981   -0.9296 C.ar    1  LIG1       -0.0387
     44 C          -9.7780   -4.6267   -0.1858 C.ar    1  LIG1        0.0246
     45 C         -12.1075   -6.1823    0.0472 C.ar    1  LIG1       -0.0393
     46 H         -12.8446   -5.0389   -1.6100 H       1  LIG1        0.0637
     47 C          -9.8773   -5.6528    0.7644 C.ar    1  LIG1       -0.0300
     48 C         -11.0281   -6.4336    0.9074 C.ar    1  LIG1        0.0253
     49 H          -9.0220   -5.8266    1.4103 H       1  LIG1        0.0643
     50 H         -13.0201   -6.7662    0.1364 H       1  LIG1        0.0636
     51 N         -10.7978   -3.4079   -2.0701 N.pl3   1  LIG1       -0.3575
     52 H          -9.8964   -3.3844   -2.5382 H       1  LIG1        0.1423
     53 H         -11.5298   -3.5152   -2.7630 H       1  LIG1        0.1423
     54 N         -11.1267   -7.3958    1.9277 N.pl3   1  LIG1       -0.3579
     55 H         -11.7493   -8.1630    1.7084 H       1  LIG1        0.1423
     56 H         -10.2312   -7.7455    2.2439 H       1  LIG1        0.1423
@<TRIPOS>BOND
     1    53    51    1
     2    52    51    1
     3    23    22    1
     4    24    22    1
     5    51    42    1
     6    22    15    1
     7    46    43    1
     8    42    43   ar
     9    42    44   ar
    10    12     9    1
    11    15    20   ar
    12    15    16   ar
    13    43    45   ar
    14    20    19   ar
    15    41    39    1
    16    38    36    1
    17     7     1    1
    18     5     6    1
    19     5     1   ar
    20     5     4   ar
    21     1     2   ar
    22    37    36    1
    23    40    39    1
    24    33    34   ar
    25    33    32   ar
    26    33    44    1
    27    34    29   ar
    28    32    31   ar
    29    32    39    1
    30     4    16    1
    31     4     3   ar
    32    44    47   ar
    33    35    31    1
    34    31    30   ar
    35    29    30   ar
    36    29    36    1
    37    16    17   ar
    38    30    19    1
    39     2     3   ar
    40     2     8    1
    41    19    18   ar
    42     9     8    1
    43     9    10    1
    44     9    11    1
    45    14    13    1
    46     3    13    1
    47    45    50    1
    48    45    48   ar
    49    17    18   ar
    50    17    21    1
    51    47    48   ar
    52    47    49    1
    53    18    25    1
    54    48    54    1
    55    27    25    1
    56    55    54    1
    57    25    26    1
    58    25    28    1
    59    54    56    1
