@<TRIPOS>MOLECULE
mol_data/opt/cam/geoms/mol2/13li13li.out
 32 33 0 0 0
SMALL
GASTEIGER

@<TRIPOS>ATOM
      1 C           0.7947    0.5736   -1.1368 C.ar    1  LIG1        0.0447
      2 C           1.1424    0.8161    0.1722 C.ar    1  LIG1        0.1408
      3 C           0.0324    0.5222    1.0090 C.ar    1  LIG1        0.0180
      4 C          -0.9777    0.0958    0.1633 C.ar    1  LIG1        0.0730
      5 N          -0.5076    0.1350   -1.1209 N.ar    1  LIG1       -0.3561
      6 H          -1.0685   -0.1543   -1.9075 H       1  LIG1        0.1655
      7 H           1.3483    0.6738   -2.0553 H       1  LIG1        0.0844
      8 O           2.3191    1.2725    0.6811 O.3     1  LIG1       -0.4933
      9 C           3.3149    1.5492   -0.2743 C.3     1  LIG1        0.0789
     10 H           4.1882    1.9100    0.2696 H       1  LIG1        0.0660
     11 H           3.5870    0.6476   -0.8387 H       1  LIG1        0.0660
     12 H           2.9843    2.3200   -0.9827 H       1  LIG1        0.0660
     13 C           0.0123    0.6781    2.4973 C.3     1  LIG1       -0.0342
     14 H          -0.8881    1.1971    2.8439 H       1  LIG1        0.0279
     15 H           0.8734    1.2675    2.8179 H       1  LIG1        0.0279
     16 H           0.0734   -0.2828    3.0245 H       1  LIG1        0.0279
     17 C          -2.3342   -0.3407    0.4150 C.ar    1  LIG1        0.1057
     18 C          -3.3633   -0.5741   -0.4758 C.ar    1  LIG1        0.1495
     19 C          -4.5054   -1.0351    0.2344 C.ar    1  LIG1        0.0092
     20 C          -4.1303   -1.0698    1.5555 C.ar    1  LIG1        0.0087
     21 N          -2.8296   -0.6491    1.6575 N.ar    1  LIG1       -0.3563
     22 H          -2.2867   -0.6332    2.5035 H       1  LIG1        0.1655
     23 H          -4.6911   -1.3679    2.4284 H       1  LIG1        0.0811
     24 O          -3.2538   -0.4189   -1.8417 O.3     1  LIG1       -0.4927
     25 C          -3.8540    0.7748   -2.3288 C.3     1  LIG1        0.0789
     26 H          -3.7139    0.7830   -3.4113 H       1  LIG1        0.0660
     27 H          -4.9260    0.7996   -2.1070 H       1  LIG1        0.0660
     28 H          -3.3803    1.6602   -1.8901 H       1  LIG1        0.0660
     29 C          -5.8276   -1.4140   -0.3530 C.3     1  LIG1       -0.0348
     30 H          -6.4085   -2.0221    0.3445 H       1  LIG1        0.0279
     31 H          -5.6929   -1.9913   -1.2719 H       1  LIG1        0.0279
     32 H          -6.4357   -0.5385   -0.6069 H       1  LIG1        0.0279
@<TRIPOS>BOND
     1    26    25    1
     2    25    27    1
     3    25    28    1
     4    25    24    1
     5     7     1    1
     6     6     5    1
     7    24    18    1
     8    31    29    1
     9     1     5   ar
    10     1     2   ar
    11     5     4   ar
    12    12     9    1
    13    11     9    1
    14    32    29    1
    15    18    19   ar
    16    18    17   ar
    17    29    19    1
    18    29    30    1
    19     9    10    1
    20     9     8    1
    21     4    17    1
    22     4     3   ar
    23     2     8    1
    24     2     3   ar
    25    19    20   ar
    26    17    21   ar
    27     3    13    1
    28    20    21   ar
    29    20    23    1
    30    21    22    1
    31    13    15    1
    32    13    14    1
    33    13    16    1
