@<TRIPOS>MOLECULE
mol_data/opt/cam/geoms/mol2/13li13li-.out
 32 33 0 0 0
SMALL
GASTEIGER

@<TRIPOS>ATOM
      1 C           1.0254   -0.5393   -0.4412 C.ar    1  LIG1        0.0447
      2 C           0.7414    0.7460   -0.0403 C.ar    1  LIG1        0.1408
      3 C          -0.6628    0.8787    0.1312 C.ar    1  LIG1        0.0180
      4 C          -1.2018   -0.3576   -0.1824 C.ar    1  LIG1        0.0730
      5 N          -0.1775   -1.1992   -0.5205 N.ar    1  LIG1       -0.3561
      6 H          -0.3377   -2.1526   -0.8074 H       1  LIG1        0.1655
      7 H           1.9571   -1.0287   -0.6702 H       1  LIG1        0.0844
      8 O           1.5903    1.7838    0.1923 O.3     1  LIG1       -0.4933
      9 C           2.9549    1.4907    0.0099 C.3     1  LIG1        0.0789
     10 H           3.5104    2.4011    0.2365 H       1  LIG1        0.0660
     11 H           3.2834    0.6879    0.6829 H       1  LIG1        0.0660
     12 H           3.1625    1.1880   -1.0248 H       1  LIG1        0.0660
     13 C          -1.3604    2.1245    0.5796 C.3     1  LIG1       -0.0342
     14 H          -2.0925    1.9237    1.3696 H       1  LIG1        0.0279
     15 H          -1.8792    2.6377   -0.2404 H       1  LIG1        0.0279
     16 H          -0.6315    2.8310    0.9811 H       1  LIG1        0.0279
     17 C          -2.5636   -0.8464   -0.1991 C.ar    1  LIG1        0.1057
     18 C          -3.0337   -2.1378   -0.3342 C.ar    1  LIG1        0.1495
     19 C          -4.4553   -2.1235   -0.3377 C.ar    1  LIG1        0.0092
     20 C          -4.8123   -0.8037   -0.2038 C.ar    1  LIG1        0.0087
     21 N          -3.6745   -0.0440   -0.1175 N.ar    1  LIG1       -0.3563
     22 H          -3.6458    0.9599   -0.0729 H       1  LIG1        0.1655
     23 H          -5.7910   -0.3497   -0.1692 H       1  LIG1        0.0811
     24 O          -2.2238   -3.2435   -0.4868 O.3     1  LIG1       -0.4927
     25 C          -2.0862   -4.0162    0.6992 C.3     1  LIG1        0.0789
     26 H          -1.4381   -4.8602    0.4560 H       1  LIG1        0.0660
     27 H          -1.6337   -3.4250    1.5032 H       1  LIG1        0.0660
     28 H          -3.0549   -4.3961    1.0404 H       1  LIG1        0.0660
     29 C          -5.3586   -3.3076   -0.4754 C.3     1  LIG1       -0.0348
     30 H          -5.4444   -3.8755    0.4578 H       1  LIG1        0.0279
     31 H          -4.9835   -3.9951   -1.2387 H       1  LIG1        0.0279
     32 H          -6.3670   -3.0020   -0.7640 H       1  LIG1        0.0279
@<TRIPOS>BOND
     1    31    29    1
     2    12     9    1
     3     6     5    1
     4    32    29    1
     5     7     1    1
     6     5     1   ar
     7     5     4   ar
     8    24    18    1
     9    24    25    1
    10    29    19    1
    11    29    30    1
    12     1     2   ar
    13    19    18   ar
    14    19    20   ar
    15    18    17   ar
    16    15    13    1
    17    20    23    1
    18    20    21   ar
    19    17     4    1
    20    17    21   ar
    21     4     3   ar
    22    21    22    1
    23     2     3   ar
    24     2     8    1
    25     9     8    1
    26     9    10    1
    27     9    11    1
    28     3    13    1
    29    26    25    1
    30    13    16    1
    31    13    14    1
    32    25    28    1
    33    25    27    1
