@<TRIPOS>MOLECULE
mol_data/opt/cam/geoms/mol2/13li13li13li-13li.out
 62 65 0 0 0
SMALL
GASTEIGER

@<TRIPOS>ATOM
      1 C           0.6807    1.4270   -1.1451 C.ar    1  LIG1        0.0447
      2 C           1.3235    0.4366   -0.4385 C.ar    1  LIG1        0.1408
      3 C           0.3807   -0.5629   -0.0769 C.ar    1  LIG1        0.0180
      4 C          -0.8346   -0.1420   -0.5902 C.ar    1  LIG1        0.0730
      5 N          -0.6412    1.0572   -1.2229 N.ar    1  LIG1       -0.3561
      6 H          -1.3815    1.5338   -1.7141 H       1  LIG1        0.1655
      7 H           1.0406    2.3416   -1.5855 H       1  LIG1        0.0844
      8 O           2.6339    0.3449   -0.0828 O.3     1  LIG1       -0.4933
      9 C           3.4410    1.4210   -0.4961 C.3     1  LIG1        0.0789
     10 H           4.4522    1.2160   -0.1435 H       1  LIG1        0.0660
     11 H           3.4510    1.5145   -1.5899 H       1  LIG1        0.0660
     12 H           3.0923    2.3693   -0.0663 H       1  LIG1        0.0660
     13 C           0.6901   -1.7935    0.7164 C.3     1  LIG1       -0.0342
     14 H          -0.0326   -1.9503    1.5246 H       1  LIG1        0.0279
     15 H           1.6788   -1.7006    1.1700 H       1  LIG1        0.0279
     16 H           0.7042   -2.7013    0.1009 H       1  LIG1        0.0279
     17 C          -2.1551   -0.7277   -0.5556 C.ar    1  LIG1        0.1062
     18 C          -3.3727   -0.1726   -0.9055 C.ar    1  LIG1        0.1502
     19 C          -4.3973   -1.1385   -0.7500 C.ar    1  LIG1        0.0187
     20 C          -3.7658   -2.2862   -0.2956 C.ar    1  LIG1        0.0735
     21 N          -2.4224   -2.0181   -0.1805 N.ar    1  LIG1       -0.3486
     22 H          -1.7474   -2.7323    0.0499 H       1  LIG1        0.1661
     23 O          -3.5450    1.1220   -1.3477 O.3     1  LIG1       -0.4927
     24 C          -3.8593    2.0356   -0.3027 C.3     1  LIG1        0.0789
     25 H          -4.0060    3.0127   -0.7669 H       1  LIG1        0.0660
     26 H          -4.7777    1.7407    0.2163 H       1  LIG1        0.0660
     27 H          -3.0433    2.0942    0.4262 H       1  LIG1        0.0660
     28 C          -5.8481   -0.9237   -1.0474 C.3     1  LIG1       -0.0341
     29 H          -6.4835   -1.0845   -0.1688 H       1  LIG1        0.0279
     30 H          -6.2107   -1.5820   -1.8451 H       1  LIG1        0.0279
     31 H          -6.0062    0.1010   -1.3906 H       1  LIG1        0.0279
     32 C          -4.2625   -3.5987    0.0398 C.ar    1  LIG1        0.1062
     33 C          -3.5990   -4.6732    0.6062 C.ar    1  LIG1        0.1502
     34 C          -4.4840   -5.7746    0.7108 C.ar    1  LIG1        0.0187
     35 C          -5.6953   -5.3338    0.2006 C.ar    1  LIG1        0.0735
     36 N          -5.5431   -4.0270   -0.1931 N.ar    1  LIG1       -0.3486
     37 H          -6.2822   -3.5189   -0.6561 H       1  LIG1        0.1661
     38 O          -2.2750   -4.6615    0.9885 O.3     1  LIG1       -0.4927
     39 C          -2.0873   -4.3684    2.3691 C.3     1  LIG1        0.0789
     40 H          -1.0131   -4.4071    2.5586 H       1  LIG1        0.0660
     41 H          -2.4676   -3.3702    2.6140 H       1  LIG1        0.0660
     42 H          -2.5939   -5.1046    3.0021 H       1  LIG1        0.0660
     43 C          -4.1278   -7.1268    1.2440 C.3     1  LIG1       -0.0341
     44 H          -3.0781   -7.1411    1.5443 H       1  LIG1        0.0279
     45 H          -4.2442   -7.9129    0.4881 H       1  LIG1        0.0279
     46 H          -4.7271   -7.4071    2.1181 H       1  LIG1        0.0279
     47 C          -6.9765   -5.9802    0.0341 C.ar    1  LIG1        0.1057
     48 C          -8.1793   -5.4503   -0.3929 C.ar    1  LIG1        0.1495
     49 C          -9.1589   -6.4796   -0.4354 C.ar    1  LIG1        0.0092
     50 C          -8.5143   -7.6209   -0.0246 C.ar    1  LIG1        0.0087
     51 N          -7.2080   -7.3153    0.2574 N.ar    1  LIG1       -0.3563
     52 H          -6.5052   -7.9746    0.5428 H       1  LIG1        0.1655
     53 H          -8.8871   -8.6285    0.0804 H       1  LIG1        0.0811
     54 O          -8.3522   -4.1327   -0.7607 O.3     1  LIG1       -0.4927
     55 C          -9.0637   -3.3577    0.1964 C.3     1  LIG1        0.0789
     56 H          -9.1234   -2.3422   -0.1996 H       1  LIG1        0.0660
     57 H         -10.0774   -3.7428    0.3468 H       1  LIG1        0.0660
     58 H          -8.5417   -3.3466    1.1600 H       1  LIG1        0.0660
     59 C         -10.5860   -6.3382   -0.8607 C.3     1  LIG1       -0.0348
     60 H         -11.0188   -7.3090   -1.1131 H       1  LIG1        0.0279
     61 H         -10.6665   -5.6950   -1.7414 H       1  LIG1        0.0279
     62 H         -11.2116   -5.8961   -0.0773 H       1  LIG1        0.0279
@<TRIPOS>BOND
     1    30    28    1
     2    61    59    1
     3     6     5    1
     4    11     9    1
     5     7     1    1
     6    31    28    1
     7    23    18    1
     8    23    24    1
     9     5     1   ar
    10     5     4   ar
    11     1     2   ar
    12    60    59    1
    13    28    19    1
    14    28    29    1
    15    18    19   ar
    16    18    17   ar
    17    59    49    1
    18    59    62    1
    19    25    24    1
    20    54    48    1
    21    54    55    1
    22    19    20   ar
    23    37    36    1
    24     4    17    1
    25     4     3   ar
    26    17    21   ar
    27     9    10    1
    28     9     8    1
    29     9    12    1
    30     2     8    1
    31     2     3   ar
    32    49    48   ar
    33    49    50   ar
    34    48    47   ar
    35    24    26    1
    36    24    27    1
    37    20    21   ar
    38    20    32    1
    39    56    55    1
    40    36    32   ar
    41    36    35   ar
    42    21    22    1
    43     3    13    1
    44    50    53    1
    45    50    51   ar
    46    47    35    1
    47    47    51   ar
    48    32    33   ar
    49    16    13    1
    50    55    57    1
    51    55    58    1
    52    35    34   ar
    53    51    52    1
    54    45    43    1
    55    33    34   ar
    56    33    38    1
    57    34    43    1
    58    13    15    1
    59    13    14    1
    60    38    39    1
    61    43    44    1
    62    43    46    1
    63    39    40    1
    64    39    41    1
    65    39    42    1
