@<TRIPOS>MOLECULE
mol_data/opt/cam/geoms/mol2/13li4lf13el-4fa6hl12ah13hd13df-.out
 102 109 0 0 0
SMALL
GASTEIGER

@<TRIPOS>ATOM
      1 C           0.4882    2.4071    0.6947 C.ar    1  LIG1        0.0446
      2 C           0.5419    1.8117    1.9353 C.ar    1  LIG1        0.1408
      3 C          -0.4732    0.8253    2.0176 C.ar    1  LIG1        0.0166
      4 C          -1.1307    0.8445    0.7924 C.ar    1  LIG1        0.0566
      5 N          -0.5359    1.8057    0.0159 N.ar    1  LIG1       -0.3573
      6 H          -0.8769    2.0350   -0.9045 H       1  LIG1        0.1655
      7 H           1.0789    3.1913    0.2511 H       1  LIG1        0.0844
      8 O           1.3789    2.0650    2.9770 O.3     1  LIG1       -0.4933
      9 C           2.3046    3.1042    2.7621 C.3     1  LIG1        0.0789
     10 H           2.8946    3.1991    3.6738 H       1  LIG1        0.0660
     11 H           2.9725    2.8752    1.9216 H       1  LIG1        0.0660
     12 H           1.7961    4.0555    2.5583 H       1  LIG1        0.0660
     13 C          -0.7364    0.0096    3.2446 C.3     1  LIG1       -0.0342
     14 H          -1.8065   -0.1314    3.4199 H       1  LIG1        0.0279
     15 H          -0.3149    0.5166    4.1151 H       1  LIG1        0.0279
     16 H          -0.2713   -0.9827    3.2001 H       1  LIG1        0.0279
     17 C          -3.0648    0.4479   -0.7770 C.ar    1  LIG1        0.1300
     18 C          -4.1017   -0.3418   -1.2354 C.ar    1  LIG1       -0.0066
     19 C          -2.2410    0.0394    0.2845 C.ar    1  LIG1        0.0438
     20 C          -4.4018   -1.5912   -0.6806 C.ar    1  LIG1        0.0445
     21 H          -4.6903    0.0325   -2.0618 H       1  LIG1        0.0662
     22 C          -2.5235   -1.2174    0.8282 C.ar    1  LIG1       -0.0069
     23 C          -3.5696   -2.0050    0.3757 C.ar    1  LIG1        0.1268
     24 H          -1.8899   -1.6054    1.6181 H       1  LIG1        0.0662
     25 O          -2.8398    1.6593   -1.4140 O.3     1  LIG1       -0.4944
     26 C          -3.6302    2.7269   -0.9027 C.3     1  LIG1        0.0788
     27 H          -3.3977    3.6084   -1.5020 H       1  LIG1        0.0660
     28 H          -4.6972    2.4985   -0.9937 H       1  LIG1        0.0660
     29 H          -3.3921    2.9261    0.1481 H       1  LIG1        0.0660
     30 O          -3.7955   -3.2304    0.9563 O.3     1  LIG1       -0.5061
     31 H          -3.1584   -3.3696    1.6659 H       1  LIG1        0.2922
     32 C          -5.5164   -2.3900   -1.1923 C.ar    1  LIG1        0.0698
     33 C          -6.4259   -2.1526   -2.2320 C.ar    1  LIG1        0.0922
     34 C          -7.3282   -3.2591   -2.2544 C.ar    1  LIG1        0.1613
     35 C          -6.9641   -4.1346   -1.2544 C.ar    1  LIG1        0.0939
     36 N          -5.8601   -3.5908   -0.6443 N.ar    1  LIG1       -0.3500
     37 H          -5.3879   -3.9700    0.1622 H       1  LIG1        0.1661
     38 C          -6.4565   -1.0859   -3.1681 C.1     1  LIG1       -0.0638
     39 C          -6.5193   -0.2000   -3.9844 C.1     1  LIG1       -0.1137
     40 H          -6.5579    0.5694   -4.7202 H       1  LIG1        0.1232
     41 O          -8.3055   -3.4892   -3.1682 O.3     1  LIG1       -0.4917
     42 C          -9.3844   -2.5628   -3.1443 C.3     1  LIG1        0.0789
     43 H         -10.0889   -2.8940   -3.9089 H       1  LIG1        0.0660
     44 H          -9.8745   -2.5718   -2.1668 H       1  LIG1        0.0660
     45 H          -9.0457   -1.5509   -3.3822 H       1  LIG1        0.0660
     46 C          -8.8221   -5.7469   -0.7342 C.ar    1  LIG1        0.1266
     47 C          -9.2444   -7.0209   -0.3729 C.ar    1  LIG1       -0.0117
     48 C          -7.4549   -5.4607   -0.8754 C.ar    1  LIG1        0.0434
     49 C          -8.3329   -8.0491   -0.1200 C.ar    1  LIG1       -0.0110
     50 H         -10.3103   -7.2208   -0.2924 H       1  LIG1        0.0660
     51 C          -6.5543   -6.4965   -0.6152 C.ar    1  LIG1       -0.0484
     52 C          -6.9700   -7.7662   -0.2421 C.ar    1  LIG1       -0.0531
     53 H          -5.4932   -6.2970   -0.7290 H       1  LIG1        0.0625
     54 O          -9.7122   -4.7411   -0.9381 O.3     1  LIG1       -0.5061
     55 H         -10.6076   -5.0853   -0.8404 H       1  LIG1        0.2922
     56 H          -6.2388   -8.5412   -0.0442 H       1  LIG1        0.0624
     57 C          -8.3426  -10.5878   -0.2631 C.ar    1  LIG1        0.1250
     58 C          -8.8188   -9.3851    0.3001 C.ar    1  LIG1        0.0253
     59 C          -9.8028   -9.5004    1.2784 C.ar    1  LIG1       -0.0067
     60 C         -10.2709  -10.7427    1.6828 C.ar    1  LIG1        0.1497
     61 C          -9.7268  -11.8822    1.0678 C.ar    1  LIG1        0.1496
     62 N          -8.7947  -11.7773    0.1166 N.ar    1  LIG1       -0.2250
     63 H         -10.1794   -8.5954    1.7383 H       1  LIG1        0.0662
     64 N          -7.3552  -10.6045   -1.2360 N.pl3   1  LIG1       -0.3426
     65 H          -7.3252  -11.4815   -1.7355 H       1  LIG1        0.1437
     66 H          -7.2993   -9.7874   -1.8263 H       1  LIG1        0.1437
     67 O         -11.2201  -10.9307    2.6428 O.3     1  LIG1       -0.4928
     68 C         -11.7562   -9.7921    3.2802 C.3     1  LIG1        0.0789
     69 H         -12.4793  -10.1620    4.0066 H       1  LIG1        0.0660
     70 H         -10.9818   -9.2201    3.8044 H       1  LIG1        0.0660
     71 H         -12.2687   -9.1340    2.5684 H       1  LIG1        0.0660
     72 C         -10.1438  -13.2345    1.4242 C.ar    1  LIG1        0.1594
     73 C         -11.0370  -13.7571    2.3168 C.ar    1  LIG1        0.0072
     74 C         -10.9727  -15.1789    2.1977 C.ar    1  LIG1        0.0732
     75 C         -10.0438  -15.4240    1.2154 C.ar    1  LIG1        0.1742
     76 O          -9.5301  -14.2388    0.7519 O.2     1  LIG1       -0.4497
     77 H         -11.6558  -13.1934    2.9938 H       1  LIG1        0.0675
     78 N         -11.6434  -16.0984    2.9765 N.pl3   1  LIG1       -0.3550
     79 H         -12.5494  -15.7966    3.3015 H       1  LIG1        0.1424
     80 H         -11.6232  -17.0464    2.6021 H       1  LIG1        0.1424
     81 C          -9.4806  -16.5998    0.6109 C.ar    1  LIG1        0.1066
     82 C          -9.8212  -17.9383    0.6354 C.ar    1  LIG1        0.0716
     83 C          -8.8684  -18.6285   -0.1771 C.ar    1  LIG1        0.0997
     84 C          -7.9856  -17.6921   -0.6902 C.ar    1  LIG1        0.0842
     85 N          -8.3713  -16.4774   -0.1922 N.ar    1  LIG1       -0.3480
     86 H          -8.0046  -15.5793   -0.4712 H       1  LIG1        0.1661
     87 N         -10.9275  -18.5026    1.3290 N.pl3   1  LIG1       -0.3552
     88 H         -11.6753  -18.7353    0.6800 H       1  LIG1        0.1424
     89 H         -10.6585  -19.3696    1.7862 H       1  LIG1        0.1424
     90 N          -8.8268  -21.1961   -0.3794 N.1     1  LIG1       -0.1907
     91 C          -8.8214  -20.0395   -0.3255 C.1     1  LIG1        0.1032
     92 C          -6.8247  -17.8311   -1.5449 C.ar    1  LIG1        0.0855
     93 C          -6.6359  -18.5511   -2.7183 C.ar    1  LIG1        0.1197
     94 C          -5.2956  -18.3156   -3.1433 C.ar    1  LIG1        0.1521
     95 C          -4.7113  -17.4662   -2.2409 C.ar    1  LIG1        0.0455
     96 N          -5.6619  -17.1701   -1.2846 N.ar    1  LIG1       -0.3554
     97 H          -5.4753  -16.6871   -0.4207 H       1  LIG1        0.1655
     98 H          -3.7168  -17.0513   -2.2013 H       1  LIG1        0.0845
     99 N          -8.4193  -19.8914   -4.0064 N.1     1  LIG1       -0.1907
    100 C          -7.6171  -19.2982   -3.4200 C.1     1  LIG1        0.1050
    101 O          -4.7906  -18.8644   -4.2708 O.3     1  LIG1       -0.5040
    102 H          -3.8751  -18.5870   -4.3872 H       1  LIG1        0.2923
@<TRIPOS>BOND
     1    40    39    1
     2   102   101    1
     3   101    94    1
     4    99   100    3
     5    39    38    3
     6    43    42    1
     7   100    93    1
     8    45    42    1
     9    41    42    1
    10    41    34    1
    11    38    33    1
    12    42    44    1
    13    94    93   ar
    14    94    95   ar
    15    93    92   ar
    16    34    33   ar
    17    34    35   ar
    18    95    98    1
    19    95    96   ar
    20    33    32   ar
    21    21    18    1
    22    66    64    1
    23    65    64    1
    24    92    96   ar
    25    92    84    1
    26    27    26    1
    27    25    26    1
    28    25    17    1
    29    96    97    1
    30    35    48    1
    31    35    36   ar
    32    64    57    1
    33    18    17   ar
    34    18    20   ar
    35    32    20    1
    36    32    36   ar
    37    28    26    1
    38    54    55    1
    39    54    46    1
    40     6     5    1
    41    26    29    1
    42    48    46   ar
    43    48    51   ar
    44    17    19   ar
    45    46    47   ar
    46    53    51    1
    47    84    85   ar
    48    84    83   ar
    49    20    23   ar
    50    36    37    1
    51    51    52   ar
    52    86    85    1
    53    90    91    3
    54    47    50    1
    55    47    49   ar
    56    91    83    1
    57    57    62   ar
    58    57    58   ar
    59    52    49   ar
    60    52    56    1
    61    85    81   ar
    62    83    82   ar
    63    49    58    1
    64     5     1   ar
    65     5     4   ar
    66    62    61   ar
    67     7     1    1
    68    19     4    1
    69    19    22   ar
    70    58    59   ar
    71    23    22   ar
    72    23    30    1
    73    81    82   ar
    74    81    75    1
    75    82    87    1
    76    88    87    1
    77     1     2   ar
    78    76    75   ar
    79    76    72   ar
    80     4     3   ar
    81    22    24    1
    82    30    31    1
    83    61    72    1
    84    61    60   ar
    85    75    74   ar
    86    59    60   ar
    87    59    63    1
    88    87    89    1
    89    72    73   ar
    90    60    67    1
    91    11     9    1
    92     2     3   ar
    93     2     8    1
    94     3    13    1
    95    74    73   ar
    96    74    78    1
    97    73    77    1
    98    12     9    1
    99    71    68    1
   100    80    78    1
   101    67    68    1
   102     9     8    1
   103     9    10    1
   104    78    79    1
   105    16    13    1
   106    13    14    1
   107    13    15    1
   108    68    70    1
   109    68    69    1
