@<TRIPOS>MOLECULE
mol_data/opt/cam/geoms/mol2/13li13li-13li13li-.out
 62 65 0 0 0
SMALL
GASTEIGER

@<TRIPOS>ATOM
      1 C           1.2332   -0.7770   -0.4886 C.ar    1  LIG1        0.0447
      2 C           0.9255    0.5511   -0.3021 C.ar    1  LIG1        0.1408
      3 C          -0.4793    0.6840   -0.1369 C.ar    1  LIG1        0.0180
      4 C          -0.9959   -0.5971   -0.2344 C.ar    1  LIG1        0.0730
      5 N           0.0439   -1.4649   -0.4387 N.ar    1  LIG1       -0.3561
      6 H          -0.0981   -2.4521   -0.5861 H       1  LIG1        0.1655
      7 H           2.1728   -1.2795   -0.6454 H       1  LIG1        0.0844
      8 O           1.7556    1.6285   -0.2537 O.3     1  LIG1       -0.4933
      9 C           3.1227    1.3360   -0.4148 C.3     1  LIG1        0.0789
     10 H           3.6615    2.2819   -0.3523 H       1  LIG1        0.0660
     11 H           3.4819    0.6613    0.3735 H       1  LIG1        0.0660
     12 H           3.3186    0.8714   -1.3900 H       1  LIG1        0.0660
     13 C          -1.2007    1.9718    0.1093 C.3     1  LIG1       -0.0342
     14 H          -1.9166    1.8872    0.9340 H       1  LIG1        0.0279
     15 H          -1.7484    2.3254   -0.7729 H       1  LIG1        0.0279
     16 H          -0.4833    2.7515    0.3724 H       1  LIG1        0.0279
     17 C          -2.3465   -1.1050   -0.1558 C.ar    1  LIG1        0.1062
     18 C          -2.7904   -2.4111   -0.0559 C.ar    1  LIG1        0.1502
     19 C          -4.2069   -2.4325   -0.0534 C.ar    1  LIG1        0.0187
     20 C          -4.6028   -1.1073   -0.1513 C.ar    1  LIG1        0.0735
     21 N          -3.4728   -0.3264   -0.2066 N.ar    1  LIG1       -0.3486
     22 H          -3.5122    0.6691   -0.3684 H       1  LIG1        0.1661
     23 O          -1.9669   -3.5147    0.0172 O.3     1  LIG1       -0.4927
     24 C          -1.6773   -3.9120    1.3528 C.3     1  LIG1        0.0789
     25 H          -1.0534   -4.8058    1.2912 H       1  LIG1        0.0660
     26 H          -1.1373   -3.1236    1.8888 H       1  LIG1        0.0660
     27 H          -2.5950   -4.1493    1.9016 H       1  LIG1        0.0660
     28 C          -5.0583   -3.6609    0.0213 C.3     1  LIG1       -0.0341
     29 H          -4.4227   -4.5463    0.0890 H       1  LIG1        0.0279
     30 H          -5.6821   -3.7890   -0.8708 H       1  LIG1        0.0279
     31 H          -5.7221   -3.6574    0.8935 H       1  LIG1        0.0279
     32 C          -5.9034   -0.4847   -0.2025 C.ar    1  LIG1        0.1062
     33 C          -6.2386    0.8579   -0.1776 C.ar    1  LIG1        0.1502
     34 C          -7.6436    0.9976   -0.2950 C.ar    1  LIG1        0.0187
     35 C          -8.1438   -0.2923   -0.3838 C.ar    1  LIG1        0.0735
     36 N          -7.0860   -1.1660   -0.3235 N.ar    1  LIG1       -0.3486
     37 H          -7.2085   -2.1618   -0.4342 H       1  LIG1        0.1661
     38 O          -5.3304    1.8891   -0.0714 O.3     1  LIG1       -0.4927
     39 C          -5.1506    2.3494    1.2638 C.3     1  LIG1        0.0789
     40 H          -4.4337    3.1714    1.2224 H       1  LIG1        0.0660
     41 H          -6.0934    2.7115    1.6877 H       1  LIG1        0.0660
     42 H          -4.7581    1.5519    1.9048 H       1  LIG1        0.0660
     43 C          -8.3863    2.2961   -0.3384 C.3     1  LIG1       -0.0341
     44 H          -9.1070    2.3978    0.4813 H       1  LIG1        0.0279
     45 H          -8.9270    2.4316   -1.2829 H       1  LIG1        0.0279
     46 H          -7.6820    3.1274   -0.2646 H       1  LIG1        0.0279
     47 C          -9.4854   -0.8109   -0.5185 C.ar    1  LIG1        0.1057
     48 C          -9.9275   -2.1201   -0.5005 C.ar    1  LIG1        0.1495
     49 C         -11.3333   -2.1455   -0.7105 C.ar    1  LIG1        0.0092
     50 C         -11.7103   -0.8320   -0.8496 C.ar    1  LIG1        0.0087
     51 N         -10.5998   -0.0370   -0.7314 N.ar    1  LIG1       -0.3563
     52 H         -10.5876    0.9631   -0.8297 H       1  LIG1        0.1655
     53 H         -12.6853   -0.4057   -1.0312 H       1  LIG1        0.0811
     54 O          -9.0973   -3.2107   -0.3501 O.3     1  LIG1       -0.4927
     55 C          -9.1755   -3.8195    0.9330 C.3     1  LIG1        0.0789
     56 H          -8.4711   -4.6533    0.9313 H       1  LIG1        0.0660
     57 H          -8.9033   -3.1096    1.7224 H       1  LIG1        0.0660
     58 H         -10.1818   -4.2020    1.1318 H       1  LIG1        0.0660
     59 C         -12.2042   -3.3595   -0.7830 C.3     1  LIG1       -0.0348
     60 H         -12.4302   -3.7690    0.2079 H       1  LIG1        0.0279
     61 H         -11.7179   -4.1524   -1.3581 H       1  LIG1        0.0279
     62 H         -13.1575   -3.1310   -1.2653 H       1  LIG1        0.0279
@<TRIPOS>BOND
     1    12     9    1
     2    61    59    1
     3    45    43    1
     4    62    59    1
     5    53    50    1
     6    30    28    1
     7    50    51   ar
     8    50    49   ar
     9    52    51    1
    10    59    49    1
    11    59    60    1
    12    15    13    1
    13    51    47   ar
    14    49    48   ar
    15     7     1    1
    16     6     5    1
    17    47    48   ar
    18    47    35    1
    19    48    54    1
    20     1     5   ar
    21     1     2   ar
    22     5     4   ar
    23    37    36    1
    24     9    10    1
    25     9     8    1
    26     9    11    1
    27    35    36   ar
    28    35    34   ar
    29    22    21    1
    30    54    55    1
    31    43    34    1
    32    43    46    1
    33    43    44    1
    34    36    32   ar
    35     2     8    1
    36     2     3   ar
    37    34    33   ar
    38     4    17    1
    39     4     3   ar
    40    21    17   ar
    41    21    20   ar
    42    32    33   ar
    43    32    20    1
    44    33    38    1
    45    17    18   ar
    46    20    19   ar
    47     3    13    1
    48    38    39    1
    49    18    19   ar
    50    18    23    1
    51    19    28    1
    52    23    24    1
    53    28    29    1
    54    28    31    1
    55    13    16    1
    56    13    14    1
    57    56    55    1
    58    55    58    1
    59    55    57    1
    60    40    39    1
    61    39    41    1
    62    39    42    1
    63    25    24    1
    64    24    26    1
    65    24    27    1
