@<TRIPOS>MOLECULE
mol_data/opt/cam/geoms/mol2/13li13dh-12lh13di.out
 60 63 0 0 0
SMALL
GASTEIGER

@<TRIPOS>ATOM
      1 C           1.0851    0.5102   -1.2180 C.ar    1  LIG1        0.0446
      2 C           1.1651    0.9804    0.0785 C.ar    1  LIG1        0.1408
      3 C          -0.0506    0.6781    0.7620 C.ar    1  LIG1        0.0166
      4 C          -0.8610    0.0233   -0.1578 C.ar    1  LIG1        0.0566
      5 N          -0.1458   -0.1053   -1.3361 N.ar    1  LIG1       -0.3573
      6 H          -0.5753   -0.3493   -2.2139 H       1  LIG1        0.1655
      7 H           1.7795    0.5489   -2.0413 H       1  LIG1        0.0844
      8 O           2.2009    1.6076    0.7087 O.3     1  LIG1       -0.4933
      9 C           3.3610    1.8017   -0.0784 C.3     1  LIG1        0.0789
     10 H           4.0950    2.2987    0.5583 H       1  LIG1        0.0660
     11 H           3.7721    0.8445   -0.4291 H       1  LIG1        0.0660
     12 H           3.1513    2.4356   -0.9516 H       1  LIG1        0.0660
     13 C          -0.3076    0.9601    2.2109 C.3     1  LIG1       -0.0342
     14 H          -1.0004    0.2323    2.6415 H       1  LIG1        0.0279
     15 H          -0.7466    1.9526    2.3610 H       1  LIG1        0.0279
     16 H           0.6293    0.9220    2.7747 H       1  LIG1        0.0279
     17 C          -3.2801    0.0948    0.5537 C.ar    1  LIG1        0.1268
     18 C          -4.5330   -0.5192    0.6104 C.ar    1  LIG1       -0.0083
     19 C          -2.1980   -0.5714   -0.0500 C.ar    1  LIG1        0.0435
     20 C          -4.7732   -1.7872    0.0714 C.ar    1  LIG1        0.0291
     21 H          -5.3600    0.0035    1.0867 H       1  LIG1        0.0661
     22 C          -2.4418   -1.8425   -0.6067 C.ar    1  LIG1       -0.0067
     23 C          -3.6988   -2.4453   -0.5626 C.ar    1  LIG1        0.1287
     24 H          -1.6040   -2.3615   -1.0560 H       1  LIG1        0.0662
     25 O          -3.0769    1.3554    1.0511 O.3     1  LIG1       -0.5061
     26 H          -3.9063    1.6771    1.4271 H       1  LIG1        0.2922
     27 O          -3.9777   -3.6697   -1.1134 O.3     1  LIG1       -0.4945
     28 C          -2.9382   -4.3583   -1.7869 C.3     1  LIG1        0.0788
     29 H          -3.3809   -5.2853   -2.1542 H       1  LIG1        0.0660
     30 H          -2.5544   -3.7807   -2.6383 H       1  LIG1        0.0660
     31 H          -2.1043   -4.5988   -1.1147 H       1  LIG1        0.0660
     32 C          -6.4493   -3.5481    0.8682 C.ar    1  LIG1        0.0471
     33 C          -6.1427   -2.3687    0.1431 C.ar    1  LIG1        0.0102
     34 C          -7.1977   -1.7042   -0.4760 C.ar    1  LIG1       -0.0084
     35 C          -8.5066   -2.1903   -0.4032 C.ar    1  LIG1        0.1465
     36 C          -8.7152   -3.3833    0.3263 C.ar    1  LIG1        0.1512
     37 N          -7.6939   -4.0150    0.9366 N.ar    1  LIG1       -0.2444
     38 H          -7.0255   -0.7929   -1.0398 H       1  LIG1        0.0661
     39 C          -5.4021   -4.3291    1.6222 C.3     1  LIG1       -0.0217
     40 H          -4.7474   -3.6694    2.2009 H       1  LIG1        0.0293
     41 H          -4.7651   -4.8916    0.9322 H       1  LIG1        0.0293
     42 H          -5.8963   -5.0300    2.2966 H       1  LIG1        0.0293
     43 O          -9.4620   -1.4534   -1.0186 O.3     1  LIG1       -0.5045
     44 H         -10.3113   -1.9386   -1.0747 H       1  LIG1        0.2922
     45 C         -10.0316   -4.0061    0.5089 C.ar    1  LIG1        0.2017
     46 C         -11.2646   -3.8972   -0.0948 C.ar    1  LIG1        0.2095
     47 C         -12.1573   -4.8012    0.5724 C.ar    1  LIG1        0.2004
     48 C         -11.4123   -5.4075    1.5391 C.ar    1  LIG1        0.1380
     49 O         -10.1358   -4.9370    1.5079 O.2     1  LIG1       -0.4537
     50 H         -11.6345   -6.1634    2.2747 H       1  LIG1        0.1069
     51 O         -11.6053   -3.0659   -1.1410 O.3     1  LIG1       -0.4884
     52 C         -11.8381   -3.7553   -2.3878 C.3     1  LIG1        0.0791
     53 H         -12.1185   -2.9894   -3.1122 H       1  LIG1        0.0660
     54 H         -10.9290   -4.2691   -2.7167 H       1  LIG1        0.0660
     55 H         -12.6502   -4.4771   -2.2685 H       1  LIG1        0.0660
     56 O         -13.4616   -5.0499    0.2535 O.3     1  LIG1       -0.4888
     57 C         -14.3444   -3.9476    0.5046 C.3     1  LIG1        0.0791
     58 H         -15.3371   -4.2721    0.1875 H       1  LIG1        0.0660
     59 H         -14.3632   -3.7006    1.5727 H       1  LIG1        0.0660
     60 H         -14.0467   -3.0610   -0.0654 H       1  LIG1        0.0660
@<TRIPOS>BOND
     1    53    52    1
     2    54    52    1
     3    30    28    1
     4    52    55    1
     5    52    51    1
     6     6     5    1
     7    29    28    1
     8     7     1    1
     9    28    31    1
    10    28    27    1
    11     5     1   ar
    12     5     4   ar
    13     1     2   ar
    14    51    46    1
    15    27    23    1
    16    44    43    1
    17    24    22    1
    18    38    34    1
    19    43    35    1
    20    12     9    1
    21    22    23   ar
    22    22    19   ar
    23    23    20   ar
    24    34    35   ar
    25    34    33   ar
    26    11     9    1
    27    35    36   ar
    28     4    19    1
    29     4     3   ar
    30    46    45   ar
    31    46    47   ar
    32     9    10    1
    33     9     8    1
    34    60    57    1
    35    19    17   ar
    36    20    33    1
    37    20    18   ar
    38     2     8    1
    39     2     3   ar
    40    33    32   ar
    41    58    57    1
    42    56    57    1
    43    56    47    1
    44    36    45    1
    45    36    37   ar
    46    57    59    1
    47    45    49   ar
    48    17    18   ar
    49    17    25    1
    50    47    48   ar
    51    18    21    1
    52     3    13    1
    53    32    37   ar
    54    32    39    1
    55    41    39    1
    56    25    26    1
    57    49    48   ar
    58    48    50    1
    59    39    40    1
    60    39    42    1
    61    13    15    1
    62    13    14    1
    63    13    16    1
