@<TRIPOS>MOLECULE
mol_data/opt/cam/geoms/mol2/13li4fl-6if-12ll-.out
 54 57 0 0 0
SMALL
GASTEIGER

@<TRIPOS>ATOM
      1 C           1.4868    0.1179    0.8169 C.ar    1  LIG1        0.0463
      2 C           1.1766    1.0923   -0.1157 C.ar    1  LIG1        0.1585
      3 C          -0.1635    0.8976   -0.5373 C.ar    1  LIG1        0.0925
      4 C          -0.6613   -0.2124    0.1628 C.ar    1  LIG1        0.0738
      5 N           0.3722   -0.6622    0.9706 N.ar    1  LIG1       -0.3560
      6 H           0.3183   -1.5043    1.5221 H       1  LIG1        0.1655
      7 H           2.3956   -0.0816    1.3613 H       1  LIG1        0.0845
      8 O           1.9319    2.1110   -0.6257 O.3     1  LIG1       -0.4918
      9 C           3.2533    2.1991   -0.1210 C.3     1  LIG1        0.0789
     10 H           3.7232    3.0511   -0.6147 H       1  LIG1        0.0660
     11 H           3.2537    2.3625    0.9653 H       1  LIG1        0.0660
     12 H           3.8264    1.2884   -0.3436 H       1  LIG1        0.0660
     13 N          -0.8224    1.7292   -1.4649 N.pl3   1  LIG1       -0.3535
     14 H          -0.1725    2.4159   -1.8342 H       1  LIG1        0.1425
     15 H          -1.2261    1.2110   -2.2399 H       1  LIG1        0.1425
     16 C          -2.3244   -2.1015    0.6414 C.ar    1  LIG1        0.1231
     17 C          -1.9896   -0.8046    0.1455 C.ar    1  LIG1        0.0352
     18 C          -3.0676   -0.0761   -0.3872 C.ar    1  LIG1       -0.0323
     19 C          -4.3645   -0.5946   -0.4277 C.ar    1  LIG1        0.0545
     20 C          -4.5867   -1.8824    0.1406 C.ar    1  LIG1        0.1265
     21 N          -3.5714   -2.5937    0.6424 N.ar    1  LIG1       -0.2333
     22 H          -2.8934    0.9203   -0.7752 H       1  LIG1        0.0638
     23 C          -1.3503   -3.0051    1.1909 C.1     1  LIG1       -0.0491
     24 C          -0.5574   -3.7894    1.6642 C.1     1  LIG1       -0.1124
     25 H           0.1182   -4.5110    2.0626 H       1  LIG1        0.1232
     26 C          -5.3945    0.1574   -1.0653 C.1     1  LIG1       -0.0674
     27 C          -6.2408    0.8150   -1.6271 C.1     1  LIG1       -0.1138
     28 H          -7.0069    1.3748   -2.1113 H       1  LIG1        0.1232
     29 C          -5.8988   -2.5247    0.1790 C.ar    1  LIG1        0.2004
     30 C          -7.1961   -2.1204    0.4338 C.ar    1  LIG1        0.2102
     31 C          -8.0191   -3.2902    0.3604 C.ar    1  LIG1        0.2118
     32 C          -7.1809   -4.3390    0.0598 C.ar    1  LIG1        0.2195
     33 O          -5.8965   -3.8857   -0.0253 O.2     1  LIG1       -0.4424
     34 O          -7.7118   -0.9005    0.7447 O.3     1  LIG1       -0.4884
     35 C          -7.1194   -0.2274    1.8593 C.3     1  LIG1        0.0791
     36 H          -7.7576    0.6336    2.0656 H       1  LIG1        0.0660
     37 H          -7.0898   -0.8828    2.7370 H       1  LIG1        0.0660
     38 H          -6.1089    0.1246    1.6309 H       1  LIG1        0.0660
     39 O          -9.3408   -3.3809    0.6578 O.3     1  LIG1       -0.4883
     40 C         -10.2112   -2.6712   -0.2325 C.3     1  LIG1        0.0791
     41 H         -11.2184   -2.7897    0.1716 H       1  LIG1        0.0660
     42 H          -9.9531   -1.6083   -0.2706 H       1  LIG1        0.0660
     43 H         -10.1694   -3.1059   -1.2373 H       1  LIG1        0.0660
     44 C          -7.4257   -5.7333   -0.1738 C.ar    1  LIG1        0.2158
     45 C          -8.5110   -6.4324   -0.6424 C.ar    1  LIG1        0.1816
     46 C          -8.1466   -7.8276   -0.6502 C.ar    1  LIG1        0.1045
     47 C          -6.8527   -7.8687   -0.1932 C.ar    1  LIG1        0.1118
     48 O          -6.4094   -6.6311    0.0988 O.2     1  LIG1       -0.4546
     49 H          -6.1613   -8.6817   -0.0385 H       1  LIG1        0.1043
     50 O          -9.6910   -5.9126   -1.0539 O.3     1  LIG1       -0.5023
     51 H         -10.2513   -6.6478   -1.3448 H       1  LIG1        0.2923
     52 C          -8.9969   -8.8769   -1.0753 C.1     1  LIG1       -0.0628
     53 C          -9.7842   -9.7153   -1.4557 C.1     1  LIG1       -0.1137
     54 H         -10.4525  -10.4782   -1.7824 H       1  LIG1        0.1232
@<TRIPOS>BOND
     1    15    13    1
     2    28    27    1
     3    14    13    1
     4    54    53    1
     5    27    26    3
     6    13     3    1
     7    53    52    3
     8    51    50    1
     9    43    40    1
    10    52    46    1
    11    26    19    1
    12    50    45    1
    13    22    18    1
    14    46    45   ar
    15    46    47   ar
    16    45    44   ar
    17     8     9    1
    18     8     2    1
    19    10     9    1
    20     3     2   ar
    21     3     4   ar
    22    19    18   ar
    23    19    20   ar
    24    18    17   ar
    25    12     9    1
    26    42    40    1
    27    40    41    1
    28    40    39    1
    29    47    49    1
    30    47    48   ar
    31    44    32    1
    32    44    48   ar
    33     9    11    1
    34     2     1   ar
    35    33    32   ar
    36    33    29   ar
    37    32    31   ar
    38    20    29    1
    39    20    21   ar
    40    17     4    1
    41    17    16   ar
    42     4     5   ar
    43    29    30   ar
    44    31    30   ar
    45    31    39    1
    46    30    34    1
    47    16    21   ar
    48    16    23    1
    49    34    35    1
    50     1     5   ar
    51     1     7    1
    52     5     6    1
    53    23    24    3
    54    38    35    1
    55    24    25    1
    56    35    36    1
    57    35    37    1
