@<TRIPOS>MOLECULE
mol_data/opt/cam/geoms/mol2/13li13li-13li-13li.out
 62 65 0 0 0
SMALL
GASTEIGER

@<TRIPOS>ATOM
      1 C           1.1166   -0.6385   -0.0404 C.ar    1  LIG1        0.0447
      2 C           0.7804    0.4421   -0.8232 C.ar    1  LIG1        0.1408
      3 C          -0.6346    0.5267   -0.9143 C.ar    1  LIG1        0.0180
      4 C          -1.1269   -0.5285   -0.1637 C.ar    1  LIG1        0.0730
      5 N          -0.0649   -1.2213    0.3505 N.ar    1  LIG1       -0.3561
      6 H          -0.1870   -2.0137    0.9622 H       1  LIG1        0.1655
      7 H           2.0716   -1.0333    0.2631 H       1  LIG1        0.0844
      8 O           1.5920    1.3331   -1.4555 O.3     1  LIG1       -0.4933
      9 C           2.9710    1.1091   -1.2852 C.3     1  LIG1        0.0789
     10 H           3.4924    1.8875   -1.8430 H       1  LIG1        0.0660
     11 H           3.2566    1.1688   -0.2269 H       1  LIG1        0.0660
     12 H           3.2659    0.1254   -1.6732 H       1  LIG1        0.0660
     13 C          -1.3859    1.5630   -1.6905 C.3     1  LIG1       -0.0342
     14 H          -1.9256    2.2663   -1.0441 H       1  LIG1        0.0279
     15 H          -2.1094    1.1183   -2.3839 H       1  LIG1        0.0279
     16 H          -0.6877    2.1530   -2.2869 H       1  LIG1        0.0279
     17 C          -2.4740   -0.9662    0.1237 C.ar    1  LIG1        0.1062
     18 C          -2.9134   -2.1155    0.7512 C.ar    1  LIG1        0.1502
     19 C          -4.3298   -2.1006    0.8373 C.ar    1  LIG1        0.0187
     20 C          -4.7326   -0.9212    0.2363 C.ar    1  LIG1        0.0735
     21 N          -3.6031   -0.2427   -0.1726 N.ar    1  LIG1       -0.3486
     22 H          -3.6115    0.5998   -0.7228 H       1  LIG1        0.1661
     23 O          -2.0732   -3.0801    1.2645 O.3     1  LIG1       -0.4927
     24 C          -2.0551   -4.2821    0.5045 C.3     1  LIG1        0.0789
     25 H          -1.3689   -4.9657    1.0075 H       1  LIG1        0.0660
     26 H          -3.0487   -4.7397    0.4620 H       1  LIG1        0.0660
     27 H          -1.7052   -4.0956   -0.5172 H       1  LIG1        0.0660
     28 C          -5.1870   -3.1196    1.5159 C.3     1  LIG1       -0.0341
     29 H          -4.6302   -3.6000    2.3251 H       1  LIG1        0.0279
     30 H          -5.5284   -3.9040    0.8317 H       1  LIG1        0.0279
     31 H          -6.0838   -2.6583    1.9340 H       1  LIG1        0.0279
     32 C          -6.0525   -0.3534    0.0550 C.ar    1  LIG1        0.1062
     33 C          -7.2665   -0.9297   -0.2755 C.ar    1  LIG1        0.1502
     34 C          -8.2617    0.0796   -0.3412 C.ar    1  LIG1        0.0187
     35 C          -7.6193    1.2710   -0.0472 C.ar    1  LIG1        0.0735
     36 N          -6.2940    0.9962    0.1725 N.ar    1  LIG1       -0.3486
     37 H          -5.6506    1.7026    0.5007 H       1  LIG1        0.1661
     38 O          -7.5114   -2.2578   -0.5051 O.3     1  LIG1       -0.4927
     39 C          -6.9767   -2.7451   -1.7262 C.3     1  LIG1        0.0789
     40 H          -7.2957   -3.7850   -1.8171 H       1  LIG1        0.0660
     41 H          -7.3575   -2.1736   -2.5809 H       1  LIG1        0.0660
     42 H          -5.8823   -2.7008   -1.7269 H       1  LIG1        0.0660
     43 C          -9.7045   -0.1555   -0.6590 C.3     1  LIG1       -0.0341
     44 H          -9.9005   -1.2295   -0.6766 H       1  LIG1        0.0279
     45 H          -9.9905    0.2397   -1.6421 H       1  LIG1        0.0279
     46 H         -10.3698    0.2894    0.0892 H       1  LIG1        0.0279
     47 C          -8.0933    2.6310    0.0734 C.ar    1  LIG1        0.1057
     48 C          -7.4476    3.7454    0.5730 C.ar    1  LIG1        0.1495
     49 C          -8.2990    4.8773    0.4486 C.ar    1  LIG1        0.0092
     50 C          -9.4542    4.4091   -0.1293 C.ar    1  LIG1        0.0087
     51 N          -9.3262    3.0627   -0.3496 N.ar    1  LIG1       -0.3563
     52 H         -10.0056    2.4792   -0.8065 H       1  LIG1        0.1655
     53 H         -10.3544    4.9373   -0.4051 H       1  LIG1        0.0811
     54 O          -6.1597    3.7292    1.0655 O.3     1  LIG1       -0.4927
     55 C          -6.0849    3.8406    2.4825 C.3     1  LIG1        0.0789
     56 H          -5.0273    3.8014    2.7483 H       1  LIG1        0.0660
     57 H          -6.5060    4.7897    2.8290 H       1  LIG1        0.0660
     58 H          -6.6176    3.0163    2.9695 H       1  LIG1        0.0660
     59 C          -7.9843    6.2837    0.8497 C.3     1  LIG1       -0.0348
     60 H          -8.6506    6.9923    0.3524 H       1  LIG1        0.0279
     61 H          -6.9566    6.5437    0.5810 H       1  LIG1        0.0279
     62 H          -8.0876    6.4417    1.9291 H       1  LIG1        0.0279
@<TRIPOS>BOND
     1    41    39    1
     2    15    13    1
     3    16    13    1
     4    10     9    1
     5    40    39    1
     6    42    39    1
     7    39    38    1
     8    13    14    1
     9    13     3    1
    10    12     9    1
    11    45    43    1
    12     8     9    1
    13     8     2    1
    14     9    11    1
    15     3     2   ar
    16     3     4   ar
    17     2     1   ar
    18    52    51    1
    19    22    21    1
    20    44    43    1
    21    43    34    1
    22    43    46    1
    23    27    24    1
    24    38    33    1
    25    53    50    1
    26    51    50   ar
    27    51    47   ar
    28    34    33   ar
    29    34    35   ar
    30    33    32   ar
    31    21    17   ar
    32    21    20   ar
    33     4    17    1
    34     4     5   ar
    35    50    49   ar
    36    35    47    1
    37    35    36   ar
    38     1     7    1
    39     1     5   ar
    40    32    36   ar
    41    32    20    1
    42    47    48   ar
    43    17    18   ar
    44    36    37    1
    45    20    19   ar
    46     5     6    1
    47    60    59    1
    48    49    48   ar
    49    49    59    1
    50    26    24    1
    51    24    25    1
    52    24    23    1
    53    48    54    1
    54    61    59    1
    55    18    19   ar
    56    18    23    1
    57    30    28    1
    58    19    28    1
    59    59    62    1
    60    54    55    1
    61    28    31    1
    62    28    29    1
    63    55    56    1
    64    55    57    1
    65    55    58    1
