@<TRIPOS>MOLECULE
mol_data/opt/cam/geoms/mol2/13li13li13li13li-.out
 62 65 0 0 0
SMALL
GASTEIGER

@<TRIPOS>ATOM
      1 C           0.5588    1.5553   -1.1405 C.ar    1  LIG1        0.0447
      2 C           1.1177    0.6884   -0.2296 C.ar    1  LIG1        0.1408
      3 C           0.1777   -0.3317    0.0764 C.ar    1  LIG1        0.0180
      4 C          -0.9494   -0.0483   -0.6779 C.ar    1  LIG1        0.0730
      5 N          -0.7078    1.0890   -1.3987 N.ar    1  LIG1       -0.3561
      6 H          -1.3790    1.4620   -2.0525 H       1  LIG1        0.1655
      7 H           0.9442    2.4425   -1.6141 H       1  LIG1        0.0844
      8 O           2.3496    0.7215    0.3476 O.3     1  LIG1       -0.4933
      9 C           3.1640    1.8002   -0.0456 C.3     1  LIG1        0.0789
     10 H           4.1076    1.7007    0.4915 H       1  LIG1        0.0660
     11 H           3.3581    1.7795   -1.1259 H       1  LIG1        0.0660
     12 H           2.7010    2.7625    0.2095 H       1  LIG1        0.0660
     13 C           0.4109   -1.4555    1.0371 C.3     1  LIG1       -0.0342
     14 H          -0.3805   -1.5268    1.7926 H       1  LIG1        0.0279
     15 H           1.3512   -1.2958    1.5681 H       1  LIG1        0.0279
     16 H           0.4892   -2.4290    0.5358 H       1  LIG1        0.0279
     17 C          -2.2243   -0.7176   -0.7995 C.ar    1  LIG1        0.1062
     18 C          -3.3722   -0.3211   -1.4571 C.ar    1  LIG1        0.1502
     19 C          -4.3664   -1.3261   -1.3302 C.ar    1  LIG1        0.0187
     20 C          -3.7937   -2.3302   -0.5694 C.ar    1  LIG1        0.0735
     21 N          -2.4999   -1.9555   -0.2727 N.ar    1  LIG1       -0.3486
     22 H          -1.8886   -2.4610    0.3459 H       1  LIG1        0.1661
     23 O          -3.4800    0.8502   -2.1751 O.3     1  LIG1       -0.4927
     24 C          -4.2936    1.8315   -1.5445 C.3     1  LIG1        0.0789
     25 H          -4.3108    2.7012   -2.2037 H       1  LIG1        0.0660
     26 H          -5.3168    1.4685   -1.4046 H       1  LIG1        0.0660
     27 H          -3.8810    2.1167   -0.5701 H       1  LIG1        0.0660
     28 C          -5.7180   -1.3219   -1.9683 C.3     1  LIG1       -0.0341
     29 H          -6.4871   -0.8845   -1.3222 H       1  LIG1        0.0279
     30 H          -6.0433   -2.3383   -2.1981 H       1  LIG1        0.0279
     31 H          -5.6935   -0.7441   -2.8962 H       1  LIG1        0.0279
     32 C          -4.3121   -3.6127   -0.1425 C.ar    1  LIG1        0.1062
     33 C          -5.5639   -4.0063    0.2957 C.ar    1  LIG1        0.1502
     34 C          -5.5362   -5.3908    0.6083 C.ar    1  LIG1        0.0187
     35 C          -4.2435   -5.8166    0.3534 C.ar    1  LIG1        0.0735
     36 N          -3.5167   -4.7352   -0.0773 N.ar    1  LIG1       -0.3486
     37 H          -2.5907   -4.8390   -0.4678 H       1  LIG1        0.1661
     38 O          -6.6768   -3.2207    0.4356 O.3     1  LIG1       -0.4927
     39 C          -6.5882   -2.2604    1.4774 C.3     1  LIG1        0.0789
     40 H          -7.5577   -1.7616    1.5280 H       1  LIG1        0.0660
     41 H          -6.3772   -2.7408    2.4400 H       1  LIG1        0.0660
     42 H          -5.8097   -1.5185    1.2707 H       1  LIG1        0.0660
     43 C          -6.7017   -6.1776    1.1183 C.3     1  LIG1       -0.0341
     44 H          -6.4765   -6.6942    2.0583 H       1  LIG1        0.0279
     45 H          -7.0498   -6.9259    0.3953 H       1  LIG1        0.0279
     46 H          -7.5408   -5.5039    1.3024 H       1  LIG1        0.0279
     47 C          -3.6052   -7.1088    0.4536 C.ar    1  LIG1        0.1057
     48 C          -2.2800   -7.4519    0.2653 C.ar    1  LIG1        0.1495
     49 C          -2.1294   -8.8557    0.4283 C.ar    1  LIG1        0.0092
     50 C          -3.3858   -9.3313    0.7157 C.ar    1  LIG1        0.0087
     51 N          -4.2651   -8.2801    0.7323 N.ar    1  LIG1       -0.3563
     52 H          -5.2577   -8.3527    0.8742 H       1  LIG1        0.1655
     53 H          -3.7190  -10.3409    0.9029 H       1  LIG1        0.0811
     54 O          -1.2935   -6.5525   -0.0800 O.3     1  LIG1       -0.4927
     55 C          -0.4285   -6.2086    0.9947 C.3     1  LIG1        0.0789
     56 H           0.3018   -5.4990    0.6007 H       1  LIG1        0.0660
     57 H          -0.9868   -5.7462    1.8169 H       1  LIG1        0.0660
     58 H           0.1005   -7.0873    1.3776 H       1  LIG1        0.0660
     59 C          -0.8628   -9.6397    0.2922 C.3     1  LIG1       -0.0348
     60 H          -0.2211   -9.5491    1.1758 H       1  LIG1        0.0279
     61 H          -0.2819   -9.2928   -0.5669 H       1  LIG1        0.0279
     62 H          -1.0717  -10.7025    0.1496 H       1  LIG1        0.0279
@<TRIPOS>BOND
     1    31    28    1
     2    25    24    1
     3    30    28    1
     4    23    24    1
     5    23    18    1
     6     6     5    1
     7    28    19    1
     8    28    29    1
     9     7     1    1
    10    24    26    1
    11    24    27    1
    12    18    19   ar
    13    18    17   ar
    14     5     1   ar
    15     5     4   ar
    16    19    20   ar
    17     1     2   ar
    18    11     9    1
    19    17     4    1
    20    17    21   ar
    21     4     3   ar
    22    20    21   ar
    23    20    32    1
    24    61    59    1
    25    37    36    1
    26    21    22    1
    27     2     3   ar
    28     2     8    1
    29    32    36   ar
    30    32    33   ar
    31    54    48    1
    32    54    55    1
    33    36    35   ar
    34     9    12    1
    35     9     8    1
    36     9    10    1
    37     3    13    1
    38    62    59    1
    39    48    49   ar
    40    48    47   ar
    41    59    49    1
    42    59    60    1
    43    33    38    1
    44    33    34   ar
    45    35    47    1
    46    35    34   ar
    47    45    43    1
    48    49    50   ar
    49    38    39    1
    50    47    51   ar
    51    16    13    1
    52    56    55    1
    53    34    43    1
    54    50    51   ar
    55    50    53    1
    56    51    52    1
    57    55    58    1
    58    55    57    1
    59    13    15    1
    60    13    14    1
    61    43    46    1
    62    43    44    1
    63    42    39    1
    64    39    40    1
    65    39    41    1
