@<TRIPOS>MOLECULE
mol_data/opt/cam/geoms/mol2/13li6dl-12da-4ae.out
 51 54 0 0 0
SMALL
GASTEIGER

@<TRIPOS>ATOM
      1 C           1.4126   -0.2328   -0.2221 C.ar    1  LIG1        0.0446
      2 C           0.9539    1.0467    0.0022 C.ar    1  LIG1        0.1408
      3 C          -0.4556    1.0121    0.1174 C.ar    1  LIG1        0.0165
      4 C          -0.8287   -0.3213   -0.0462 C.ar    1  LIG1        0.0558
      5 N           0.3196   -1.0499   -0.2486 N.ar    1  LIG1       -0.3573
      6 H           0.3641   -2.0516   -0.3450 H       1  LIG1        0.1655
      7 H           2.4077   -0.6220   -0.3603 H       1  LIG1        0.0844
      8 O           1.6527    2.2037    0.1223 O.3     1  LIG1       -0.4933
      9 C           3.0553    2.0705    0.0580 C.3     1  LIG1        0.0789
     10 H           3.4744    3.0679    0.1894 H       1  LIG1        0.0660
     11 H           3.4286    1.4116    0.8520 H       1  LIG1        0.0660
     12 H           3.3724    1.6705   -0.9134 H       1  LIG1        0.0660
     13 C          -1.2803    2.2228    0.4243 C.3     1  LIG1       -0.0342
     14 H          -2.0961    2.0001    1.1170 H       1  LIG1        0.0279
     15 H          -1.7157    2.6752   -0.4746 H       1  LIG1        0.0279
     16 H          -0.6446    2.9825    0.8829 H       1  LIG1        0.0279
     17 C          -2.4378   -2.2669    0.2860 C.ar    1  LIG1        0.1501
     18 C          -2.1587   -0.9178   -0.0222 C.ar    1  LIG1        0.0380
     19 C          -3.2781   -0.1326   -0.3319 C.ar    1  LIG1       -0.0059
     20 C          -4.5537   -0.6675   -0.2927 C.ar    1  LIG1        0.1497
     21 C          -4.7166   -2.0230    0.0734 C.ar    1  LIG1        0.1502
     22 N          -3.6649   -2.7847    0.3295 N.ar    1  LIG1       -0.2289
     23 H          -3.1352    0.8906   -0.6439 H       1  LIG1        0.0662
     24 N          -0.5248   -3.9526    0.7854 N.1     1  LIG1       -0.1893
     25 C          -1.3894   -3.2102    0.5835 C.1     1  LIG1        0.1198
     26 O          -5.6698   -0.0019   -0.6131 O.3     1  LIG1       -0.4928
     27 C          -5.6288    1.4054   -0.7898 C.3     1  LIG1        0.0789
     28 H          -6.6688    1.7204   -0.8497 H       1  LIG1        0.0660
     29 H          -5.1508    1.8930    0.0653 H       1  LIG1        0.0660
     30 H          -5.1003    1.6704   -1.7113 H       1  LIG1        0.0660
     31 C          -6.0289   -2.6657    0.1627 C.ar    1  LIG1        0.1747
     32 C          -7.3255   -2.2590    0.3928 C.ar    1  LIG1        0.0996
     33 C          -8.1279   -3.4427    0.4062 C.ar    1  LIG1        0.0023
     34 C          -7.2826   -4.4838    0.1840 C.ar    1  LIG1        0.1371
     35 O          -6.0171   -4.0099    0.0387 O.2     1  LIG1       -0.4518
     36 N          -8.3285    0.0642    0.8896 N.1     1  LIG1       -0.1907
     37 C          -7.8399   -0.9580    0.6538 C.1     1  LIG1        0.1030
     38 H          -9.1925   -3.4814    0.5746 H       1  LIG1        0.0668
     39 C          -8.7466   -6.4832    0.1176 C.ar    1  LIG1       -0.0510
     40 C          -8.9150   -7.8563    0.0251 C.ar    1  LIG1       -0.0599
     41 C          -7.4640   -5.9280    0.0802 C.ar    1  LIG1        0.0185
     42 C          -7.8152   -8.6922   -0.1087 C.ar    1  LIG1       -0.0463
     43 H          -9.9134   -8.2792    0.0550 H       1  LIG1        0.0618
     44 C          -6.3576   -6.7664   -0.0537 C.ar    1  LIG1       -0.0357
     45 C          -6.5264   -8.1495   -0.1497 C.ar    1  LIG1        0.0254
     46 H          -5.3606   -6.3439   -0.0799 H       1  LIG1        0.0637
     47 H          -7.9425   -9.7660   -0.1826 H       1  LIG1        0.0630
     48 H          -9.6139   -5.8392    0.2150 H       1  LIG1        0.0625
     49 C          -5.3851   -9.0047   -0.2865 C.1     1  LIG1       -0.0696
     50 C          -4.4280   -9.7252   -0.4014 C.1     1  LIG1       -0.1139
     51 H          -3.5761  -10.3578   -0.5009 H       1  LIG1        0.1232
@<TRIPOS>BOND
     1    30    27    1
     2    12     9    1
     3    28    27    1
     4    27    26    1
     5    27    29    1
     6    23    19    1
     7    26    20    1
     8    51    50    1
     9    15    13    1
    10    50    49    3
    11     7     1    1
    12     6     5    1
    13    19    20   ar
    14    19    18   ar
    15    20    21   ar
    16    49    45    1
    17     5     1   ar
    18     5     4   ar
    19     1     2   ar
    20    47    42    1
    21    45    42   ar
    22    45    44   ar
    23    42    40   ar
    24    46    44    1
    25    44    41   ar
    26     4    18    1
    27     4     3   ar
    28    18    17   ar
    29     2     3   ar
    30     2     8    1
    31    40    43    1
    32    40    39   ar
    33    35    31   ar
    34    35    34   ar
    35     9     8    1
    36     9    10    1
    37     9    11    1
    38    21    31    1
    39    21    22   ar
    40    41    39   ar
    41    41    34    1
    42     3    13    1
    43    39    48    1
    44    31    32   ar
    45    34    33   ar
    46    17    22   ar
    47    17    25    1
    48    32    33   ar
    49    32    37    1
    50    33    38    1
    51    13    16    1
    52    13    14    1
    53    25    24    3
    54    37    36    3
