@<TRIPOS>MOLECULE
mol_data/opt/cam/geoms/mol2/13li13li-13li-13li-.out
 62 65 0 0 0
SMALL
GASTEIGER

@<TRIPOS>ATOM
      1 C           0.9415   -0.7578   -0.8535 C.ar    1  LIG1        0.0447
      2 C           0.6240    0.5796   -0.9200 C.ar    1  LIG1        0.1408
      3 C          -0.7585    0.7426   -0.6375 C.ar    1  LIG1        0.0180
      4 C          -1.2514   -0.5312   -0.4069 C.ar    1  LIG1        0.0730
      5 N          -0.2197   -1.4209   -0.5370 N.ar    1  LIG1       -0.3561
      6 H          -0.3492   -2.4149   -0.4267 H       1  LIG1        0.1655
      7 H           1.8715   -1.2810   -0.9997 H       1  LIG1        0.0844
      8 O           1.4275    1.6438   -1.1905 O.3     1  LIG1       -0.4933
      9 C           2.7799    1.3275   -1.4203 C.3     1  LIG1        0.0789
     10 H           3.2989    2.2663   -1.6150 H       1  LIG1        0.0660
     11 H           3.2290    0.8389   -0.5457 H       1  LIG1        0.0660
     12 H           2.8919    0.6650   -2.2885 H       1  LIG1        0.0660
     13 C          -1.4794    2.0532   -0.5935 C.3     1  LIG1       -0.0342
     14 H          -2.1464    2.1229    0.2722 H       1  LIG1        0.0279
     15 H          -2.0771    2.2391   -1.4953 H       1  LIG1        0.0279
     16 H          -0.7583    2.8697   -0.5216 H       1  LIG1        0.0279
     17 C          -2.5735   -1.0119   -0.0761 C.ar    1  LIG1        0.1062
     18 C          -2.9803   -2.2686    0.3231 C.ar    1  LIG1        0.1502
     19 C          -4.3915   -2.2860    0.4843 C.ar    1  LIG1        0.0187
     20 C          -4.8243   -1.0134    0.1634 C.ar    1  LIG1        0.0735
     21 N          -3.7145   -0.2488   -0.1507 N.ar    1  LIG1       -0.3486
     22 H          -3.7641    0.6306   -0.6388 H       1  LIG1        0.1661
     23 O          -2.1255   -3.3328    0.5090 O.3     1  LIG1       -0.4927
     24 C          -1.8330   -3.5981    1.8758 C.3     1  LIG1        0.0789
     25 H          -1.1653   -4.4612    1.8963 H       1  LIG1        0.0660
     26 H          -1.3384   -2.7399    2.3446 H       1  LIG1        0.0660
     27 H          -2.7428   -3.8351    2.4367 H       1  LIG1        0.0660
     28 C          -5.2068   -3.4491    0.9541 C.3     1  LIG1       -0.0341
     29 H          -5.3133   -3.4577    2.0452 H       1  LIG1        0.0279
     30 H          -4.7229   -4.3862    0.6654 H       1  LIG1        0.0279
     31 H          -6.2090   -3.4265    0.5235 H       1  LIG1        0.0279
     32 C          -6.1481   -0.4184    0.1539 C.ar    1  LIG1        0.1062
     33 C          -7.3751   -0.8789   -0.2853 C.ar    1  LIG1        0.1502
     34 C          -8.3553    0.1286   -0.0894 C.ar    1  LIG1        0.0187
     35 C          -7.6978    1.2084    0.4672 C.ar    1  LIG1        0.0735
     36 N          -6.3704    0.8637    0.6058 N.ar    1  LIG1       -0.3486
     37 H          -5.6574    1.4699    0.9765 H       1  LIG1        0.1661
     38 O          -7.6399   -2.1206   -0.8012 O.3     1  LIG1       -0.4927
     39 C          -7.2500   -2.2787   -2.1583 C.3     1  LIG1        0.0789
     40 H          -7.5555   -3.2820   -2.4596 H       1  LIG1        0.0660
     41 H          -7.7462   -1.5402   -2.7983 H       1  LIG1        0.0660
     42 H          -6.1652   -2.1815   -2.2729 H       1  LIG1        0.0660
     43 C          -9.8069    0.0017   -0.4150 C.3     1  LIG1       -0.0341
     44 H         -10.0753   -1.0525   -0.5121 H       1  LIG1        0.0279
     45 H         -10.0570    0.5045   -1.3539 H       1  LIG1        0.0279
     46 H         -10.4287    0.4460    0.3677 H       1  LIG1        0.0279
     47 C          -8.1753    2.5025    0.9186 C.ar    1  LIG1        0.1057
     48 C          -9.0209    3.4292    0.3447 C.ar    1  LIG1        0.1495
     49 C          -9.0824    4.5828    1.1855 C.ar    1  LIG1        0.0092
     50 C          -8.2676    4.3131    2.2558 C.ar    1  LIG1        0.0087
     51 N          -7.7047    3.0771    2.0839 N.ar    1  LIG1       -0.3563
     52 H          -7.2118    2.5648    2.7962 H       1  LIG1        0.1655
     53 H          -8.0372    4.9194    3.1192 H       1  LIG1        0.0811
     54 O          -9.5880    3.2783   -0.8909 O.3     1  LIG1       -0.4927
     55 C         -11.0036    3.3366   -0.9190 C.3     1  LIG1        0.0789
     56 H         -11.3058    3.0963   -1.9396 H       1  LIG1        0.0660
     57 H         -11.4458    2.6075   -0.2308 H       1  LIG1        0.0660
     58 H         -11.3788    4.3338   -0.6668 H       1  LIG1        0.0660
     59 C          -9.8236    5.8571    0.9265 C.3     1  LIG1       -0.0348
     60 H         -10.8989    5.7607    1.1117 H       1  LIG1        0.0279
     61 H          -9.6994    6.1803   -0.1113 H       1  LIG1        0.0279
     62 H          -9.4534    6.6586    1.5703 H       1  LIG1        0.0279
@<TRIPOS>BOND
     1    41    39    1
     2    40    39    1
     3    12     9    1
     4    42    39    1
     5    39    38    1
     6    56    55    1
     7    10     9    1
     8    15    13    1
     9     9     8    1
    10     9    11    1
    11    45    43    1
    12     8     2    1
    13     7     1    1
    14     2     1   ar
    15     2     3   ar
    16    55    54    1
    17    55    58    1
    18    55    57    1
    19    54    48    1
    20     1     5   ar
    21    38    33    1
    22    22    21    1
    23     3    13    1
    24     3     4   ar
    25    13    16    1
    26    13    14    1
    27     5     6    1
    28     5     4   ar
    29    44    43    1
    30    43    34    1
    31    43    46    1
    32     4    17    1
    33    33    34   ar
    34    33    32   ar
    35    21    17   ar
    36    21    20   ar
    37    61    59    1
    38    34    35   ar
    39    17    18   ar
    40    32    20    1
    41    32    36   ar
    42    20    19   ar
    43    18    19   ar
    44    18    23    1
    45    48    47   ar
    46    48    49   ar
    47    35    36   ar
    48    35    47    1
    49    19    28    1
    50    23    24    1
    51    31    28    1
    52    36    37    1
    53    30    28    1
    54    47    51   ar
    55    59    60    1
    56    59    49    1
    57    59    62    1
    58    28    29    1
    59    49    50   ar
    60    24    25    1
    61    24    26    1
    62    24    27    1
    63    51    50   ar
    64    51    52    1
    65    50    53    1
