@<TRIPOS>MOLECULE
mol_data/opt/cam/geoms/mol2/13li13li-13li.out
 47 49 0 0 0
SMALL
GASTEIGER

@<TRIPOS>ATOM
      1 C           1.2248   -0.7028   -0.5386 C.ar    1  LIG1        0.0447
      2 C           0.9070    0.6039   -0.2472 C.ar    1  LIG1        0.1408
      3 C          -0.5005    0.7156   -0.0883 C.ar    1  LIG1        0.0180
      4 C          -1.0080   -0.5556   -0.2972 C.ar    1  LIG1        0.0730
      5 N           0.0391   -1.3985   -0.5597 N.ar    1  LIG1       -0.3561
      6 H          -0.0949   -2.3709   -0.7896 H       1  LIG1        0.1655
      7 H           2.1692   -1.1859   -0.7249 H       1  LIG1        0.0844
      8 O           1.7302    1.6775   -0.1004 O.3     1  LIG1       -0.4933
      9 C           3.1007    1.4054   -0.2679 C.3     1  LIG1        0.0789
     10 H           3.6337    2.3451   -0.1205 H       1  LIG1        0.0660
     11 H           3.4537    0.6690    0.4660 H       1  LIG1        0.0660
     12 H           3.3108    1.0243   -1.2759 H       1  LIG1        0.0660
     13 C          -1.2326    1.9751    0.2539 C.3     1  LIG1       -0.0342
     14 H          -1.9589    1.8193    1.0591 H       1  LIG1        0.0279
     15 H          -1.7706    2.3976   -0.6037 H       1  LIG1        0.0279
     16 H          -0.5233    2.7337    0.5902 H       1  LIG1        0.0279
     17 C          -2.3565   -1.0748   -0.2767 C.ar    1  LIG1        0.1062
     18 C          -2.7945   -2.3865   -0.2869 C.ar    1  LIG1        0.1502
     19 C          -4.2111   -2.4129   -0.3028 C.ar    1  LIG1        0.0187
     20 C          -4.6118   -1.0857   -0.2991 C.ar    1  LIG1        0.0735
     21 N          -3.4858   -0.2998   -0.2801 N.ar    1  LIG1       -0.3486
     22 H          -3.5321    0.7065   -0.3483 H       1  LIG1        0.1661
     23 O          -1.9678   -3.4899   -0.2950 O.3     1  LIG1       -0.4927
     24 C          -1.6872   -3.9922    1.0070 C.3     1  LIG1        0.0789
     25 H          -1.0608   -4.8771    0.8788 H       1  LIG1        0.0660
     26 H          -1.1530   -3.2483    1.6085 H       1  LIG1        0.0660
     27 H          -2.6083   -4.2740    1.5282 H       1  LIG1        0.0660
     28 C          -5.0552   -3.6481   -0.3398 C.3     1  LIG1       -0.0341
     29 H          -5.7282   -3.7247    0.5221 H       1  LIG1        0.0279
     30 H          -4.4149   -4.5328   -0.3390 H       1  LIG1        0.0279
     31 H          -5.6641   -3.7070   -1.2503 H       1  LIG1        0.0279
     32 C          -5.9149   -0.4617   -0.3133 C.ar    1  LIG1        0.1057
     33 C          -6.2517    0.8743   -0.2088 C.ar    1  LIG1        0.1495
     34 C          -7.6625    1.0141   -0.3152 C.ar    1  LIG1        0.0092
     35 C          -8.1492   -0.2595   -0.4813 C.ar    1  LIG1        0.0087
     36 N          -7.0981   -1.1398   -0.4772 N.ar    1  LIG1       -0.3563
     37 H          -7.1702   -2.1322   -0.6179 H       1  LIG1        0.1655
     38 H          -9.1645   -0.6031   -0.6090 H       1  LIG1        0.0811
     39 O          -5.3311    1.8913   -0.0752 O.3     1  LIG1       -0.4927
     40 C          -5.2681    2.4422    1.2346 C.3     1  LIG1        0.0789
     41 H          -4.4980    3.2154    1.2163 H       1  LIG1        0.0660
     42 H          -6.2228    2.8940    1.5231 H       1  LIG1        0.0660
     43 H          -5.0015    1.6754    1.9710 H       1  LIG1        0.0660
     44 C          -8.4391    2.2918   -0.2734 C.3     1  LIG1       -0.0348
     45 H          -9.4381    2.1586   -0.6952 H       1  LIG1        0.0279
     46 H          -7.9328    3.0726   -0.8478 H       1  LIG1        0.0279
     47 H          -8.5639    2.6693    0.7476 H       1  LIG1        0.0279
@<TRIPOS>BOND
     1    12     9    1
     2    31    28    1
     3    46    44    1
     4     6     5    1
     5     7     1    1
     6    45    44    1
     7    37    36    1
     8    38    35    1
     9    15    13    1
    10     5     1   ar
    11     5     4   ar
    12     1     2   ar
    13    35    36   ar
    14    35    34   ar
    15    36    32   ar
    16    22    21    1
    17    28    30    1
    18    28    19    1
    19    28    29    1
    20    34    44    1
    21    34    33   ar
    22    32    20    1
    23    32    33   ar
    24    19    20   ar
    25    19    18   ar
    26    20    21   ar
    27     4    17    1
    28     4     3   ar
    29    23    18    1
    30    23    24    1
    31    18    17   ar
    32    21    17   ar
    33    44    47    1
    34     9    10    1
    35     9     8    1
    36     9    11    1
    37     2     8    1
    38     2     3   ar
    39    33    39    1
    40     3    13    1
    41    39    40    1
    42    13    16    1
    43    13    14    1
    44    25    24    1
    45    24    27    1
    46    24    26    1
    47    41    40    1
    48    40    42    1
    49    40    43    1
