@<TRIPOS>MOLECULE
mol_data/opt/cam/geoms/mol2/13li13li13li.out
 47 49 0 0 0
SMALL
GASTEIGER

@<TRIPOS>ATOM
      1 C           0.7915    1.4629   -1.2203 C.ar    1  LIG1        0.0447
      2 C           1.3382    0.6737   -0.2346 C.ar    1  LIG1        0.1408
      3 C           0.3343   -0.1921    0.2765 C.ar    1  LIG1        0.0180
      4 C          -0.8177    0.1007   -0.4343 C.ar    1  LIG1        0.0730
      5 N          -0.5299    1.0992   -1.3254 N.ar    1  LIG1       -0.3561
      6 H          -1.2135    1.4556   -1.9755 H       1  LIG1        0.1655
      7 H           1.2182    2.2346   -1.8387 H       1  LIG1        0.0844
      8 O           2.6090    0.6580    0.2512 O.3     1  LIG1       -0.4933
      9 C           3.4830    1.5938   -0.3335 C.3     1  LIG1        0.0789
     10 H           4.4519    1.4724    0.1514 H       1  LIG1        0.0660
     11 H           3.5929    1.4167   -1.4113 H       1  LIG1        0.0660
     12 H           3.1269    2.6211   -0.1812 H       1  LIG1        0.0660
     13 C           0.5332   -1.1874    1.3759 C.3     1  LIG1       -0.0342
     14 H          -0.2977   -1.1772    2.0892 H       1  LIG1        0.0279
     15 H           1.4458   -0.9525    1.9273 H       1  LIG1        0.0279
     16 H           0.6451   -2.2140    1.0034 H       1  LIG1        0.0279
     17 C          -2.1550   -0.4436   -0.3772 C.ar    1  LIG1        0.1062
     18 C          -3.3186    0.0136   -0.9613 C.ar    1  LIG1        0.1502
     19 C          -4.3808   -0.8838   -0.6769 C.ar    1  LIG1        0.0187
     20 C          -3.8300   -1.8945    0.0872 C.ar    1  LIG1        0.0735
     21 N          -2.4912   -1.6034    0.2786 N.ar    1  LIG1       -0.3486
     22 H          -1.8161   -2.2828    0.5894 H       1  LIG1        0.1661
     23 O          -3.4130    1.1692   -1.7062 O.3     1  LIG1       -0.4927
     24 C          -3.8152    2.3013   -0.9431 C.3     1  LIG1        0.0789
     25 H          -3.8879    3.1422   -1.6353 H       1  LIG1        0.0660
     26 H          -4.7906    2.1347   -0.4740 H       1  LIG1        0.0660
     27 H          -3.0802    2.5303   -0.1633 H       1  LIG1        0.0660
     28 C          -5.7965   -0.7281   -1.1289 C.3     1  LIG1       -0.0341
     29 H          -6.4953   -0.7152   -0.2857 H       1  LIG1        0.0279
     30 H          -6.0893   -1.5503   -1.7850 H       1  LIG1        0.0279
     31 H          -5.9128    0.2055   -1.6835 H       1  LIG1        0.0279
     32 C          -4.4009   -3.0733    0.7110 C.ar    1  LIG1        0.1057
     33 C          -5.3452   -3.9944    0.3029 C.ar    1  LIG1        0.1495
     34 C          -5.4544   -5.0161    1.2953 C.ar    1  LIG1        0.0092
     35 C          -4.5688   -4.6771    2.2865 C.ar    1  LIG1        0.0087
     36 N          -3.9227   -3.5257    1.9254 N.ar    1  LIG1       -0.3563
     37 H          -3.3424   -2.9721    2.5331 H       1  LIG1        0.1655
     38 H          -4.3416   -5.1811    3.2140 H       1  LIG1        0.0811
     39 O          -5.9706   -3.9680   -0.9147 O.3     1  LIG1       -0.4927
     40 C          -7.3847   -3.8832   -0.8603 C.3     1  LIG1        0.0789
     41 H          -7.7323   -3.7862   -1.8902 H       1  LIG1        0.0660
     42 H          -7.8326   -4.7802   -0.4208 H       1  LIG1        0.0660
     43 H          -7.7084   -3.0081   -0.2853 H       1  LIG1        0.0660
     44 C          -6.3047   -6.2465    1.2380 C.3     1  LIG1       -0.0348
     45 H          -5.9549   -6.9933    1.9548 H       1  LIG1        0.0279
     46 H          -6.2717   -6.6994    0.2427 H       1  LIG1        0.0279
     47 H          -7.3558   -6.0411    1.4684 H       1  LIG1        0.0279
@<TRIPOS>BOND
     1     6     5    1
     2    41    40    1
     3     7     1    1
     4    30    28    1
     5    23    18    1
     6    23    24    1
     7    31    28    1
     8    25    24    1
     9    11     9    1
    10     5     1   ar
    11     5     4   ar
    12     1     2   ar
    13    28    19    1
    14    28    29    1
    15    18    19   ar
    16    18    17   ar
    17    24    26    1
    18    24    27    1
    19    39    40    1
    20    39    33    1
    21    40    42    1
    22    40    43    1
    23    19    20   ar
    24     4    17    1
    25     4     3   ar
    26    17    21   ar
    27     9    12    1
    28     9    10    1
    29     9     8    1
    30     2     8    1
    31     2     3   ar
    32    20    21   ar
    33    20    32    1
    34    46    44    1
    35     3    13    1
    36    21    22    1
    37    33    32   ar
    38    33    34   ar
    39    32    36   ar
    40    16    13    1
    41    44    34    1
    42    44    47    1
    43    44    45    1
    44    34    35   ar
    45    13    15    1
    46    13    14    1
    47    36    35   ar
    48    36    37    1
    49    35    38    1
