@<TRIPOS>MOLECULE
mol_data/opt/cam/geoms/mol2/13li13li13li13li.out
 62 65 0 0 0
SMALL
GASTEIGER

@<TRIPOS>ATOM
      1 C          -0.9392    1.3033   -3.3507 C.ar    1  LIG1        0.0447
      2 C           0.0134    1.7904   -2.4903 C.ar    1  LIG1        0.1408
      3 C          -0.1799    1.2135   -1.2034 C.ar    1  LIG1        0.0180
      4 C          -1.2743    0.3814   -1.3161 C.ar    1  LIG1        0.0730
      5 N          -1.7074    0.4178   -2.6239 N.ar    1  LIG1       -0.3561
      6 H          -2.6097    0.0804   -2.9141 H       1  LIG1        0.1655
      7 H          -1.1244    1.4878   -4.3957 H       1  LIG1        0.0844
      8 O           1.0351    2.6525   -2.7375 O.3     1  LIG1       -0.4933
      9 C           1.1229    3.1094   -4.0658 C.3     1  LIG1        0.0789
     10 H           1.9818    3.7789   -4.1172 H       1  LIG1        0.0660
     11 H           1.2698    2.2757   -4.7650 H       1  LIG1        0.0660
     12 H           0.2184    3.6583   -4.3590 H       1  LIG1        0.0660
     13 C           0.6899    1.4552   -0.0139 C.3     1  LIG1       -0.0342
     14 H           0.8527    0.5318    0.5490 H       1  LIG1        0.0279
     15 H           0.2502    2.1859    0.6716 H       1  LIG1        0.0279
     16 H           1.6623    1.8373   -0.3319 H       1  LIG1        0.0279
     17 C          -1.9441   -0.4804   -0.3602 C.ar    1  LIG1        0.1062
     18 C          -2.2947   -0.3177    0.9668 C.ar    1  LIG1        0.1502
     19 C          -3.0560   -1.4440    1.3894 C.ar    1  LIG1        0.0187
     20 C          -3.1383   -2.2862    0.2933 C.ar    1  LIG1        0.0735
     21 N          -2.4853   -1.6849   -0.7529 N.ar    1  LIG1       -0.3486
     22 H          -2.3077   -2.1589   -1.6264 H       1  LIG1        0.1661
     23 O          -2.0482    0.8069    1.7062 O.3     1  LIG1       -0.4927
     24 C          -1.2076    0.6103    2.8311 C.3     1  LIG1        0.0789
     25 H          -1.0556    1.5917    3.2833 H       1  LIG1        0.0660
     26 H          -1.6636   -0.0544    3.5728 H       1  LIG1        0.0660
     27 H          -0.2383    0.1947    2.5360 H       1  LIG1        0.0660
     28 C          -3.7192   -1.6040    2.7219 C.3     1  LIG1       -0.0341
     29 H          -3.1012   -2.1445    3.4508 H       1  LIG1        0.0279
     30 H          -4.6699   -2.1372    2.6293 H       1  LIG1        0.0279
     31 H          -3.9390   -0.6235    3.1519 H       1  LIG1        0.0279
     32 C          -3.7434   -3.5833    0.1032 C.ar    1  LIG1        0.1062
     33 C          -3.9721   -4.2845   -1.0637 C.ar    1  LIG1        0.1502
     34 C          -4.5316   -5.5527   -0.7586 C.ar    1  LIG1        0.0187
     35 C          -4.6279   -5.6040    0.6182 C.ar    1  LIG1        0.0735
     36 N          -4.1715   -4.3995    1.1242 N.ar    1  LIG1       -0.3486
     37 H          -3.8979   -4.2769    2.0855 H       1  LIG1        0.1661
     38 O          -3.6873   -3.8110   -2.3255 O.3     1  LIG1       -0.4927
     39 C          -4.7840   -3.1478   -2.9419 C.3     1  LIG1        0.0789
     40 H          -5.6508   -3.8116   -3.0271 H       1  LIG1        0.0660
     41 H          -5.0761   -2.2575   -2.3726 H       1  LIG1        0.0660
     42 H          -4.4578   -2.8546   -3.9418 H       1  LIG1        0.0660
     43 C          -4.9269   -6.5938   -1.7546 C.3     1  LIG1       -0.0341
     44 H          -5.9636   -6.9165   -1.6137 H       1  LIG1        0.0279
     45 H          -4.2937   -7.4794   -1.6678 H       1  LIG1        0.0279
     46 H          -4.8239   -6.2039   -2.7695 H       1  LIG1        0.0279
     47 C          -5.1389   -6.6138    1.5251 C.ar    1  LIG1        0.1057
     48 C          -5.0458   -7.9911    1.5485 C.ar    1  LIG1        0.1495
     49 C          -5.6669   -8.4767    2.7397 C.ar    1  LIG1        0.0092
     50 C          -6.1264   -7.3686    3.4052 C.ar    1  LIG1        0.0087
     51 N          -5.7896   -6.2519    2.6887 N.ar    1  LIG1       -0.3563
     52 H          -6.1409   -5.3250    2.8619 H       1  LIG1        0.1655
     53 H          -6.6545   -7.2948    4.3442 H       1  LIG1        0.0811
     54 O          -4.3560   -8.7287    0.6248 O.3     1  LIG1       -0.4927
     55 C          -5.1245   -9.6994   -0.0658 C.3     1  LIG1        0.0789
     56 H          -4.4697  -10.1370   -0.8212 H       1  LIG1        0.0660
     57 H          -5.4746  -10.4949    0.5997 H       1  LIG1        0.0660
     58 H          -5.9908   -9.2434   -0.5585 H       1  LIG1        0.0660
     59 C          -5.7404   -9.8961    3.2090 C.3     1  LIG1       -0.0348
     60 H          -5.9750   -9.9404    4.2752 H       1  LIG1        0.0279
     61 H          -4.7862  -10.4090    3.0568 H       1  LIG1        0.0279
     62 H          -6.5086  -10.4723    2.6821 H       1  LIG1        0.0279
@<TRIPOS>BOND
     1    11     9    1
     2     7     1    1
     3    12     9    1
     4    10     9    1
     5     9     8    1
     6    42    39    1
     7     1     5   ar
     8     1     2   ar
     9    40    39    1
    10    39    41    1
    11    39    38    1
    12     6     5    1
    13    46    43    1
    14     8     2    1
    15     5     4   ar
    16     2     3   ar
    17    38    33    1
    18    43    45    1
    19    43    44    1
    20    43    34    1
    21    22    21    1
    22     4     3   ar
    23     4    17    1
    24     3    13    1
    25    33    34   ar
    26    33    32   ar
    27    56    55    1
    28    34    35   ar
    29    21    17   ar
    30    21    20   ar
    31    58    55    1
    32    17    18   ar
    33    16    13    1
    34    55    57    1
    35    55    54    1
    36    13    14    1
    37    13    15    1
    38    32    20    1
    39    32    36   ar
    40    20    19   ar
    41    35    36   ar
    42    35    47    1
    43    54    48    1
    44    18    19   ar
    45    18    23    1
    46    36    37    1
    47    19    28    1
    48    47    48   ar
    49    47    51   ar
    50    48    49   ar
    51    23    24    1
    52    27    24    1
    53    30    28    1
    54    62    59    1
    55    51    52    1
    56    51    50   ar
    57    28    31    1
    58    28    29    1
    59    49    59    1
    60    49    50   ar
    61    24    25    1
    62    24    26    1
    63    61    59    1
    64    59    60    1
    65    50    53    1
