@<TRIPOS>MOLECULE
mol_data/opt/cam/geoms/mol2/13li13li13li-13li-.out
 62 65 0 0 0
SMALL
GASTEIGER

@<TRIPOS>ATOM
      1 C           0.5318    1.3587   -1.2160 C.ar    1  LIG1        0.0447
      2 C           1.1681    0.3545   -0.5232 C.ar    1  LIG1        0.1408
      3 C           0.2127   -0.6266   -0.1448 C.ar    1  LIG1        0.0180
      4 C          -1.0034   -0.1807   -0.6341 C.ar    1  LIG1        0.0730
      5 N          -0.7985    1.0159   -1.2686 N.ar    1  LIG1       -0.3561
      6 H          -1.5375    1.5070   -1.7471 H       1  LIG1        0.1655
      7 H           0.9016    2.2666   -1.6622 H       1  LIG1        0.0844
      8 O           2.4826    0.2367   -0.1917 O.3     1  LIG1       -0.4933
      9 C           3.3026    1.2989   -0.6159 C.3     1  LIG1        0.0789
     10 H           4.3152    1.0750   -0.2792 H       1  LIG1        0.0660
     11 H           3.2977    1.3940   -1.7096 H       1  LIG1        0.0660
     12 H           2.9774    2.2524   -0.1794 H       1  LIG1        0.0660
     13 C           0.5129   -1.8650    0.6400 C.3     1  LIG1       -0.0342
     14 H          -0.1993   -2.0120    1.4593 H       1  LIG1        0.0279
     15 H           1.5101   -1.7910    1.0780 H       1  LIG1        0.0279
     16 H           0.5014   -2.7706    0.0214 H       1  LIG1        0.0279
     17 C          -2.3346   -0.7394   -0.5738 C.ar    1  LIG1        0.1062
     18 C          -3.5479   -0.1567   -0.8928 C.ar    1  LIG1        0.1502
     19 C          -4.5885   -1.1016   -0.7158 C.ar    1  LIG1        0.0187
     20 C          -3.9709   -2.2646   -0.2811 C.ar    1  LIG1        0.0735
     21 N          -2.6203   -2.0256   -0.1987 N.ar    1  LIG1       -0.3486
     22 H          -1.9568   -2.7522    0.0272 H       1  LIG1        0.1661
     23 O          -3.7052    1.1433   -1.3244 O.3     1  LIG1       -0.4927
     24 C          -3.9494    2.0620   -0.2647 C.3     1  LIG1        0.0789
     25 H          -4.0982    3.0424   -0.7211 H       1  LIG1        0.0660
     26 H          -4.8473    1.7852    0.2981 H       1  LIG1        0.0660
     27 H          -3.0980    2.1031    0.4237 H       1  LIG1        0.0660
     28 C          -6.0409   -0.8550   -0.9771 C.3     1  LIG1       -0.0341
     29 H          -6.6659   -1.0821   -0.1064 H       1  LIG1        0.0279
     30 H          -6.4174   -1.4430   -1.8237 H       1  LIG1        0.0279
     31 H          -6.1982    0.1938   -1.2374 H       1  LIG1        0.0279
     32 C          -4.4858   -3.5686    0.0586 C.ar    1  LIG1        0.1062
     33 C          -3.8366   -4.6564    0.6080 C.ar    1  LIG1        0.1502
     34 C          -4.7369   -5.7486    0.7111 C.ar    1  LIG1        0.0187
     35 C          -5.9426   -5.2960    0.2113 C.ar    1  LIG1        0.0735
     36 N          -5.7826   -3.9716   -0.1564 N.ar    1  LIG1       -0.3486
     37 H          -6.4256   -3.4866   -0.7605 H       1  LIG1        0.1661
     38 O          -2.5120   -4.6580    0.9860 O.3     1  LIG1       -0.4927
     39 C          -2.3160   -4.4018    2.3725 C.3     1  LIG1        0.0789
     40 H          -1.2405   -4.4421    2.5535 H       1  LIG1        0.0660
     41 H          -2.6974   -3.4115    2.6465 H       1  LIG1        0.0660
     42 H          -2.8154   -5.1567    2.9887 H       1  LIG1        0.0660
     43 C          -4.4069   -7.0998    1.2574 C.3     1  LIG1       -0.0341
     44 H          -3.3611   -7.1328    1.5701 H       1  LIG1        0.0279
     45 H          -4.5587   -7.8719    0.5007 H       1  LIG1        0.0279
     46 H          -5.0305   -7.3566    2.1205 H       1  LIG1        0.0279
     47 C          -7.2468   -5.9179    0.0813 C.ar    1  LIG1        0.1057
     48 C          -7.6597   -7.1858   -0.2778 C.ar    1  LIG1        0.1495
     49 C          -9.0872   -7.2113   -0.3265 C.ar    1  LIG1        0.0092
     50 C          -9.5005   -5.9485    0.0136 C.ar    1  LIG1        0.0087
     51 N          -8.3974   -5.1685    0.2351 N.ar    1  LIG1       -0.3563
     52 H          -8.4098   -4.2553    0.6574 H       1  LIG1        0.1655
     53 H         -10.4988   -5.5456    0.0973 H       1  LIG1        0.0811
     54 O          -6.8132   -8.1998   -0.6373 O.3     1  LIG1       -0.4927
     55 C          -6.9026   -9.3666    0.1634 C.3     1  LIG1        0.0789
     56 H          -6.1208  -10.0445   -0.1831 H       1  LIG1        0.0660
     57 H          -6.7379   -9.1352    1.2220 H       1  LIG1        0.0660
     58 H          -7.8720   -9.8637    0.0568 H       1  LIG1        0.0660
     59 C          -9.9580   -8.3575   -0.7366 C.3     1  LIG1       -0.0348
     60 H         -10.0668   -9.1057    0.0562 H       1  LIG1        0.0279
     61 H          -9.5467   -8.8679   -1.6123 H       1  LIG1        0.0279
     62 H         -10.9610   -8.0096   -0.9950 H       1  LIG1        0.0279
@<TRIPOS>BOND
     1    30    28    1
     2     6     5    1
     3    11     9    1
     4     7     1    1
     5    61    59    1
     6    23    18    1
     7    23    24    1
     8     5     1   ar
     9     5     4   ar
    10    31    28    1
    11     1     2   ar
    12    62    59    1
    13    28    19    1
    14    28    29    1
    15    18    19   ar
    16    18    17   ar
    17    37    36    1
    18    59    49    1
    19    59    60    1
    20    25    24    1
    21    19    20   ar
    22    54    48    1
    23    54    55    1
    24     4    17    1
    25     4     3   ar
    26     9    10    1
    27     9     8    1
    28     9    12    1
    29    17    21   ar
    30     2     8    1
    31     2     3   ar
    32    49    48   ar
    33    49    50   ar
    34    20    21   ar
    35    20    32    1
    36    48    47   ar
    37    24    26    1
    38    24    27    1
    39    21    22    1
    40    56    55    1
    41    36    32   ar
    42    36    35   ar
    43     3    13    1
    44    50    53    1
    45    50    51   ar
    46    16    13    1
    47    58    55    1
    48    32    33   ar
    49    47    35    1
    50    47    51   ar
    51    55    57    1
    52    35    34   ar
    53    51    52    1
    54    45    43    1
    55    33    34   ar
    56    33    38    1
    57    13    15    1
    58    13    14    1
    59    34    43    1
    60    38    39    1
    61    43    44    1
    62    43    46    1
    63    39    40    1
    64    39    41    1
    65    39    42    1
