@<TRIPOS>MOLECULE
mol_data/opt/cam/geoms/mol2/13ll4ah-12le4di4aa12ea-4dd-4if.out
 102 109 0 0 0
SMALL
GASTEIGER

@<TRIPOS>ATOM
      1 C           1.5353    0.6960    0.8215 C.ar    1  LIG1        0.0481
      2 C           1.0110    1.9459    0.5960 C.ar    1  LIG1        0.1794
      3 C          -0.3909    1.7956    0.3979 C.ar    1  LIG1        0.1868
      4 C          -0.6910    0.4499    0.4981 C.ar    1  LIG1        0.0925
      5 N           0.4969   -0.2024    0.7384 N.ar    1  LIG1       -0.3546
      6 H           0.5461   -1.1493    1.0739 H       1  LIG1        0.1656
      7 H           2.5416    0.3764    1.0352 H       1  LIG1        0.0845
      8 O           1.6330    3.1522    0.5350 O.3     1  LIG1       -0.4900
      9 C           3.0211    3.1193    0.7788 C.3     1  LIG1        0.0790
     10 H           3.3809    4.1453    0.7036 H       1  LIG1        0.0660
     11 H           3.2376    2.7314    1.7821 H       1  LIG1        0.0660
     12 H           3.5400    2.4965    0.0388 H       1  LIG1        0.0660
     13 O          -1.2881    2.7955    0.1690 O.3     1  LIG1       -0.4895
     14 C          -1.0579    3.5338   -1.0245 C.3     1  LIG1        0.0791
     15 H          -1.8370    4.2956   -1.0736 H       1  LIG1        0.0660
     16 H          -0.0760    4.0147   -1.0065 H       1  LIG1        0.0660
     17 H          -1.1293    2.8844   -1.9047 H       1  LIG1        0.0660
     18 C          -3.1791    0.3996    0.5846 C.ar    1  LIG1       -0.0517
     19 C          -4.3612   -0.3023    0.4824 C.ar    1  LIG1       -0.0486
     20 C          -1.9601   -0.2612    0.3774 C.ar    1  LIG1        0.0038
     21 C          -4.4029   -1.6725    0.1749 C.ar    1  LIG1        0.0416
     22 H          -5.3006    0.2095    0.6493 H       1  LIG1        0.0625
     23 C          -1.9862   -1.6179    0.0665 C.ar    1  LIG1       -0.0311
     24 C          -3.1765   -2.3470   -0.0327 C.ar    1  LIG1        0.0361
     25 H          -1.0570   -2.1437   -0.1372 H       1  LIG1        0.0643
     26 H          -3.1818    1.4536    0.8284 H       1  LIG1        0.0624
     27 N          -3.0903   -3.7044   -0.3015 N.pl3   1  LIG1       -0.3574
     28 H          -3.9268   -4.1632   -0.6219 H       1  LIG1        0.1423
     29 H          -2.2492   -3.9935   -0.7759 H       1  LIG1        0.1423
     30 C          -5.7081   -2.3119    0.0585 C.ar    1  LIG1        0.1801
     31 C          -6.9872   -1.8290   -0.0213 C.ar    1  LIG1        0.1817
     32 C          -7.8792   -2.9530   -0.1095 C.ar    1  LIG1        0.1127
     33 C          -7.0800   -4.0655   -0.0951 C.ar    1  LIG1        0.1560
     34 O          -5.7796   -3.6806    0.0243 O.2     1  LIG1       -0.4497
     35 O          -7.3621   -0.5264    0.0307 O.3     1  LIG1       -0.4901
     36 C          -7.9401   -0.0264   -1.1746 C.3     1  LIG1        0.0790
     37 H          -8.2035    1.0131   -0.9792 H       1  LIG1        0.0660
     38 H          -7.2196   -0.0745   -1.9977 H       1  LIG1        0.0660
     39 H          -8.8399   -0.5868   -1.4417 H       1  LIG1        0.0660
     40 C          -9.2961   -2.8863   -0.0868 C.1     1  LIG1       -0.0622
     41 C         -10.4961   -2.8051   -0.0524 C.1     1  LIG1       -0.1137
     42 H         -11.5601   -2.7476   -0.0337 H       1  LIG1        0.1232
     43 C          -8.2831   -6.1432   -0.8685 C.ar    1  LIG1        0.0630
     44 C          -8.4675   -7.5213   -0.7545 C.ar    1  LIG1       -0.0357
     45 C          -7.3166   -5.5041   -0.0732 C.ar    1  LIG1        0.0362
     46 C          -7.6991   -8.3016    0.1048 C.ar    1  LIG1       -0.0137
     47 H          -9.2098   -7.9995   -1.3838 H       1  LIG1        0.0637
     48 C          -6.5435   -6.2985    0.7766 C.ar    1  LIG1       -0.0463
     49 C          -6.7063   -7.6752    0.8843 C.ar    1  LIG1       -0.0420
     50 H          -5.7989   -5.8074    1.3939 H       1  LIG1        0.0628
     51 N          -9.6406   -4.9543   -2.7261 N.1     1  LIG1       -0.1908
     52 C          -9.0363   -5.4510   -1.8740 C.1     1  LIG1        0.0999
     53 C          -5.8439   -8.4323    1.8610 C.3     1  LIG1       -0.0391
     54 H          -5.4713   -7.7628    2.6386 H       1  LIG1        0.0278
     55 H          -4.9718   -8.8747    1.3692 H       1  LIG1        0.0278
     56 H          -6.3923   -9.2460    2.3387 H       1  LIG1        0.0278
     57 C          -9.2715  -10.2264    0.3720 C.ar    1  LIG1       -0.0534
     58 C          -9.5582  -11.5816    0.3954 C.ar    1  LIG1       -0.0505
     59 C          -7.9705   -9.7622    0.1604 C.ar    1  LIG1       -0.0176
     60 C          -8.5418  -12.5230    0.2011 C.ar    1  LIG1        0.0185
     61 H         -10.5745  -11.9119    0.5678 H       1  LIG1        0.0625
     62 C          -6.9602  -10.7075   -0.0363 C.ar    1  LIG1       -0.0534
     63 C          -7.2376  -12.0635   -0.0178 C.ar    1  LIG1       -0.0505
     64 H          -5.9455  -10.3769   -0.2286 H       1  LIG1        0.0624
     65 H         -10.0707   -9.5106    0.5345 H       1  LIG1        0.0624
     66 H          -6.4389  -12.7767   -0.1807 H       1  LIG1        0.0625
     67 C          -8.8200  -13.9532    0.2200 C.ar    1  LIG1        0.1510
     68 C          -9.9456  -14.7188    0.4323 C.ar    1  LIG1        0.0709
     69 C          -9.5365  -16.0833    0.3124 C.ar    1  LIG1        0.0003
     70 C          -8.2034  -16.0724    0.0375 C.ar    1  LIG1        0.1382
     71 O          -7.7705  -14.7767   -0.0178 O.2     1  LIG1       -0.4535
     72 C         -11.2703  -14.2929    0.7191 C.1     1  LIG1       -0.0658
     73 C         -12.4055  -13.9752    0.9636 C.1     1  LIG1       -0.1138
     74 H         -13.4112  -13.6959    1.1803 H       1  LIG1        0.1232
     75 H         -10.1791  -16.9410    0.4225 H       1  LIG1        0.0668
     76 C          -7.4298  -18.4704   -0.1798 C.ar    1  LIG1        0.0631
     77 C          -6.4041  -19.3851   -0.4204 C.ar    1  LIG1       -0.0347
     78 C          -7.1822  -17.0826   -0.2034 C.ar    1  LIG1        0.0359
     79 C          -5.1014  -18.9836   -0.6912 C.ar    1  LIG1        0.0011
     80 H          -6.6402  -20.4424   -0.4094 H       1  LIG1        0.0637
     81 C          -5.8748  -16.6779   -0.4763 C.ar    1  LIG1       -0.0319
     82 C          -4.8575  -17.5984   -0.7146 C.ar    1  LIG1        0.0602
     83 H          -5.6439  -15.6215   -0.4998 H       1  LIG1        0.0638
     84 N          -9.7731  -19.4671    0.2945 N.1     1  LIG1       -0.1908
     85 C          -8.7325  -19.0080    0.0834 C.1     1  LIG1        0.0999
     86 N          -2.5028  -16.6164   -1.1823 N.1     1  LIG1       -0.1908
     87 C          -3.5416  -17.0792   -0.9737 C.1     1  LIG1        0.0998
     88 C          -3.6963  -20.9722   -0.0318 C.ar    1  LIG1       -0.0425
     89 C          -2.7018  -21.8856   -0.3891 C.ar    1  LIG1       -0.0548
     90 C          -4.0391  -19.9872   -0.9699 C.ar    1  LIG1       -0.0103
     91 C          -2.0617  -21.8444   -1.6154 C.ar    1  LIG1       -0.0199
     92 H          -2.4143  -22.6492    0.3274 H       1  LIG1        0.0622
     93 C          -3.3914  -19.9347   -2.2069 C.ar    1  LIG1       -0.0122
     94 C          -2.4044  -20.8555   -2.5324 C.ar    1  LIG1        0.1175
     95 H          -3.6689  -19.1678   -2.9249 H       1  LIG1        0.0660
     96 H          -1.2886  -22.5583   -1.8752 H       1  LIG1        0.0654
     97 C          -4.3328  -21.0629    1.3333 C.3     1  LIG1       -0.0391
     98 H          -3.6756  -21.5981    2.0217 H       1  LIG1        0.0278
     99 H          -5.2843  -21.6046    1.3127 H       1  LIG1        0.0278
    100 H          -4.5311  -20.0775    1.7607 H       1  LIG1        0.0278
    101 O          -1.7506  -20.8439   -3.7232 O.3     1  LIG1       -0.5067
    102 H          -2.0258  -20.0757   -4.2374 H       1  LIG1        0.2921
@<TRIPOS>BOND
     1   102   101    1
     2   101    94    1
     3    95    93    1
     4    51    52    3
     5    94    93   ar
     6    94    91   ar
     7    93    90   ar
     8    38    36    1
     9    17    14    1
    10    96    91    1
    11    52    43    1
    12    91    89   ar
    13    39    36    1
    14    47    44    1
    15    86    87    3
    16    36    37    1
    17    36    35    1
    18    15    14    1
    19    14    16    1
    20    14    13    1
    21    87    82    1
    22    90    79    1
    23    90    88   ar
    24    43    44   ar
    25    43    45   ar
    26    29    27    1
    27    44    46   ar
    28    82    79   ar
    29    82    81   ar
    30    79    77   ar
    31    28    27    1
    32    83    81    1
    33    81    78   ar
    34    77    80    1
    35    77    76   ar
    36    89    88   ar
    37    89    92    1
    38    27    24    1
    39    64    62    1
    40    78    76   ar
    41    78    70    1
    42    66    63    1
    43    76    85    1
    44    25    23    1
    45    32    33   ar
    46    32    40    1
    47    32    31   ar
    48    33    45    1
    49    33    34   ar
    50    40    41    3
    51    45    48   ar
    52    41    42    1
    53    62    63   ar
    54    62    59   ar
    55    24    23   ar
    56    24    21   ar
    57    88    97    1
    58    31    35    1
    59    31    30   ar
    60    63    60   ar
    61    71    70   ar
    62    71    67   ar
    63    34    30   ar
    64    70    69   ar
    65    12     9    1
    66    30    21    1
    67    23    20   ar
    68    85    84    3
    69    46    59    1
    70    46    49   ar
    71    59    57   ar
    72    13     3    1
    73    21    19   ar
    74    60    67    1
    75    60    58   ar
    76    67    68   ar
    77    69    75    1
    78    69    68   ar
    79    57    58   ar
    80    57    65    1
    81    20     4    1
    82    20    18   ar
    83    58    61    1
    84     3     4   ar
    85     3     2   ar
    86    68    72    1
    87    19    18   ar
    88    19    22    1
    89     4     5   ar
    90     8     2    1
    91     8     9    1
    92    18    26    1
    93     2     1   ar
    94    10     9    1
    95    72    73    3
    96     5     1   ar
    97     5     6    1
    98    48    49   ar
    99    48    50    1
   100     9    11    1
   101     1     7    1
   102    49    53    1
   103    73    74    1
   104    99    97    1
   105    97   100    1
   106    97    98    1
   107    55    53    1
   108    53    56    1
   109    53    54    1
