@<TRIPOS>MOLECULE
mol_data/opt/cam/geoms/mol2/13ll13ll13ll13ll.out
 66 69 0 0 0
SMALL
GASTEIGER

@<TRIPOS>ATOM
      1 C           0.3638    0.3758   -2.5177 C.ar    1  LIG1        0.0482
      2 C           0.8198    0.8522   -1.3117 C.ar    1  LIG1        0.1795
      3 C          -0.2231    0.6789   -0.3568 C.ar    1  LIG1        0.1884
      4 C          -1.3008    0.1157   -1.0053 C.ar    1  LIG1        0.1126
      5 N          -0.9189   -0.0780   -2.3159 N.ar    1  LIG1       -0.3534
      6 H          -1.5616   -0.3289   -3.0480 H       1  LIG1        0.1656
      7 H           0.8371    0.3227   -3.4840 H       1  LIG1        0.0845
      8 O           2.0279    1.3826   -0.9871 O.3     1  LIG1       -0.4900
      9 C           2.9434    1.4796   -2.0556 C.3     1  LIG1        0.0790
     10 H           3.8549    1.9208   -1.6529 H       1  LIG1        0.0660
     11 H           3.1717    0.4912   -2.4744 H       1  LIG1        0.0660
     12 H           2.5517    2.1212   -2.8549 H       1  LIG1        0.0660
     13 O          -0.2048    1.0508    0.9547 O.3     1  LIG1       -0.4895
     14 C           0.8087    0.4298    1.7349 C.3     1  LIG1        0.0791
     15 H           0.7009    0.8168    2.7489 H       1  LIG1        0.0660
     16 H           0.6786   -0.6586    1.7469 H       1  LIG1        0.0660
     17 H           1.8043    0.6714    1.3532 H       1  LIG1        0.0660
     18 C          -2.6046   -0.3277   -0.5268 C.ar    1  LIG1        0.1131
     19 C          -3.6948    0.2901    0.0654 C.ar    1  LIG1        0.1891
     20 C          -4.6853   -0.7073    0.2919 C.ar    1  LIG1        0.1891
     21 C          -4.2100   -1.9106   -0.1818 C.ar    1  LIG1        0.1131
     22 N          -2.9543   -1.6603   -0.6796 N.ar    1  LIG1       -0.3458
     23 H          -2.3439   -2.3599   -1.0678 H       1  LIG1        0.1662
     24 O          -3.9396    1.5766    0.4124 O.3     1  LIG1       -0.4895
     25 C          -2.9809    2.5603    0.0632 C.3     1  LIG1        0.0791
     26 H          -3.4177    3.5176    0.3500 H       1  LIG1        0.0660
     27 H          -2.0405    2.4070    0.5982 H       1  LIG1        0.0660
     28 H          -2.7910    2.5603   -1.0156 H       1  LIG1        0.0660
     29 O          -5.9331   -0.5068    0.8044 O.3     1  LIG1       -0.4895
     30 C          -5.9561   -0.0087    2.1358 C.3     1  LIG1        0.0791
     31 H          -7.0068    0.0983    2.4090 H       1  LIG1        0.0660
     32 H          -5.4733   -0.7129    2.8235 H       1  LIG1        0.0660
     33 H          -5.4576    0.9618    2.2011 H       1  LIG1        0.0660
     34 C          -4.7652   -3.2591   -0.1601 C.ar    1  LIG1        0.1131
     35 C          -5.8655   -3.8760   -0.7333 C.ar    1  LIG1        0.1891
     36 C          -5.8475   -5.2444   -0.3411 C.ar    1  LIG1        0.1891
     37 C          -4.7337   -5.4596    0.4411 C.ar    1  LIG1        0.1131
     38 N          -4.0870   -4.2517    0.5318 N.ar    1  LIG1       -0.3458
     39 H          -3.2597   -4.0920    1.0822 H       1  LIG1        0.1662
     40 O          -6.8510   -3.4189   -1.5432 O.3     1  LIG1       -0.4895
     41 C          -6.8089   -2.0617   -1.9480 C.3     1  LIG1        0.0791
     42 H          -7.6553   -1.9248   -2.6221 H       1  LIG1        0.0660
     43 H          -6.9018   -1.3874   -1.0929 H       1  LIG1        0.0660
     44 H          -5.8811   -1.8389   -2.4864 H       1  LIG1        0.0660
     45 O          -6.7289   -6.2080   -0.7358 O.3     1  LIG1       -0.4895
     46 C          -8.0673   -5.9974   -0.3054 C.3     1  LIG1        0.0791
     47 H          -8.6525   -6.8346   -0.6884 H       1  LIG1        0.0660
     48 H          -8.1270   -5.9852    0.7891 H       1  LIG1        0.0660
     49 H          -8.4642   -5.0591   -0.7020 H       1  LIG1        0.0660
     50 C          -4.2518   -6.6298    1.1650 C.ar    1  LIG1        0.1126
     51 C          -3.8499   -7.9058    0.8138 C.ar    1  LIG1        0.1884
     52 C          -3.4746   -8.5873    2.0128 C.ar    1  LIG1        0.1795
     53 C          -3.6468   -7.7217    3.0580 C.ar    1  LIG1        0.0482
     54 N          -4.0750   -6.5292    2.5420 N.ar    1  LIG1       -0.3534
     55 H          -4.4969   -5.7939    3.0839 H       1  LIG1        0.1656
     56 H          -3.4625   -7.8659    4.1106 H       1  LIG1        0.0845
     57 O          -3.7270   -8.5289   -0.3832 O.3     1  LIG1       -0.4895
     58 C          -3.9841   -7.7785   -1.5567 C.3     1  LIG1        0.0791
     59 H          -3.7512   -8.4402   -2.3920 H       1  LIG1        0.0660
     60 H          -5.0304   -7.4678   -1.6099 H       1  LIG1        0.0660
     61 H          -3.3388   -6.8944   -1.6076 H       1  LIG1        0.0660
     62 O          -2.9479   -9.8411    2.1043 O.3     1  LIG1       -0.4900
     63 C          -3.8036  -10.8710    1.6303 C.3     1  LIG1        0.0790
     64 H          -3.2647  -11.8100    1.7666 H       1  LIG1        0.0660
     65 H          -4.7360  -10.9024    2.2074 H       1  LIG1        0.0660
     66 H          -4.0402  -10.7344    0.5717 H       1  LIG1        0.0660
@<TRIPOS>BOND
     1     7     1    1
     2     6     5    1
     3    12     9    1
     4    42    41    1
     5     1     5   ar
     6     1     2   ar
     7    44    41    1
     8    11     9    1
     9    59    58    1
    10     5     4   ar
    11     9    10    1
    12     9     8    1
    13    41    40    1
    14    41    43    1
    15    60    58    1
    16    61    58    1
    17    58    57    1
    18    40    35    1
    19     2     8    1
    20     2     3   ar
    21    23    22    1
    22    28    25    1
    23     4    18    1
    24     4     3   ar
    25    45    36    1
    26    45    46    1
    27    35    36   ar
    28    35    34   ar
    29    49    46    1
    30    47    46    1
    31    22    18   ar
    32    22    21   ar
    33    18    19   ar
    34    57    51    1
    35     3    13    1
    36    36    37   ar
    37    46    48    1
    38    21    34    1
    39    21    20   ar
    40    34    38   ar
    41    25    26    1
    42    25    24    1
    43    25    27    1
    44    19    20   ar
    45    19    24    1
    46    20    29    1
    47    37    38   ar
    48    37    50    1
    49    38    39    1
    50    66    63    1
    51    29    30    1
    52    51    50   ar
    53    51    52   ar
    54    13    14    1
    55    50    54   ar
    56    17    14    1
    57    63    64    1
    58    63    62    1
    59    63    65    1
    60    14    16    1
    61    14    15    1
    62    52    62    1
    63    52    53   ar
    64    30    33    1
    65    30    31    1
    66    30    32    1
    67    54    53   ar
    68    54    55    1
    69    53    56    1
