@<TRIPOS>MOLECULE
mol_data/opt/cam/geoms/mol2/13ll13ll-13ll13ll-.out
 66 69 0 0 0
SMALL
GASTEIGER

@<TRIPOS>ATOM
      1 C           1.3764   -0.6433    0.2496 C.ar    1  LIG1        0.0482
      2 C           1.0179    0.6865    0.2193 C.ar    1  LIG1        0.1795
      3 C          -0.3995    0.7460    0.1352 C.ar    1  LIG1        0.1884
      4 C          -0.8689   -0.5518    0.1103 C.ar    1  LIG1        0.1126
      5 N           0.2175   -1.3802    0.1708 N.ar    1  LIG1       -0.3534
      6 H           0.1278   -2.3835    0.1896 H       1  LIG1        0.1656
      7 H           2.3424   -1.1147    0.3156 H       1  LIG1        0.0845
      8 O           1.8017    1.7988    0.2622 O.3     1  LIG1       -0.4900
      9 C           3.1852    1.5462    0.3469 C.3     1  LIG1        0.0790
     10 H           3.6847    2.5149    0.3701 H       1  LIG1        0.0660
     11 H           3.4328    0.9872    1.2586 H       1  LIG1        0.0660
     12 H           3.5376    0.9766   -0.5224 H       1  LIG1        0.0660
     13 O          -1.2021    1.8545    0.0401 O.3     1  LIG1       -0.4895
     14 C          -1.0608    2.7694    1.1213 C.3     1  LIG1        0.0791
     15 H          -1.7658    3.5814    0.9368 H       1  LIG1        0.0660
     16 H          -1.3024    2.2868    2.0755 H       1  LIG1        0.0660
     17 H          -0.0433    3.1664    1.1654 H       1  LIG1        0.0660
     18 C          -2.2183   -1.0417    0.0086 C.ar    1  LIG1        0.1131
     19 C          -2.6993   -2.3393   -0.0110 C.ar    1  LIG1        0.1891
     20 C          -4.1147   -2.2649   -0.1085 C.ar    1  LIG1        0.1891
     21 C          -4.4565   -0.9201   -0.1387 C.ar    1  LIG1        0.1131
     22 N          -3.2980   -0.2014   -0.0667 N.ar    1  LIG1       -0.3458
     23 H          -3.2340    0.8076   -0.0841 H       1  LIG1        0.1662
     24 O          -1.8627   -3.4154    0.1295 O.3     1  LIG1       -0.4895
     25 C          -2.2698   -4.6219   -0.4931 C.3     1  LIG1        0.0791
     26 H          -1.4887   -5.3551   -0.2878 H       1  LIG1        0.0660
     27 H          -3.2197   -4.9754   -0.0858 H       1  LIG1        0.0660
     28 H          -2.3637   -4.4931   -1.5783 H       1  LIG1        0.0660
     29 O          -5.0234   -3.3001   -0.1404 O.3     1  LIG1       -0.4895
     30 C          -5.4781   -3.6385   -1.4488 C.3     1  LIG1        0.0791
     31 H          -6.2621   -4.3872   -1.3239 H       1  LIG1        0.0660
     32 H          -5.8920   -2.7652   -1.9622 H       1  LIG1        0.0660
     33 H          -4.6658   -4.0551   -2.0540 H       1  LIG1        0.0660
     34 C          -5.7508   -0.2944   -0.1880 C.ar    1  LIG1        0.1131
     35 C          -6.0904    1.0364   -0.3511 C.ar    1  LIG1        0.1891
     36 C          -7.5051    1.1265   -0.3093 C.ar    1  LIG1        0.1891
     37 C          -7.9991   -0.1498   -0.1241 C.ar    1  LIG1        0.1131
     38 N          -6.9223   -0.9955   -0.0577 N.ar    1  LIG1       -0.3458
     39 H          -6.9956   -1.9833    0.1425 H       1  LIG1        0.1662
     40 O          -5.1899    2.0630   -0.4925 O.3     1  LIG1       -0.4895
     41 C          -5.2183    2.6661   -1.7838 C.3     1  LIG1        0.0791
     42 H          -4.4741    3.4636   -1.7750 H       1  LIG1        0.0660
     43 H          -4.9626    1.9361   -2.5591 H       1  LIG1        0.0660
     44 H          -6.2072    3.0844   -1.9972 H       1  LIG1        0.0660
     45 O          -8.2834    2.2487   -0.4647 O.3     1  LIG1       -0.4895
     46 C          -8.0590    3.2325    0.5428 C.3     1  LIG1        0.0791
     47 H          -8.6911    4.0869    0.2954 H       1  LIG1        0.0660
     48 H          -8.3320    2.8463    1.5311 H       1  LIG1        0.0660
     49 H          -7.0102    3.5422    0.5584 H       1  LIG1        0.0660
     50 C          -9.3545   -0.6237   -0.0306 C.ar    1  LIG1        0.1126
     51 C          -9.8315   -1.8977    0.1996 C.ar    1  LIG1        0.1884
     52 C         -11.2513   -1.8352    0.1601 C.ar    1  LIG1        0.1795
     53 C         -11.6020   -0.5266   -0.0901 C.ar    1  LIG1        0.0482
     54 N         -10.4363    0.1943   -0.2072 N.ar    1  LIG1       -0.3534
     55 H         -10.3425    1.1705   -0.4387 H       1  LIG1        0.1656
     56 H         -12.5674   -0.0609   -0.1952 H       1  LIG1        0.0845
     57 O          -9.0281   -2.9954    0.3741 O.3     1  LIG1       -0.4895
     58 C          -9.2656   -3.7083    1.5841 C.3     1  LIG1        0.0791
     59 H          -8.5526   -4.5337    1.6042 H       1  LIG1        0.0660
     60 H          -9.1016   -3.0636    2.4552 H       1  LIG1        0.0660
     61 H         -10.2857   -4.0996    1.6110 H       1  LIG1        0.0660
     62 O         -12.0431   -2.9247    0.3538 O.3     1  LIG1       -0.4900
     63 C         -13.4277   -2.6752    0.2712 C.3     1  LIG1        0.0790
     64 H         -13.9325   -3.6267    0.4385 H       1  LIG1        0.0660
     65 H         -13.7483   -1.9542    1.0341 H       1  LIG1        0.0660
     66 H         -13.7015   -2.2877   -0.7183 H       1  LIG1        0.0660
@<TRIPOS>BOND
     1    43    41    1
     2    33    30    1
     3    44    41    1
     4    32    30    1
     5    41    42    1
     6    41    40    1
     7    28    25    1
     8    30    31    1
     9    30    29    1
    10    66    63    1
    11    12     9    1
    12    25    26    1
    13    25    27    1
    14    25    24    1
    15    40    35    1
    16    45    36    1
    17    45    46    1
    18    55    54    1
    19    35    36   ar
    20    35    34   ar
    21    36    37   ar
    22    54    53   ar
    23    54    50   ar
    24    56    53    1
    25    34    21    1
    26    34    38   ar
    27    29    20    1
    28    21    20   ar
    29    21    22   ar
    30    37    38   ar
    31    37    50    1
    32    20    19   ar
    33    53    52   ar
    34    23    22    1
    35    22    18   ar
    36    38    39    1
    37    50    51   ar
    38    19    18   ar
    39    19    24    1
    40    18     4    1
    41    13     3    1
    42    13    14    1
    43     4     3   ar
    44     4     5   ar
    45     3     2   ar
    46    52    51   ar
    47    52    62    1
    48     5     6    1
    49     5     1   ar
    50    51    57    1
    51     2     1   ar
    52     2     8    1
    53     1     7    1
    54     8     9    1
    55    63    62    1
    56    63    64    1
    57    63    65    1
    58    47    46    1
    59     9    10    1
    60     9    11    1
    61    57    58    1
    62    46    49    1
    63    46    48    1
    64    15    14    1
    65    14    17    1
    66    14    16    1
    67    58    59    1
    68    58    61    1
    69    58    60    1
