@<TRIPOS>MOLECULE
mol_data/opt/cam/geoms/mol2/13ll13ll-.out
 34 35 0 0 0
SMALL
GASTEIGER

@<TRIPOS>ATOM
      1 C           1.2019   -0.4803    0.0001 C.ar    1  LIG1        0.0482
      2 C           0.8729    0.8598    0.0001 C.ar    1  LIG1        0.1795
      3 C          -0.5474    0.9485    0.0006 C.ar    1  LIG1        0.1884
      4 C          -1.0399   -0.3419    0.0008 C.ar    1  LIG1        0.1126
      5 N           0.0317   -1.1928    0.0006 N.ar    1  LIG1       -0.3534
      6 H          -0.0789   -2.1945    0.0005 H       1  LIG1        0.1656
      7 H           2.1625   -0.9668   -0.0001 H       1  LIG1        0.0845
      8 O           1.7086    1.9399   -0.0002 O.3     1  LIG1       -0.4900
      9 C           3.0812    1.6260   -0.0006 C.3     1  LIG1        0.0790
     10 H           3.6227    2.5722   -0.0009 H       1  LIG1        0.0660
     11 H           3.3582    1.0494    0.8914 H       1  LIG1        0.0660
     12 H           3.3576    1.0493   -0.8927 H       1  LIG1        0.0660
     13 O          -1.3928    2.0288    0.0007 O.3     1  LIG1       -0.4895
     14 C          -0.8085    3.3192    0.0003 C.3     1  LIG1        0.0791
     15 H          -1.6384    4.0271    0.0005 H       1  LIG1        0.0660
     16 H          -0.1897    3.4782    0.8879 H       1  LIG1        0.0660
     17 H          -0.1904    3.4779   -0.8878 H       1  LIG1        0.0660
     18 C          -2.4020   -0.8104    0.0012 C.ar    1  LIG1        0.1126
     19 C          -2.8944   -2.1008    0.0013 C.ar    1  LIG1        0.1884
     20 C          -4.3148   -2.0120    0.0017 C.ar    1  LIG1        0.1795
     21 C          -4.6437   -0.6719    0.0019 C.ar    1  LIG1        0.0482
     22 N          -3.4736    0.0406    0.0017 N.ar    1  LIG1       -0.3534
     23 H          -3.3630    1.0422    0.0015 H       1  LIG1        0.1656
     24 H          -5.6043   -0.1855    0.0022 H       1  LIG1        0.0845
     25 O          -2.0491   -3.1811    0.0012 O.3     1  LIG1       -0.4895
     26 C          -2.6334   -4.4714   -0.0013 C.3     1  LIG1        0.0791
     27 H          -1.8035   -5.1794   -0.0015 H       1  LIG1        0.0660
     28 H          -3.2527   -4.6316    0.8857 H       1  LIG1        0.0660
     29 H          -3.2510   -4.6291   -0.8900 H       1  LIG1        0.0660
     30 O          -5.1504   -3.0921    0.0020 O.3     1  LIG1       -0.4900
     31 C          -6.5231   -2.7782    0.0021 C.3     1  LIG1        0.0790
     32 H          -7.0646   -3.7245    0.0022 H       1  LIG1        0.0660
     33 H          -6.7997   -2.2016    0.8942 H       1  LIG1        0.0660
     34 H          -6.7999   -2.2016   -0.8899 H       1  LIG1        0.0660
@<TRIPOS>BOND
     1    12     9    1
     2    29    26    1
     3    34    31    1
     4    17    14    1
     5    27    26    1
     6    26    25    1
     7    26    28    1
     8    10     9    1
     9     9     8    1
    10     9    11    1
    11     8     2    1
    12     7     1    1
    13     2     1   ar
    14     2     3   ar
    15     1     5   ar
    16    14    15    1
    17    14    13    1
    18    14    16    1
    19     6     5    1
    20     3    13    1
    21     3     4   ar
    22     5     4   ar
    23     4    18    1
    24    25    19    1
    25    18    19   ar
    26    18    22   ar
    27    19    20   ar
    28    23    22    1
    29    22    21   ar
    30    20    21   ar
    31    20    30    1
    32    21    24    1
    33    30    31    1
    34    31    32    1
    35    31    33    1
