@<TRIPOS>MOLECULE
mol_data/opt/cam/geoms/mol2/13ll13ll-13ll.out
 50 52 0 0 0
SMALL
GASTEIGER

@<TRIPOS>ATOM
      1 C           1.2601   -0.8085    0.2868 C.ar    1  LIG1        0.0482
      2 C           0.9939    0.5408    0.2087 C.ar    1  LIG1        0.1795
      3 C          -0.4158    0.6938    0.1050 C.ar    1  LIG1        0.1884
      4 C          -0.9720   -0.5684    0.1239 C.ar    1  LIG1        0.1126
      5 N           0.0534   -1.4671    0.2379 N.ar    1  LIG1       -0.3534
      6 H          -0.1042   -2.4589    0.3200 H       1  LIG1        0.1656
      7 H           2.1915   -1.3419    0.3752 H       1  LIG1        0.0845
      8 O           1.8513    1.5972    0.2137 O.3     1  LIG1       -0.4900
      9 C           3.2132    1.2561    0.3350 C.3     1  LIG1        0.0790
     10 H           3.7763    2.1894    0.3309 H       1  LIG1        0.0660
     11 H           3.4049    0.7203    1.2733 H       1  LIG1        0.0660
     12 H           3.5426    0.6289   -0.5035 H       1  LIG1        0.0660
     13 O          -1.1462    1.8516    0.0500 O.3     1  LIG1       -0.4895
     14 C          -0.8125    2.7029   -1.0411 C.3     1  LIG1        0.0791
     15 H          -1.4742    3.5676   -0.9752 H       1  LIG1        0.0660
     16 H           0.2289    3.0286   -0.9765 H       1  LIG1        0.0660
     17 H          -0.9740    2.1928   -1.9979 H       1  LIG1        0.0660
     18 C          -2.3527   -0.9723    0.0711 C.ar    1  LIG1        0.1131
     19 C          -2.9106   -2.2358    0.0316 C.ar    1  LIG1        0.1891
     20 C          -4.3196   -2.0805    0.0080 C.ar    1  LIG1        0.1891
     21 C          -4.5900   -0.7255    0.0278 C.ar    1  LIG1        0.1131
     22 N          -3.3863   -0.0731    0.0670 N.ar    1  LIG1       -0.3458
     23 H          -3.2722    0.9317    0.0885 H       1  LIG1        0.1662
     24 O          -2.1937   -3.4097    0.0459 O.3     1  LIG1       -0.4895
     25 C          -2.3645   -4.1839   -1.1391 C.3     1  LIG1        0.0791
     26 H          -1.7838   -5.0981   -1.0058 H       1  LIG1        0.0660
     27 H          -3.4180   -4.4367   -1.2916 H       1  LIG1        0.0660
     28 H          -1.9979   -3.6389   -2.0159 H       1  LIG1        0.0660
     29 O          -5.2743   -3.0692   -0.0521 O.3     1  LIG1       -0.4895
     30 C          -5.2814   -3.9103    1.0993 C.3     1  LIG1        0.0791
     31 H          -6.0450   -4.6712    0.9302 H       1  LIG1        0.0660
     32 H          -4.3081   -4.3905    1.2372 H       1  LIG1        0.0660
     33 H          -5.5264   -3.3356    1.9992 H       1  LIG1        0.0660
     34 C          -5.8508   -0.0308    0.0043 C.ar    1  LIG1        0.1126
     35 C          -6.1313    1.3161    0.1017 C.ar    1  LIG1        0.1884
     36 C          -7.5423    1.4702    0.0078 C.ar    1  LIG1        0.1795
     37 C          -8.0828    0.2161   -0.1447 C.ar    1  LIG1        0.0482
     38 N          -7.0481   -0.6829   -0.1425 N.ar    1  LIG1       -0.3534
     39 H          -7.1049   -1.6826   -0.2589 H       1  LIG1        0.1656
     40 H          -9.1125   -0.0873   -0.2420 H       1  LIG1        0.0845
     41 O          -5.1851    2.3026    0.2319 O.3     1  LIG1       -0.4895
     42 C          -5.2845    3.0230    1.4583 C.3     1  LIG1        0.0791
     43 H          -4.5066    3.7874    1.4374 H       1  LIG1        0.0660
     44 H          -6.2671    3.4943    1.5541 H       1  LIG1        0.0660
     45 H          -5.1205    2.3582    2.3135 H       1  LIG1        0.0660
     46 O          -8.2396    2.6439    0.0938 O.3     1  LIG1       -0.4900
     47 C          -7.9949    3.5240   -0.9949 C.3     1  LIG1        0.0790
     48 H          -8.5753    4.4285   -0.8056 H       1  LIG1        0.0660
     49 H          -6.9325    3.7789   -1.0692 H       1  LIG1        0.0660
     50 H          -8.3192    3.0749   -1.9409 H       1  LIG1        0.0660
@<TRIPOS>BOND
     1    28    25    1
     2    17    14    1
     3    50    47    1
     4    27    25    1
     5    25    26    1
     6    25    24    1
     7    49    47    1
     8    14    16    1
     9    14    15    1
    10    14    13    1
    11    47    48    1
    12    47    46    1
    13    12     9    1
    14    39    38    1
    15    40    37    1
    16    37    38   ar
    17    37    36   ar
    18    38    34   ar
    19    29    20    1
    20    29    30    1
    21    34    21    1
    22    34    35   ar
    23    36    46    1
    24    36    35   ar
    25    20    21   ar
    26    20    19   ar
    27    21    22   ar
    28    19    24    1
    29    19    18   ar
    30    13     3    1
    31    22    18   ar
    32    22    23    1
    33    18     4    1
    34    35    41    1
    35     3     4   ar
    36     3     2   ar
    37     4     5   ar
    38     2     8    1
    39     2     1   ar
    40     8     9    1
    41    41    42    1
    42     5     1   ar
    43     5     6    1
    44     1     7    1
    45    10     9    1
    46     9    11    1
    47    31    30    1
    48    30    32    1
    49    30    33    1
    50    43    42    1
    51    42    44    1
    52    42    45    1
