@<TRIPOS>MOLECULE
mol_data/opt/cam/geoms/mol2/13ll13ll13ll-13ll-.out
 66 69 0 0 0
SMALL
GASTEIGER

@<TRIPOS>ATOM
      1 C           1.1563   -0.1135   -1.0552 C.ar    1  LIG1        0.0482
      2 C           0.9420    0.9334   -0.1908 C.ar    1  LIG1        0.1795
      3 C          -0.4321    0.9122    0.1829 C.ar    1  LIG1        0.1884
      4 C          -1.0339   -0.1387   -0.4761 C.ar    1  LIG1        0.1126
      5 N          -0.0486   -0.7597   -1.2123 N.ar    1  LIG1       -0.3534
      6 H          -0.2363   -1.4755   -1.8934 H       1  LIG1        0.1656
      7 H           2.0471   -0.4467   -1.5610 H       1  LIG1        0.0845
      8 O           1.8168    1.8518    0.2978 O.3     1  LIG1       -0.4900
      9 C           3.1398    1.7206   -0.1702 C.3     1  LIG1        0.0790
     10 H           3.7221    2.5148    0.2969 H       1  LIG1        0.0660
     11 H           3.5650    0.7471    0.1060 H       1  LIG1        0.0660
     12 H           3.1867    1.8299   -1.2611 H       1  LIG1        0.0660
     13 O          -1.0652    1.7946    1.0085 O.3     1  LIG1       -0.4895
     14 C          -0.5917    1.7912    2.3490 C.3     1  LIG1        0.0791
     15 H          -1.1842    2.5299    2.8903 H       1  LIG1        0.0660
     16 H          -0.7320    0.8064    2.8088 H       1  LIG1        0.0660
     17 H           0.4662    2.0659    2.3929 H       1  LIG1        0.0660
     18 C          -2.3845   -0.6801   -0.4344 C.ar    1  LIG1        0.1131
     19 C          -3.6585   -0.1613   -0.6244 C.ar    1  LIG1        0.1891
     20 C          -4.5835   -1.2258   -0.4387 C.ar    1  LIG1        0.1891
     21 C          -3.8694   -2.3669   -0.1444 C.ar    1  LIG1        0.1131
     22 N          -2.5470   -2.0305   -0.1587 N.ar    1  LIG1       -0.3458
     23 H          -1.8265   -2.6527    0.1754 H       1  LIG1        0.1662
     24 O          -4.0997    1.0750   -0.9659 O.3     1  LIG1       -0.4895
     25 C          -3.1535    2.0186   -1.4405 C.3     1  LIG1        0.0791
     26 H          -3.7350    2.8609   -1.8182 H       1  LIG1        0.0660
     27 H          -2.4954    2.3567   -0.6378 H       1  LIG1        0.0660
     28 H          -2.5536    1.5988   -2.2558 H       1  LIG1        0.0660
     29 O          -5.9537   -1.1788   -0.5013 O.3     1  LIG1       -0.4895
     30 C          -6.4700   -0.7245   -1.7488 C.3     1  LIG1        0.0791
     31 H          -7.5576   -0.7452   -1.6626 H       1  LIG1        0.0660
     32 H          -6.1356    0.2936   -1.9584 H       1  LIG1        0.0660
     33 H          -6.1561   -1.3861   -2.5648 H       1  LIG1        0.0660
     34 C          -4.3307   -3.6935    0.1671 C.ar    1  LIG1        0.1131
     35 C          -3.6240   -4.8503    0.4132 C.ar    1  LIG1        0.1891
     36 C          -4.5556   -5.8869    0.6923 C.ar    1  LIG1        0.1891
     37 C          -5.8277   -5.3384    0.5978 C.ar    1  LIG1        0.1131
     38 N          -5.6553   -3.9949    0.3056 N.ar    1  LIG1       -0.3458
     39 H          -6.3854   -3.3335    0.0880 H       1  LIG1        0.1662
     40 O          -2.2550   -4.9157    0.4542 O.3     1  LIG1       -0.4895
     41 C          -1.6899   -5.8845   -0.4226 C.3     1  LIG1        0.0791
     42 H          -0.6085   -5.8395   -0.2824 H       1  LIG1        0.0660
     43 H          -2.0511   -6.8862   -0.1793 H       1  LIG1        0.0660
     44 H          -1.9339   -5.6554   -1.4669 H       1  LIG1        0.0660
     45 O          -4.1229   -7.1354    1.0010 O.3     1  LIG1       -0.4895
     46 C          -4.9847   -7.9750    1.7523 C.3     1  LIG1        0.0791
     47 H          -4.3631   -8.7942    2.1173 H       1  LIG1        0.0660
     48 H          -5.4084   -7.4355    2.6063 H       1  LIG1        0.0660
     49 H          -5.7892   -8.3744    1.1319 H       1  LIG1        0.0660
     50 C          -7.1777   -5.8527    0.7583 C.ar    1  LIG1        0.1126
     51 C          -7.8209   -6.9503    0.2278 C.ar    1  LIG1        0.1884
     52 C          -9.1719   -6.9245    0.6789 C.ar    1  LIG1        0.1795
     53 C          -9.3303   -5.8056    1.4606 C.ar    1  LIG1        0.0482
     54 N          -8.1152   -5.1583    1.4911 N.ar    1  LIG1       -0.3534
     55 H          -7.8798   -4.4077    2.1184 H       1  LIG1        0.1656
     56 H         -10.1884   -5.4219    1.9868 H       1  LIG1        0.0845
     57 O          -7.2389   -7.9043   -0.5552 O.3     1  LIG1       -0.4895
     58 C          -7.7959   -8.0171   -1.8579 C.3     1  LIG1        0.0791
     59 H          -7.2390   -8.8046   -2.3676 H       1  LIG1        0.0660
     60 H          -8.8546   -8.2880   -1.8117 H       1  LIG1        0.0660
     61 H          -7.6845   -7.0778   -2.4118 H       1  LIG1        0.0660
     62 O         -10.0792   -7.8706    0.3197 O.3     1  LIG1       -0.4900
     63 C         -11.3712   -7.6881    0.8532 C.3     1  LIG1        0.0790
     64 H         -11.9850   -8.5113    0.4879 H       1  LIG1        0.0660
     65 H         -11.3529   -7.7078    1.9502 H       1  LIG1        0.0660
     66 H         -11.8064   -6.7356    0.5243 H       1  LIG1        0.0660
@<TRIPOS>BOND
     1    33    30    1
     2    61    58    1
     3    59    58    1
     4    28    25    1
     5    32    30    1
     6     6     5    1
     7    58    60    1
     8    58    57    1
     9    26    25    1
    10    30    31    1
    11    30    29    1
    12     7     1    1
    13    44    41    1
    14    25    24    1
    15    25    27    1
    16    12     9    1
    17     5     1   ar
    18     5     4   ar
    19     1     2   ar
    20    24    19    1
    21    19    20   ar
    22    19    18   ar
    23    57    51    1
    24    29    20    1
    25     4    18    1
    26     4     3   ar
    27    20    21   ar
    28    18    22   ar
    29    41    42    1
    30    41    43    1
    31    41    40    1
    32     2     3   ar
    33     2     8    1
    34     9    11    1
    35     9    10    1
    36     9     8    1
    37    22    21   ar
    38    22    23    1
    39    21    34    1
    40    39    38    1
    41    34    38   ar
    42    34    35   ar
    43     3    13    1
    44    51    52   ar
    45    51    50   ar
    46    38    37   ar
    47    62    52    1
    48    62    63    1
    49    35    40    1
    50    35    36   ar
    51    64    63    1
    52    66    63    1
    53    37    36   ar
    54    37    50    1
    55    52    53   ar
    56    36    45    1
    57    50    54   ar
    58    63    65    1
    59    45    46    1
    60    13    14    1
    61    49    46    1
    62    53    54   ar
    63    53    56    1
    64    54    55    1
    65    46    47    1
    66    46    48    1
    67    14    17    1
    68    14    16    1
    69    14    15    1
