@<TRIPOS>MOLECULE
mol_data/opt/cam/geoms/mol2/13ll12fi-13ae-13ld.out
 52 55 0 0 0
SMALL
GASTEIGER

@<TRIPOS>ATOM
      1 C           1.1669   -0.5860    0.0972 C.ar    1  LIG1        0.0482
      2 C           0.7925    0.7025    0.4006 C.ar    1  LIG1        0.1795
      3 C          -0.6241    0.7652    0.3181 C.ar    1  LIG1        0.1900
      4 C          -1.0838   -0.4863   -0.0390 C.ar    1  LIG1        0.1317
      5 N           0.0133   -1.2925   -0.1699 N.ar    1  LIG1       -0.3521
      6 H          -0.0314   -2.2446   -0.4901 H       1  LIG1        0.1656
      7 H           2.1366   -1.0518    0.0517 H       1  LIG1        0.0845
      8 O           1.5510    1.7731    0.7487 O.3     1  LIG1       -0.4900
      9 C           2.9417    1.5350    0.7748 C.3     1  LIG1        0.0790
     10 H           3.4183    2.4731    1.0582 H       1  LIG1        0.0660
     11 H           3.1974    0.7600    1.5084 H       1  LIG1        0.0660
     12 H           3.3069    1.2247   -0.2119 H       1  LIG1        0.0660
     13 O          -1.4244    1.8668    0.5157 O.3     1  LIG1       -0.4894
     14 C          -1.3648    2.4042    1.8386 C.3     1  LIG1        0.0791
     15 H          -2.0404    3.2599    1.8580 H       1  LIG1        0.0660
     16 H          -1.6886    1.6590    2.5725 H       1  LIG1        0.0660
     17 H          -0.3475    2.7295    2.0665 H       1  LIG1        0.0660
     18 C          -2.4242   -0.9393   -0.2933 C.ar    1  LIG1        0.1969
     19 C          -3.6160   -0.2890   -0.4564 C.ar    1  LIG1        0.1679
     20 C          -4.6167   -1.2788   -0.7069 C.ar    1  LIG1        0.0389
     21 C          -3.9580   -2.4742   -0.6913 C.ar    1  LIG1        0.1584
     22 O          -2.6279   -2.2908   -0.4368 O.2     1  LIG1       -0.4477
     23 O          -3.8821    1.0288   -0.4094 O.3     1  LIG1       -0.5030
     24 H          -3.0695    1.5036   -0.1395 H       1  LIG1        0.2923
     25 C          -6.0683   -1.0080   -0.9241 C.3     1  LIG1       -0.0325
     26 H          -6.6919   -1.7448   -0.4102 H       1  LIG1        0.0280
     27 H          -6.3327   -1.0312   -1.9866 H       1  LIG1        0.0280
     28 H          -6.3200   -0.0160   -0.5450 H       1  LIG1        0.0280
     29 C          -4.3794   -3.8410   -0.8615 C.ar    1  LIG1        0.0842
     30 C          -5.5547   -4.3930   -1.3235 C.ar    1  LIG1       -0.0173
     31 C          -5.4107   -5.8084   -1.2713 C.ar    1  LIG1        0.0521
     32 C          -4.1367   -6.0736   -0.7756 C.ar    1  LIG1        0.0826
     33 N          -3.5357   -4.8752   -0.5366 N.ar    1  LIG1       -0.3495
     34 H          -2.5967   -4.7866   -0.1757 H       1  LIG1        0.1661
     35 H          -6.4192   -3.8572   -1.6815 H       1  LIG1        0.0652
     36 C          -6.3662   -6.7864   -1.6564 C.1     1  LIG1       -0.0675
     37 C          -7.1628   -7.6329   -1.9819 C.1     1  LIG1       -0.1138
     38 H          -7.8946   -8.3502   -2.2746 H       1  LIG1        0.1232
     39 C          -3.4524   -7.3140   -0.5133 C.ar    1  LIG1        0.1076
     40 C          -2.2115   -7.5335    0.0458 C.ar    1  LIG1        0.1640
     41 C          -1.9883   -8.9448    0.0696 C.ar    1  LIG1        0.1112
     42 C          -3.1162   -9.5318   -0.4776 C.ar    1  LIG1        0.0233
     43 N          -3.9757   -8.5492   -0.8265 N.ar    1  LIG1       -0.3553
     44 H          -4.8895   -8.6679   -1.2428 H       1  LIG1        0.1655
     45 H          -3.3394  -10.5750   -0.6343 H       1  LIG1        0.0821
     46 O          -1.3779   -6.5262    0.4320 O.3     1  LIG1       -0.4916
     47 C          -0.8583   -6.6298    1.7590 C.3     1  LIG1        0.0789
     48 H          -0.2852   -5.7195    1.9348 H       1  LIG1        0.0660
     49 H          -1.6719   -6.6992    2.4882 H       1  LIG1        0.0660
     50 H          -0.2004   -7.4957    1.8607 H       1  LIG1        0.0660
     51 N           0.1106  -10.1816    0.9099 N.1     1  LIG1       -0.1907
     52 C          -0.8360   -9.6340    0.5283 C.1     1  LIG1        0.1044
@<TRIPOS>BOND
     1    38    37    1
     2    27    25    1
     3    37    36    3
     4    35    30    1
     5    36    31    1
     6    30    31   ar
     7    30    29   ar
     8    31    32   ar
     9    44    43    1
    10    25    20    1
    11    25    28    1
    12    25    26    1
    13    29    21    1
    14    29    33   ar
    15    43    39   ar
    16    43    42   ar
    17    32    33   ar
    18    32    39    1
    19    20    21   ar
    20    20    19   ar
    21    21    22   ar
    22    45    42    1
    23    33    34    1
    24    39    40   ar
    25     6     5    1
    26    42    41   ar
    27    19    23    1
    28    19    18   ar
    29    22    18   ar
    30    23    24    1
    31    18     4    1
    32    12     9    1
    33     5     4   ar
    34     5     1   ar
    35     4     3   ar
    36    40    41   ar
    37    40    46    1
    38     7     1    1
    39    41    52    1
    40     1     2   ar
    41     3     2   ar
    42     3    13    1
    43     2     8    1
    44    46    47    1
    45    13    14    1
    46    52    51    3
    47     8     9    1
    48     9    10    1
    49     9    11    1
    50    47    50    1
    51    47    48    1
    52    47    49    1
    53    14    15    1
    54    14    17    1
    55    14    16    1
