@<TRIPOS>MOLECULE
mol_data/opt/cam/geoms/mol2/13ll13ll13ll.out
 50 52 0 0 0
SMALL
GASTEIGER

@<TRIPOS>ATOM
      1 C           1.2464   -0.0078    0.9665 C.ar    1  LIG1        0.0482
      2 C           1.0799    0.9598    0.0044 C.ar    1  LIG1        0.1795
      3 C          -0.3021    0.9960   -0.3383 C.ar    1  LIG1        0.1884
      4 C          -0.9549    0.0612    0.4373 C.ar    1  LIG1        0.1126
      5 N           0.0062   -0.5504    1.2125 N.ar    1  LIG1       -0.3534
      6 H          -0.2110   -1.1782    1.9674 H       1  LIG1        0.1656
      7 H           2.1264   -0.3484    1.4861 H       1  LIG1        0.0845
      8 O           2.0010    1.7629   -0.5899 O.3     1  LIG1       -0.4900
      9 C           3.3231    1.5956   -0.1296 C.3     1  LIG1        0.0790
     10 H           3.9432    2.3010   -0.6824 H       1  LIG1        0.0660
     11 H           3.3983    1.8097    0.9440 H       1  LIG1        0.0660
     12 H           3.6819    0.5746   -0.3128 H       1  LIG1        0.0660
     13 O          -0.9012    1.8341   -1.2319 O.3     1  LIG1       -0.4895
     14 C          -0.4407    1.7015   -2.5706 C.3     1  LIG1        0.0791
     15 H          -1.0040    2.4214   -3.1656 H       1  LIG1        0.0660
     16 H           0.6281    1.9210   -2.6430 H       1  LIG1        0.0660
     17 H          -0.6313    0.6908   -2.9496 H       1  LIG1        0.0660
     18 C          -2.3426   -0.3790    0.4794 C.ar    1  LIG1        0.1131
     19 C          -3.5640    0.2396    0.6605 C.ar    1  LIG1        0.1891
     20 C          -4.5783   -0.7619    0.5517 C.ar    1  LIG1        0.1891
     21 C          -3.9714   -1.9671    0.2965 C.ar    1  LIG1        0.1131
     22 N          -2.6105   -1.7376    0.2987 N.ar    1  LIG1       -0.3458
     23 H          -1.9733   -2.3288   -0.2131 H       1  LIG1        0.1662
     24 O          -3.9125    1.5108    0.9644 O.3     1  LIG1       -0.4895
     25 C          -2.8815    2.4401    1.2557 C.3     1  LIG1        0.0791
     26 H          -3.3851    3.3527    1.5767 H       1  LIG1        0.0660
     27 H          -2.2408    2.0764    2.0667 H       1  LIG1        0.0660
     28 H          -2.2729    2.6447    0.3724 H       1  LIG1        0.0660
     29 O          -5.9217   -0.5622    0.6632 O.3     1  LIG1       -0.4895
     30 C          -6.3564   -0.1392    1.9492 C.3     1  LIG1        0.0791
     31 H          -7.4397   -0.0271    1.8893 H       1  LIG1        0.0660
     32 H          -6.1126   -0.8912    2.7088 H       1  LIG1        0.0660
     33 H          -5.9020    0.8168    2.2220 H       1  LIG1        0.0660
     34 C          -4.4976   -3.3110    0.1352 C.ar    1  LIG1        0.1126
     35 C          -5.5638   -3.8645   -0.5514 C.ar    1  LIG1        0.1884
     36 C          -5.5710   -5.2668   -0.2763 C.ar    1  LIG1        0.1795
     37 C          -4.5180   -5.5376    0.5545 C.ar    1  LIG1        0.0482
     38 N          -3.8450   -4.3628    0.7641 N.ar    1  LIG1       -0.3534
     39 H          -3.1680   -4.2135    1.4928 H       1  LIG1        0.1656
     40 H          -4.1859   -6.4772    0.9661 H       1  LIG1        0.0845
     41 O          -6.4837   -3.3216   -1.3870 O.3     1  LIG1       -0.4895
     42 C          -6.1202   -2.1596   -2.1151 C.3     1  LIG1        0.0791
     43 H          -6.8454   -2.0720   -2.9258 H       1  LIG1        0.0660
     44 H          -6.1650   -1.2675   -1.4880 H       1  LIG1        0.0660
     45 H          -5.1157   -2.2650   -2.5399 H       1  LIG1        0.0660
     46 O          -6.4096   -6.1962   -0.8139 O.3     1  LIG1       -0.4900
     47 C          -7.7839   -5.9821   -0.5250 C.3     1  LIG1        0.0790
     48 H          -8.3333   -6.7865   -1.0167 H       1  LIG1        0.0660
     49 H          -7.9686   -6.0269    0.5555 H       1  LIG1        0.0660
     50 H          -8.1244   -5.0169   -0.9089 H       1  LIG1        0.0660
@<TRIPOS>BOND
     1    15    14    1
     2    17    14    1
     3    43    42    1
     4    16    14    1
     5    14    13    1
     6    45    42    1
     7    42    44    1
     8    42    41    1
     9    41    35    1
    10    13     3    1
    11    48    47    1
    12    50    47    1
    13    46    47    1
    14    46    36    1
    15    10     9    1
    16     8     9    1
    17     8     2    1
    18    35    36   ar
    19    35    34   ar
    20    47    49    1
    21     3     2   ar
    22     3     4   ar
    23    12     9    1
    24    36    37   ar
    25    23    22    1
    26     9    11    1
    27     2     1   ar
    28    34    21    1
    29    34    38   ar
    30    21    22   ar
    31    21    20   ar
    32    22    18   ar
    33    28    25    1
    34     4    18    1
    35     4     5   ar
    36    18    19   ar
    37    20    19   ar
    38    20    29    1
    39    37    38   ar
    40    37    40    1
    41    19    24    1
    42    29    30    1
    43    38    39    1
    44    24    25    1
    45     1     5   ar
    46     1     7    1
    47     5     6    1
    48    25    26    1
    49    25    27    1
    50    31    30    1
    51    30    33    1
    52    30    32    1
