@<TRIPOS>MOLECULE
mol_data/opt/cam/geoms/mol2/13ll6ea13ha-13el-12ef-13ae-6hi4hl.out
 103 110 0 0 0
SMALL
GASTEIGER

@<TRIPOS>ATOM
      1 C           1.4171    0.1602    0.7152 C.ar    1  LIG1        0.0481
      2 C           0.8326    1.3499    1.0882 C.ar    1  LIG1        0.1794
      3 C          -0.5643    1.2172    0.8822 C.ar    1  LIG1        0.1869
      4 C          -0.8027   -0.0614    0.3980 C.ar    1  LIG1        0.0951
      5 N           0.4174   -0.6801    0.3024 N.ar    1  LIG1       -0.3546
      6 H           0.5953   -1.5780   -0.1227 H       1  LIG1        0.1656
      7 H           2.4457   -0.1591    0.7156 H       1  LIG1        0.0845
      8 O           1.4004    2.4837    1.5817 O.3     1  LIG1       -0.4900
      9 C           2.8000    2.4289    1.7342 C.3     1  LIG1        0.0790
     10 H           3.1142    3.3931    2.1339 H       1  LIG1        0.0660
     11 H           3.0945    1.6329    2.4302 H       1  LIG1        0.0660
     12 H           3.2978    2.2570    0.7711 H       1  LIG1        0.0660
     13 O          -1.5149    2.1733    1.0919 O.3     1  LIG1       -0.4895
     14 C          -1.6118    2.6229    2.4382 C.3     1  LIG1        0.0791
     15 H          -2.4031    3.3735    2.4594 H       1  LIG1        0.0660
     16 H          -1.8774    1.7960    3.1067 H       1  LIG1        0.0660
     17 H          -0.6716    3.0709    2.7710 H       1  LIG1        0.0660
     18 C          -2.3886   -2.0348    0.1811 C.ar    1  LIG1        0.1231
     19 C          -2.0820   -0.6673    0.0370 C.ar    1  LIG1        0.0359
     20 C          -3.1180    0.1475   -0.4451 C.ar    1  LIG1       -0.0478
     21 C          -4.3452   -0.3873   -0.7691 C.ar    1  LIG1       -0.0335
     22 C          -4.5434   -1.7671   -0.6147 C.ar    1  LIG1        0.0903
     23 N          -3.5766   -2.5611   -0.1413 N.ar    1  LIG1       -0.2362
     24 H          -2.9408    1.2116   -0.5396 H       1  LIG1        0.0626
     25 C          -1.4476   -2.9791    0.7261 C.1     1  LIG1       -0.0491
     26 C          -0.6980   -3.7975    1.1932 C.1     1  LIG1       -0.1124
     27 H          -0.0405   -4.5230    1.6150 H       1  LIG1        0.1232
     28 H          -5.1594    0.2437   -1.1031 H       1  LIG1        0.0640
     29 C          -5.8077   -2.4203   -0.9007 C.ar    1  LIG1        0.0864
     30 C          -6.9956   -1.9936   -1.4842 C.ar    1  LIG1        0.0523
     31 C          -7.9197   -3.0565   -1.3865 C.ar    1  LIG1       -0.0136
     32 C          -7.2818   -4.1120   -0.7546 C.ar    1  LIG1        0.0665
     33 N          -6.0003   -3.7207   -0.4949 N.ar    1  LIG1       -0.3503
     34 H          -5.2924   -4.1908    0.0494 H       1  LIG1        0.1660
     35 N          -7.2359   -0.7285   -2.0468 N.pl3   1  LIG1       -0.3563
     36 H          -6.5404   -0.4643   -2.7343 H       1  LIG1        0.1424
     37 H          -8.1546   -0.6722   -2.4664 H       1  LIG1        0.1424
     38 H          -8.9363   -3.0689   -1.7497 H       1  LIG1        0.0658
     39 C          -7.7766   -5.4257   -0.4189 C.ar    1  LIG1        0.0827
     40 C          -9.0835   -5.8738   -0.2260 C.ar    1  LIG1        0.0936
     41 C          -9.0006   -7.2565    0.1158 C.ar    1  LIG1        0.1643
     42 C          -7.6683   -7.6229    0.1092 C.ar    1  LIG1        0.1274
     43 N          -6.9470   -6.4839   -0.2011 N.ar    1  LIG1       -0.3466
     44 H          -5.9522   -6.4887   -0.3549 H       1  LIG1        0.1662
     45 C         -10.2655   -5.0910   -0.2718 C.1     1  LIG1       -0.0638
     46 C         -11.2791   -4.4400   -0.3156 C.1     1  LIG1       -0.1137
     47 H         -12.1725   -3.8598   -0.3241 H       1  LIG1        0.1232
     48 O         -10.0185   -8.0641    0.4866 O.3     1  LIG1       -0.4916
     49 C         -11.0001   -8.3186   -0.5117 C.3     1  LIG1        0.0789
     50 H         -11.7666   -8.9296   -0.0352 H       1  LIG1        0.0660
     51 H         -11.4471   -7.3895   -0.8747 H       1  LIG1        0.0660
     52 H         -10.5640   -8.8764   -1.3468 H       1  LIG1        0.0660
     53 C          -6.9821   -8.8572    0.3681 C.ar    1  LIG1        0.1745
     54 C          -7.3394  -10.1812    0.5024 C.ar    1  LIG1        0.1141
     55 C          -6.1103  -10.8863    0.7350 C.ar    1  LIG1        0.1805
     56 C          -5.1008   -9.9758    0.7311 C.ar    1  LIG1        0.1943
     57 O          -5.6324   -8.7277    0.4961 O.2     1  LIG1       -0.4467
     58 C          -8.6041  -10.8079    0.3751 C.1     1  LIG1       -0.0621
     59 C          -9.6372  -11.4144    0.2568 C.1     1  LIG1       -0.1137
     60 H         -10.5570  -11.9444    0.1691 H       1  LIG1        0.1232
     61 O          -6.0378  -12.2241    0.8889 O.3     1  LIG1       -0.5023
     62 H          -5.1135  -12.4960    0.8076 H       1  LIG1        0.2923
     63 C          -3.6747  -10.1011    0.8734 C.ar    1  LIG1        0.0875
     64 C          -2.9081  -11.0531    1.5116 C.ar    1  LIG1       -0.0172
     65 C          -1.5400  -10.7205    1.2900 C.ar    1  LIG1        0.0507
     66 C          -1.5128   -9.5581    0.5228 C.ar    1  LIG1        0.0659
     67 N          -2.8172   -9.2170    0.2778 N.ar    1  LIG1       -0.3506
     68 H          -3.0803   -8.4083   -0.2695 H       1  LIG1        0.1660
     69 H          -3.2671  -11.8689    2.1218 H       1  LIG1        0.0652
     70 C          -0.4246  -11.4577    1.7724 C.1     1  LIG1       -0.0675
     71 C           0.5049  -12.0998    2.1918 C.1     1  LIG1       -0.1138
     72 H           1.3252  -12.6726    2.5581 H       1  LIG1        0.1232
     73 C          -0.5242   -7.8756   -1.0668 C.ar    1  LIG1        0.1261
     74 C          -0.4116   -8.7094    0.0660 C.ar    1  LIG1        0.0393
     75 C           0.7816   -8.6192    0.7762 C.ar    1  LIG1       -0.0444
     76 C           1.7924   -7.7312    0.4126 C.ar    1  LIG1       -0.0237
     77 C           1.5495   -6.9276   -0.7094 C.ar    1  LIG1        0.0779
     78 N           0.4193   -7.0189   -1.4233 N.ar    1  LIG1       -0.2314
     79 H           0.9083   -9.2317    1.6620 H       1  LIG1        0.0628
     80 N          -1.6826   -7.8703   -1.8622 N.pl3   1  LIG1       -0.3426
     81 H          -1.5386   -7.2596   -2.6582 H       1  LIG1        0.1437
     82 H          -1.9719   -8.7955   -2.1606 H       1  LIG1        0.1437
     83 C           3.0376   -7.6017    1.2482 C.3     1  LIG1       -0.0377
     84 H           3.2121   -6.5604    1.5334 H       1  LIG1        0.0278
     85 H           3.9242   -7.9307    0.6999 H       1  LIG1        0.0278
     86 H           2.9504   -8.1948    2.1609 H       1  LIG1        0.0278
     87 C           3.7842   -6.1326   -1.6358 C.ar    1  LIG1        0.0341
     88 C           4.5753   -5.0639   -2.0538 C.ar    1  LIG1       -0.0370
     89 C           2.4893   -5.8590   -1.1579 C.ar    1  LIG1        0.0247
     90 C           4.1143   -3.7526   -2.0181 C.ar    1  LIG1       -0.0182
     91 H           5.5763   -5.2623   -2.4263 H       1  LIG1        0.0637
     92 C           2.0240   -4.5498   -1.1544 C.ar    1  LIG1       -0.0090
     93 C           2.8262   -3.4929   -1.5648 C.ar    1  LIG1        0.1208
     94 H           1.0093   -4.3446   -0.8322 H       1  LIG1        0.0661
     95 H           4.7654   -2.9548   -2.3529 H       1  LIG1        0.0655
     96 N           4.2824   -7.4414   -1.6766 N.pl3   1  LIG1       -0.3575
     97 H           3.5696   -8.1492   -1.7920 H       1  LIG1        0.1423
     98 H           5.0334   -7.5708   -2.3398 H       1  LIG1        0.1423
     99 O           2.2656   -2.2426   -1.4821 O.3     1  LIG1       -0.4951
    100 C           2.9200   -1.1845   -2.1522 C.3     1  LIG1        0.0788
    101 H           2.2736   -0.3134   -2.0521 H       1  LIG1        0.0660
    102 H           3.8930   -0.9574   -1.6996 H       1  LIG1        0.0660
    103 H           3.0662   -1.4181   -3.2129 H       1  LIG1        0.0660
@<TRIPOS>BOND
     1   103   100    1
     2    36    35    1
     3    81    80    1
     4    37    35    1
     5    91    88    1
     6    95    90    1
     7    98    96    1
     8    82    80    1
     9   100   101    1
    10   100   102    1
    11   100    99    1
    12    88    90   ar
    13    88    87   ar
    14    35    30    1
    15    90    93   ar
    16    80    73    1
    17    97    96    1
    18    38    31    1
    19    96    87    1
    20    87    89   ar
    21    93    99    1
    22    93    92   ar
    23    30    31   ar
    24    30    29   ar
    25    78    73   ar
    26    78    77   ar
    27    31    32   ar
    28    52    49    1
    29    89    92   ar
    30    89    77    1
    31    92    94    1
    32    28    21    1
    33    73    74   ar
    34    29    22    1
    35    29    33   ar
    36    51    49    1
    37    21    22   ar
    38    21    20   ar
    39    32    33   ar
    40    32    39    1
    41    77    76   ar
    42    22    23   ar
    43    24    20    1
    44    49    50    1
    45    49    48    1
    46    33    34    1
    47    20    19   ar
    48    39    40   ar
    49    39    43   ar
    50    44    43    1
    51    47    46    1
    52    46    45    3
    53    45    40    1
    54    68    67    1
    55    40    41   ar
    56    43    42   ar
    57    23    18   ar
    58     6     5    1
    59    19    18   ar
    60    19     4    1
    61    74    66    1
    62    74    75   ar
    63    42    41   ar
    64    42    53    1
    65    41    48    1
    66    60    59    1
    67    18    25    1
    68    59    58    3
    69    67    66   ar
    70    67    63   ar
    71     5     4   ar
    72     5     1   ar
    73    53    57   ar
    74    53    54   ar
    75    58    54    1
    76     4     3   ar
    77    76    75   ar
    78    76    83    1
    79    57    56   ar
    80    54    55   ar
    81    66    65   ar
    82    85    83    1
    83     1     7    1
    84     1     2   ar
    85    25    26    3
    86    56    55   ar
    87    56    63    1
    88    55    61    1
    89    12     9    1
    90    75    79    1
    91    62    61    1
    92    63    64   ar
    93     3     2   ar
    94     3    13    1
    95     2     8    1
    96    13    14    1
    97    26    27    1
    98    83    84    1
    99    83    86    1
   100    65    64   ar
   101    65    70    1
   102    64    69    1
   103     8     9    1
   104     9    10    1
   105     9    11    1
   106    70    71    3
   107    71    72    1
   108    14    15    1
   109    14    17    1
   110    14    16    1
