@<TRIPOS>MOLECULE
mol_data/opt/cam/geoms/mol2/13ll13ll-13ll-13ll.out
 66 69 0 0 0
SMALL
GASTEIGER

@<TRIPOS>ATOM
      1 C           1.0923   -0.6832   -0.0598 C.ar    1  LIG1        0.0482
      2 C           0.7576    0.6125   -0.3890 C.ar    1  LIG1        0.1795
      3 C          -0.6611    0.6868   -0.4396 C.ar    1  LIG1        0.1884
      4 C          -1.1526   -0.5656   -0.1342 C.ar    1  LIG1        0.1126
      5 N          -0.0810   -1.3821    0.0982 N.ar    1  LIG1       -0.3534
      6 H          -0.1889   -2.3479    0.3659 H       1  LIG1        0.1656
      7 H           2.0522   -1.1515    0.0785 H       1  LIG1        0.0845
      8 O           1.5640    1.6793   -0.6413 O.3     1  LIG1       -0.4900
      9 C           2.9452    1.4172   -0.5392 C.3     1  LIG1        0.0790
     10 H           3.4628    2.3508   -0.7598 H       1  LIG1        0.0660
     11 H           3.2109    1.0846    0.4721 H       1  LIG1        0.0660
     12 H           3.2582    0.6488   -1.2577 H       1  LIG1        0.0660
     13 O          -1.4566    1.7777   -0.6878 O.3     1  LIG1       -0.4895
     14 C          -1.1805    2.4361   -1.9206 C.3     1  LIG1        0.0791
     15 H          -1.8773    3.2726   -1.9904 H       1  LIG1        0.0660
     16 H          -0.1538    2.8090   -1.9402 H       1  LIG1        0.0660
     17 H          -1.3356    1.7582   -2.7680 H       1  LIG1        0.0660
     18 C          -2.5129   -1.0208   -0.0266 C.ar    1  LIG1        0.1131
     19 C          -3.0225   -2.2830    0.1904 C.ar    1  LIG1        0.1891
     20 C          -4.4381   -2.1834    0.2036 C.ar    1  LIG1        0.1891
     21 C          -4.7687   -0.8520   -0.0135 C.ar    1  LIG1        0.1131
     22 N          -3.5800   -0.1657   -0.1260 N.ar    1  LIG1       -0.3458
     23 H          -3.4550    0.8028   -0.3830 H       1  LIG1        0.1662
     24 O          -2.2446   -3.3907    0.4078 O.3     1  LIG1       -0.4895
     25 C          -2.5316   -4.4861   -0.4574 C.3     1  LIG1        0.0791
     26 H          -1.8691   -5.3004   -0.1597 H       1  LIG1        0.0660
     27 H          -3.5729   -4.7986   -0.3538 H       1  LIG1        0.0660
     28 H          -2.3350   -4.2188   -1.5022 H       1  LIG1        0.0660
     29 O          -5.2846   -3.2439    0.3697 O.3     1  LIG1       -0.4895
     30 C          -5.9979   -3.2482    1.6002 C.3     1  LIG1        0.0791
     31 H          -6.5843   -4.1678    1.6154 H       1  LIG1        0.0660
     32 H          -5.3067   -3.2396    2.4502 H       1  LIG1        0.0660
     33 H          -6.6748   -2.3927    1.6667 H       1  LIG1        0.0660
     34 C          -6.0414   -0.1682   -0.0709 C.ar    1  LIG1        0.1131
     35 C          -7.3179   -0.6046   -0.3998 C.ar    1  LIG1        0.1891
     36 C          -8.1908    0.5112   -0.3105 C.ar    1  LIG1        0.1891
     37 C          -7.4402    1.6053    0.0622 C.ar    1  LIG1        0.1131
     38 N          -6.1412    1.1825    0.1814 N.ar    1  LIG1       -0.3458
     39 H          -5.4182    1.7897    0.5387 H       1  LIG1        0.1662
     40 O          -7.7178   -1.8715   -0.7219 O.3     1  LIG1       -0.4895
     41 C          -7.2541   -2.3397   -1.9823 C.3     1  LIG1        0.0791
     42 H          -7.6933   -3.3276   -2.1265 H       1  LIG1        0.0660
     43 H          -7.5790   -1.6724   -2.7882 H       1  LIG1        0.0660
     44 H          -6.1649   -2.4289   -1.9937 H       1  LIG1        0.0660
     45 O          -9.5322    0.5679   -0.5878 O.3     1  LIG1       -0.4895
     46 C         -10.3213   -0.3662    0.1445 C.3     1  LIG1        0.0791
     47 H         -11.3512   -0.2341   -0.1903 H       1  LIG1        0.0660
     48 H          -9.9946   -1.3890   -0.0553 H       1  LIG1        0.0660
     49 H         -10.2589   -0.1687    1.2210 H       1  LIG1        0.0660
     50 C          -7.8281    2.9701    0.2992 C.ar    1  LIG1        0.1126
     51 C          -7.0895    4.0376    0.7655 C.ar    1  LIG1        0.1884
     52 C          -7.9470    5.1718    0.8004 C.ar    1  LIG1        0.1795
     53 C          -9.1832    4.7641    0.3585 C.ar    1  LIG1        0.0482
     54 N          -9.0963    3.4302    0.0587 N.ar    1  LIG1       -0.3534
     55 H          -9.8237    2.8303   -0.2992 H       1  LIG1        0.1656
     56 H         -10.0979    5.3237    0.2486 H       1  LIG1        0.0845
     57 O          -5.7562    3.9731    1.0965 O.3     1  LIG1       -0.4895
     58 C          -5.4940    4.3112    2.4579 C.3     1  LIG1        0.0791
     59 H          -4.4117    4.2705    2.5888 H       1  LIG1        0.0660
     60 H          -5.8582    5.3167    2.6854 H       1  LIG1        0.0660
     61 H          -5.9740    3.5955    3.1345 H       1  LIG1        0.0660
     62 O          -7.6177    6.4288    1.2290 O.3     1  LIG1       -0.4900
     63 C          -6.6905    7.0875    0.3766 C.3     1  LIG1        0.0790
     64 H          -6.4874    8.0616    0.8244 H       1  LIG1        0.0660
     65 H          -5.7563    6.5218    0.2916 H       1  LIG1        0.0660
     66 H          -7.1125    7.2279   -0.6253 H       1  LIG1        0.0660
@<TRIPOS>BOND
     1    43    41    1
     2    17    14    1
     3    42    41    1
     4    44    41    1
     5    15    14    1
     6    41    40    1
     7    16    14    1
     8    14    13    1
     9    28    25    1
    10    12     9    1
    11    10     9    1
    12    40    35    1
    13    13     3    1
    14     8     9    1
    15     8     2    1
    16    66    63    1
    17    45    36    1
    18    45    46    1
    19     9    11    1
    20    25    27    1
    21    25    26    1
    22    25    24    1
    23     3     2   ar
    24     3     4   ar
    25    35    36   ar
    26    35    34   ar
    27     2     1   ar
    28    23    22    1
    29    36    37   ar
    30    55    54    1
    31    47    46    1
    32     4    18    1
    33     4     5   ar
    34    22    18   ar
    35    22    21   ar
    36    34    21    1
    37    34    38   ar
    38     1     7    1
    39     1     5   ar
    40    48    46    1
    41    18    19   ar
    42    21    20   ar
    43    54    50   ar
    44    54    53   ar
    45    37    38   ar
    46    37    50    1
    47     5     6    1
    48    46    49    1
    49    38    39    1
    50    19    20   ar
    51    19    24    1
    52    20    29    1
    53    56    53    1
    54    65    63    1
    55    50    51   ar
    56    53    52   ar
    57    29    30    1
    58    63    64    1
    59    63    62    1
    60    51    52   ar
    61    51    57    1
    62    52    62    1
    63    57    58    1
    64    30    31    1
    65    30    33    1
    66    30    32    1
    67    58    59    1
    68    58    60    1
    69    58    61    1
