@<TRIPOS>MOLECULE
mol_data/opt/cam/geoms/mol2/13ll13ll13ll13ll-.out
 66 69 0 0 0
SMALL
GASTEIGER

@<TRIPOS>ATOM
      1 C           1.4606   -0.2392    0.3009 C.ar    1  LIG1        0.0482
      2 C           1.1864    0.8825   -0.4448 C.ar    1  LIG1        0.1795
      3 C          -0.2286    0.9867   -0.5665 C.ar    1  LIG1        0.1884
      4 C          -0.7910   -0.0657    0.1256 C.ar    1  LIG1        0.1126
      5 N           0.2526   -0.8078    0.6330 N.ar    1  LIG1       -0.3534
      6 H           0.1266   -1.5652    1.2825 H       1  LIG1        0.1656
      7 H           2.3954   -0.6713    0.6166 H       1  LIG1        0.0845
      8 O           2.0355    1.7712   -1.0244 O.3     1  LIG1       -0.4900
      9 C           3.4048    1.5138   -0.8094 C.3     1  LIG1        0.0790
     10 H           3.9598    2.2991   -1.3223 H       1  LIG1        0.0660
     11 H           3.6487    1.5366    0.2603 H       1  LIG1        0.0660
     12 H           3.6951    0.5371   -1.2175 H       1  LIG1        0.0660
     13 O          -0.9215    1.9691   -1.2112 O.3     1  LIG1       -0.4895
     14 C          -0.6790    2.0423   -2.6102 C.3     1  LIG1        0.0791
     15 H          -1.2943    2.8588   -2.9902 H       1  LIG1        0.0660
     16 H           0.3748    2.2497   -2.8166 H       1  LIG1        0.0660
     17 H          -0.9702    1.1087   -3.1052 H       1  LIG1        0.0660
     18 C          -2.1675   -0.5055    0.2951 C.ar    1  LIG1        0.1131
     19 C          -3.3467    0.0845    0.7023 C.ar    1  LIG1        0.1891
     20 C          -4.3829   -0.8963    0.5999 C.ar    1  LIG1        0.1891
     21 C          -3.8265   -2.0652    0.1391 C.ar    1  LIG1        0.1131
     22 N          -2.4716   -1.8377   -0.0048 N.ar    1  LIG1       -0.3458
     23 H          -1.9260   -2.3381   -0.6909 H       1  LIG1        0.1662
     24 O          -3.6372    1.3069    1.2021 O.3     1  LIG1       -0.4895
     25 C          -2.5617    2.1625    1.5534 C.3     1  LIG1        0.0791
     26 H          -3.0119    3.0100    2.0718 H       1  LIG1        0.0660
     27 H          -1.8614    1.6566    2.2274 H       1  LIG1        0.0660
     28 H          -2.0292    2.5128    0.6671 H       1  LIG1        0.0660
     29 O          -5.6965   -0.7075    0.9011 O.3     1  LIG1       -0.4895
     30 C          -5.9631   -0.4974    2.2811 C.3     1  LIG1        0.0791
     31 H          -7.0422   -0.3671    2.3728 H       1  LIG1        0.0660
     32 H          -5.6529   -1.3656    2.8743 H       1  LIG1        0.0660
     33 H          -5.4525    0.3975    2.6477 H       1  LIG1        0.0660
     34 C          -4.3916   -3.3700   -0.1248 C.ar    1  LIG1        0.1131
     35 C          -5.6477   -3.7971   -0.5358 C.ar    1  LIG1        0.1891
     36 C          -5.6012   -5.2126   -0.6398 C.ar    1  LIG1        0.1891
     37 C          -4.3300   -5.6241   -0.3007 C.ar    1  LIG1        0.1131
     38 N          -3.6044   -4.4977   -0.0196 N.ar    1  LIG1       -0.3458
     39 H          -2.6697   -4.5428    0.3576 H       1  LIG1        0.1662
     40 O          -6.7712   -3.0703   -0.7933 O.3     1  LIG1       -0.4895
     41 C          -6.6516   -2.0877   -1.8125 C.3     1  LIG1        0.0791
     42 H          -7.6585   -1.7087   -1.9929 H       1  LIG1        0.0660
     43 H          -6.0133   -1.2598   -1.4967 H       1  LIG1        0.0660
     44 H          -6.2582   -2.5299   -2.7348 H       1  LIG1        0.0660
     45 O          -6.5886   -6.0662   -1.0589 O.3     1  LIG1       -0.4895
     46 C          -7.8071   -5.9571   -0.3276 C.3     1  LIG1        0.0791
     47 H          -8.5051   -6.6641   -0.7788 H       1  LIG1        0.0660
     48 H          -7.6531   -6.2176    0.7261 H       1  LIG1        0.0660
     49 H          -8.2089   -4.9441   -0.3952 H       1  LIG1        0.0660
     50 C          -3.7599   -6.9436   -0.2389 C.ar    1  LIG1        0.1126
     51 C          -2.5178   -7.3544    0.1992 C.ar    1  LIG1        0.1884
     52 C          -2.4483   -8.7635    0.0259 C.ar    1  LIG1        0.1795
     53 C          -3.6505   -9.1746   -0.5074 C.ar    1  LIG1        0.0482
     54 N          -4.4309   -8.0542   -0.6685 N.ar    1  LIG1       -0.3534
     55 H          -5.3611   -8.0029   -1.0539 H       1  LIG1        0.1656
     56 H          -4.0024  -10.1536   -0.7860 H       1  LIG1        0.0845
     57 O          -1.5487   -6.5007    0.6679 O.3     1  LIG1       -0.4895
     58 C          -1.0661   -6.8312    1.9660 C.3     1  LIG1        0.0791
     59 H          -0.3061   -6.0893    2.2167 H       1  LIG1        0.0660
     60 H          -1.8744   -6.7911    2.7055 H       1  LIG1        0.0660
     61 H          -0.6202   -7.8288    1.9730 H       1  LIG1        0.0660
     62 O          -1.3515   -9.4963    0.3621 O.3     1  LIG1       -0.4900
     63 C          -1.4637  -10.8798    0.1163 C.3     1  LIG1        0.0790
     64 H          -0.5226  -11.3348    0.4251 H       1  LIG1        0.0660
     65 H          -2.2875  -11.3205    0.6924 H       1  LIG1        0.0660
     66 H          -1.6315  -11.0796   -0.9495 H       1  LIG1        0.0660
@<TRIPOS>BOND
     1    17    14    1
     2    15    14    1
     3    16    14    1
     4    44    41    1
     5    14    13    1
     6    42    41    1
     7    41    43    1
     8    41    40    1
     9    10     9    1
    10    12     9    1
    11    13     3    1
    12    45    36    1
    13    45    46    1
    14    55    54    1
    15     8     9    1
    16     8     2    1
    17    66    63    1
    18     9    11    1
    19    40    35    1
    20    56    53    1
    21    47    46    1
    22    23    22    1
    23    54    53   ar
    24    54    50   ar
    25    36    35   ar
    26    36    37   ar
    27     3     2   ar
    28     3     4   ar
    29    35    34   ar
    30    53    52   ar
    31     2     1   ar
    32    49    46    1
    33    46    48    1
    34    37    50    1
    35    37    38   ar
    36    50    51   ar
    37    34    38   ar
    38    34    21    1
    39    38    39    1
    40    22    21   ar
    41    22    18   ar
    42    52    51   ar
    43    52    62    1
    44    63    62    1
    45    63    64    1
    46    63    65    1
    47     4    18    1
    48     4     5   ar
    49    21    20   ar
    50    51    57    1
    51    18    19   ar
    52     1     7    1
    53     1     5   ar
    54    20    19   ar
    55    20    29    1
    56     5     6    1
    57    28    25    1
    58    57    58    1
    59    19    24    1
    60    29    30    1
    61    24    25    1
    62    25    26    1
    63    25    27    1
    64    58    61    1
    65    58    59    1
    66    58    60    1
    67    30    31    1
    68    30    33    1
    69    30    32    1
