@<TRIPOS>MOLECULE
mol_data/opt/cam/geoms/mol2/13ll6de4lf-6li-.out
 61 64 0 0 0
SMALL
GASTEIGER

@<TRIPOS>ATOM
      1 C           1.3833    0.1470    1.0517 C.ar    1  LIG1        0.0481
      2 C           1.0814    1.1034    0.0964 C.ar    1  LIG1        0.1794
      3 C          -0.2545    0.8717   -0.3271 C.ar    1  LIG1        0.1869
      4 C          -0.7492   -0.2364    0.3811 C.ar    1  LIG1        0.0952
      5 N           0.2821   -0.6510    1.2058 N.ar    1  LIG1       -0.3546
      6 H           0.2336   -1.4299    1.8446 H       1  LIG1        0.1656
      7 H           2.2851   -0.0319    1.6142 H       1  LIG1        0.0845
      8 O           1.8543    2.1075   -0.4069 O.3     1  LIG1       -0.4900
      9 C           3.1676    2.1884    0.1263 C.3     1  LIG1        0.0790
     10 H           3.6547    3.0275   -0.3719 H       1  LIG1        0.0660
     11 H           3.1481    2.3687    1.2096 H       1  LIG1        0.0660
     12 H           3.7337    1.2688   -0.0727 H       1  LIG1        0.0660
     13 O          -0.9339    1.5638   -1.2887 O.3     1  LIG1       -0.4895
     14 C          -1.0334    2.9789   -1.0746 C.3     1  LIG1        0.0791
     15 H          -1.6160    3.3700   -1.9105 H       1  LIG1        0.0660
     16 H          -1.5533    3.1931   -0.1330 H       1  LIG1        0.0660
     17 H          -0.0449    3.4449   -1.0609 H       1  LIG1        0.0660
     18 C          -2.5402   -1.8829    1.1789 C.ar    1  LIG1        0.1500
     19 C          -2.0561   -0.8726    0.3057 C.ar    1  LIG1        0.0390
     20 C          -2.9594   -0.5101   -0.7147 C.ar    1  LIG1       -0.0323
     21 C          -4.2326   -1.0716   -0.8043 C.ar    1  LIG1        0.0514
     22 C          -4.6293   -2.0252    0.1799 C.ar    1  LIG1        0.0914
     23 N          -3.7685   -2.4232    1.1138 N.ar    1  LIG1       -0.2343
     24 H          -2.6470    0.2105   -1.4580 H       1  LIG1        0.0638
     25 N          -1.0441   -2.8663    3.0704 N.1     1  LIG1       -0.1893
     26 C          -1.7311   -2.4328    2.2355 C.1     1  LIG1        0.1198
     27 C          -5.0532   -0.7324   -1.9219 C.1     1  LIG1       -0.0675
     28 C          -5.6901   -0.4437   -2.9092 C.1     1  LIG1       -0.1138
     29 H          -6.2643   -0.2017   -3.7734 H       1  LIG1        0.1232
     30 C          -7.1662   -1.9566    0.1823 C.ar    1  LIG1        0.1301
     31 C          -8.3839   -2.6410    0.1814 C.ar    1  LIG1       -0.0079
     32 C          -5.9609   -2.6852    0.1920 C.ar    1  LIG1        0.0467
     33 C          -8.4445   -4.0416    0.2119 C.ar    1  LIG1        0.0321
     34 H          -9.3185   -2.0946    0.1496 H       1  LIG1        0.0661
     35 C          -6.0238   -4.0798    0.2702 C.ar    1  LIG1       -0.0068
     36 C          -7.2393   -4.7616    0.2804 C.ar    1  LIG1        0.1256
     37 H          -5.0903   -4.6334    0.3301 H       1  LIG1        0.0662
     38 O          -7.0545   -0.5938    0.2150 O.3     1  LIG1       -0.4944
     39 C          -8.2299    0.1837    0.0706 C.3     1  LIG1        0.0788
     40 H          -7.9035    1.2246    0.0706 H       1  LIG1        0.0660
     41 H          -8.7457   -0.0342   -0.8732 H       1  LIG1        0.0660
     42 H          -8.9262    0.0263    0.9047 H       1  LIG1        0.0660
     43 O          -7.3079   -6.1239    0.3820 O.3     1  LIG1       -0.5061
     44 H          -6.4106   -6.4799    0.4102 H       1  LIG1        0.2922
     45 C         -10.1563   -5.6466   -0.7774 C.ar    1  LIG1        0.2225
     46 C          -9.7637   -4.7241    0.2276 C.ar    1  LIG1        0.0475
     47 C         -10.7016   -4.4636    1.2204 C.ar    1  LIG1       -0.0445
     48 C         -11.9538   -5.1020    1.2338 C.ar    1  LIG1       -0.0315
     49 C         -12.1947   -6.0025    0.2023 C.ar    1  LIG1        0.0343
     50 N         -11.3252   -6.2696   -0.7862 N.ar    1  LIG1       -0.2206
     51 H         -10.4421   -3.7644    2.0119 H       1  LIG1        0.0628
     52 H         -13.1396   -6.5428    0.1582 H       1  LIG1        0.0833
     53 O          -9.2841   -5.8649   -1.7859 O.3     1  LIG1       -0.4792
     54 C          -9.6621   -6.8228   -2.7753 C.3     1  LIG1        0.0804
     55 H          -8.8278   -6.8561   -3.4775 H       1  LIG1        0.0660
     56 H          -9.8233   -7.8085   -2.3293 H       1  LIG1        0.0660
     57 H         -10.5799   -6.5222   -3.2890 H       1  LIG1        0.0660
     58 C         -12.9711   -4.8367    2.3149 C.3     1  LIG1       -0.0383
     59 H         -13.8746   -5.4333    2.1600 H       1  LIG1        0.0278
     60 H         -13.2702   -3.7823    2.3391 H       1  LIG1        0.0278
     61 H         -12.5772   -5.0825    3.3078 H       1  LIG1        0.0278
@<TRIPOS>BOND
     1    29    28    1
     2    55    54    1
     3    57    54    1
     4    28    27    3
     5    54    56    1
     6    54    53    1
     7    27    21    1
     8    15    14    1
     9    53    45    1
    10    24    20    1
    11    13    14    1
    12    13     3    1
    13    14    17    1
    14    14    16    1
    15    41    39    1
    16    21    20   ar
    17    21    22   ar
    18    50    45   ar
    19    50    49   ar
    20    45    46   ar
    21    20    19   ar
    22     8     2    1
    23     8     9    1
    24    10     9    1
    25     3     2   ar
    26     3     4   ar
    27    12     9    1
    28    40    39    1
    29    39    38    1
    30    39    42    1
    31     2     1   ar
    32     9    11    1
    33    34    31    1
    34    52    49    1
    35    22    32    1
    36    22    23   ar
    37    31    30   ar
    38    31    33   ar
    39    30    32   ar
    40    30    38    1
    41    32    35   ar
    42    49    48   ar
    43    33    46    1
    44    33    36   ar
    45    46    47   ar
    46    35    36   ar
    47    35    37    1
    48    36    43    1
    49    19     4    1
    50    19    18   ar
    51     4     5   ar
    52    43    44    1
    53     1     5   ar
    54     1     7    1
    55    23    18   ar
    56    18    26    1
    57     5     6    1
    58    47    48   ar
    59    47    51    1
    60    48    58    1
    61    59    58    1
    62    26    25    3
    63    58    60    1
    64    58    61    1
