@<TRIPOS>MOLECULE
mol_data/opt/cam/geoms/mol2/13ll13ll13ll-13ll.out
 66 69 0 0 0
SMALL
GASTEIGER

@<TRIPOS>ATOM
      1 C           1.2193    0.0374   -1.4035 C.ar    1  LIG1        0.0482
      2 C           1.1910    0.8818   -0.3195 C.ar    1  LIG1        0.1795
      3 C          -0.1241    0.8432    0.2256 C.ar    1  LIG1        0.1884
      4 C          -0.8790   -0.0120   -0.5489 C.ar    1  LIG1        0.1126
      5 N          -0.0400   -0.5045   -1.5250 N.ar    1  LIG1       -0.3534
      6 H          -0.3643   -1.0427   -2.3105 H       1  LIG1        0.1656
      7 H           2.0136   -0.2182   -2.0850 H       1  LIG1        0.0845
      8 O           2.1848    1.6319    0.2261 O.3     1  LIG1       -0.4900
      9 C           3.4241    1.5521   -0.4402 C.3     1  LIG1        0.0790
     10 H           4.1162    2.2002    0.0973 H       1  LIG1        0.0660
     11 H           3.8118    0.5251   -0.4385 H       1  LIG1        0.0660
     12 H           3.3382    1.8951   -1.4791 H       1  LIG1        0.0660
     13 O          -0.5817    1.5558    1.2955 O.3     1  LIG1       -0.4895
     14 C           0.0482    1.2360    2.5287 C.3     1  LIG1        0.0791
     15 H          -0.4112    1.8712    3.2873 H       1  LIG1        0.0660
     16 H          -0.1167    0.1842    2.7890 H       1  LIG1        0.0660
     17 H           1.1228    1.4358    2.4849 H       1  LIG1        0.0660
     18 C          -2.2504   -0.4886   -0.4398 C.ar    1  LIG1        0.1131
     19 C          -3.5013    0.1102   -0.3670 C.ar    1  LIG1        0.1891
     20 C          -4.4683   -0.9293   -0.2913 C.ar    1  LIG1        0.1891
     21 C          -3.8030   -2.1369   -0.3205 C.ar    1  LIG1        0.1131
     22 N          -2.4711   -1.8589   -0.4205 N.ar    1  LIG1       -0.3458
     23 H          -1.7585   -2.5684   -0.3501 H       1  LIG1        0.1662
     24 O          -3.8967    1.4073   -0.3935 O.3     1  LIG1       -0.4895
     25 C          -2.9414    2.3924   -0.7490 C.3     1  LIG1        0.0791
     26 H          -3.4990    3.3236   -0.8594 H       1  LIG1        0.0660
     27 H          -2.1835    2.5075    0.0286 H       1  LIG1        0.0660
     28 H          -2.4567    2.1467   -1.7006 H       1  LIG1        0.0660
     29 O          -5.8291   -0.8110   -0.1741 O.3     1  LIG1       -0.4895
     30 C          -6.4537   -0.1087   -1.2440 C.3     1  LIG1        0.0791
     31 H          -7.5254   -0.1214   -1.0398 H       1  LIG1        0.0660
     32 H          -6.0967    0.9225   -1.2918 H       1  LIG1        0.0660
     33 H          -6.2603   -0.6058   -2.2019 H       1  LIG1        0.0660
     34 C          -4.3192   -3.4763   -0.2290 C.ar    1  LIG1        0.1131
     35 C          -3.6573   -4.6921   -0.2263 C.ar    1  LIG1        0.1891
     36 C          -4.6445   -5.7090   -0.1227 C.ar    1  LIG1        0.1891
     37 C          -5.8808   -5.0826   -0.0715 C.ar    1  LIG1        0.1131
     38 N          -5.6613   -3.7380   -0.1388 N.ar    1  LIG1       -0.3458
     39 H          -6.3784   -3.0260   -0.0914 H       1  LIG1        0.1662
     40 O          -2.2984   -4.7695   -0.3838 O.3     1  LIG1       -0.4895
     41 C          -1.6478   -5.8625    0.2415 C.3     1  LIG1        0.0791
     42 H          -0.5842   -5.7547    0.0247 H       1  LIG1        0.0660
     43 H          -1.7947   -5.8398    1.3283 H       1  LIG1        0.0660
     44 H          -2.0067   -6.8153   -0.1544 H       1  LIG1        0.0660
     45 O          -4.4618   -7.0767   -0.0907 O.3     1  LIG1       -0.4895
     46 C          -4.4841   -7.6266    1.2244 C.3     1  LIG1        0.0791
     47 H          -4.3341   -8.7028    1.1184 H       1  LIG1        0.0660
     48 H          -3.6823   -7.2090    1.8416 H       1  LIG1        0.0660
     49 H          -5.4440   -7.4372    1.7157 H       1  LIG1        0.0660
     50 C          -7.2060   -5.6446   -0.0189 C.ar    1  LIG1        0.1126
     51 C          -8.4254   -5.0290    0.1696 C.ar    1  LIG1        0.1884
     52 C          -9.4331   -6.0309    0.0917 C.ar    1  LIG1        0.1795
     53 C          -8.8040   -7.2280   -0.1457 C.ar    1  LIG1        0.0482
     54 N          -7.4545   -6.9833   -0.1985 N.ar    1  LIG1       -0.3534
     55 H          -6.7340   -7.6350   -0.4663 H       1  LIG1        0.1656
     56 H          -9.2164   -8.2173   -0.2600 H       1  LIG1        0.0845
     57 O          -8.5980   -3.6805    0.3555 O.3     1  LIG1       -0.4895
     58 C          -9.1172   -3.3456    1.6405 C.3     1  LIG1        0.0791
     59 H          -9.2358   -2.2615    1.6583 H       1  LIG1        0.0660
     60 H         -10.0846   -3.8289    1.8066 H       1  LIG1        0.0660
     61 H          -8.4224   -3.6497    2.4309 H       1  LIG1        0.0660
     62 O         -10.7758   -5.8483    0.2714 O.3     1  LIG1       -0.4900
     63 C         -11.3766   -5.0493   -0.7396 C.3     1  LIG1        0.0790
     64 H         -12.4300   -4.9465   -0.4745 H       1  LIG1        0.0660
     65 H         -10.9127   -4.0589   -0.7915 H       1  LIG1        0.0660
     66 H         -11.2936   -5.5327   -1.7199 H       1  LIG1        0.0660
@<TRIPOS>BOND
     1     6     5    1
     2    33    30    1
     3     7     1    1
     4    66    63    1
     5    28    25    1
     6     5     1   ar
     7     5     4   ar
     8    12     9    1
     9     1     2   ar
    10    32    30    1
    11    30    31    1
    12    30    29    1
    13    26    25    1
    14    65    63    1
    15    25    24    1
    16    25    27    1
    17    63    64    1
    18    63    62    1
    19     4    18    1
    20     4     3   ar
    21    55    54    1
    22     9    11    1
    23     9    10    1
    24     9     8    1
    25    18    22   ar
    26    18    19   ar
    27    22    23    1
    28    22    21   ar
    29    24    19    1
    30    40    35    1
    31    40    41    1
    32    19    20   ar
    33    21    20   ar
    34    21    34    1
    35     2     3   ar
    36     2     8    1
    37    20    29    1
    38    56    53    1
    39    34    35   ar
    40    34    38   ar
    41    35    36   ar
    42    54    53   ar
    43    54    50   ar
    44    44    41    1
    45    53    52   ar
    46    38    39    1
    47    38    37   ar
    48    36    45    1
    49    36    37   ar
    50    45    46    1
    51    37    50    1
    52    50    51   ar
    53    42    41    1
    54    52    51   ar
    55    52    62    1
    56    51    57    1
    57     3    13    1
    58    41    43    1
    59    57    58    1
    60    47    46    1
    61    46    49    1
    62    46    48    1
    63    13    14    1
    64    58    59    1
    65    58    60    1
    66    58    61    1
    67    17    14    1
    68    14    16    1
    69    14    15    1
