@<TRIPOS>MOLECULE
mol_data/opt/cam/geoms/mol2/13ll12fd13li-12di-.out
 53 56 0 0 0
SMALL
GASTEIGER

@<TRIPOS>ATOM
      1 C           1.4628   -0.1460    0.8173 C.ar    1  LIG1        0.0482
      2 C           1.1987    1.0340    0.1612 C.ar    1  LIG1        0.1795
      3 C          -0.1642    1.0090   -0.2478 C.ar    1  LIG1        0.1900
      4 C          -0.7014   -0.1857    0.1877 C.ar    1  LIG1        0.1318
      5 N           0.3019   -0.8834    0.8157 N.ar    1  LIG1       -0.3521
      6 H           0.1751   -1.7699    1.2709 H       1  LIG1        0.1656
      7 H           2.3682   -0.5222    1.2634 H       1  LIG1        0.0845
      8 O           2.0186    2.0805   -0.1113 O.3     1  LIG1       -0.4900
      9 C           3.3457    1.9330    0.3406 C.3     1  LIG1        0.0790
     10 H           3.8814    2.8369    0.0515 H       1  LIG1        0.0660
     11 H           3.3845    1.8210    1.4319 H       1  LIG1        0.0660
     12 H           3.8271    1.0622   -0.1223 H       1  LIG1        0.0660
     13 O          -0.8102    1.9319   -1.0050 O.3     1  LIG1       -0.4894
     14 C          -0.9871    3.1940   -0.3727 C.3     1  LIG1        0.0791
     15 H          -1.4670    3.8423   -1.1070 H       1  LIG1        0.0660
     16 H          -1.6367    3.0970    0.5032 H       1  LIG1        0.0660
     17 H          -0.0250    3.6250   -0.0802 H       1  LIG1        0.0660
     18 C          -2.0395   -0.6974    0.0629 C.ar    1  LIG1        0.1980
     19 C          -3.2722   -0.1236    0.0340 C.ar    1  LIG1        0.1827
     20 C          -4.2339   -1.1827   -0.1049 C.ar    1  LIG1        0.1410
     21 C          -3.5156   -2.3566   -0.1357 C.ar    1  LIG1        0.1765
     22 O          -2.1990   -2.0690   -0.0384 O.2     1  LIG1       -0.4465
     23 O          -3.5422    1.1902    0.1515 O.3     1  LIG1       -0.5023
     24 H          -4.4973    1.3265    0.0859 H       1  LIG1        0.2923
     25 N          -6.7280   -0.5688   -0.1104 N.1     1  LIG1       -0.1906
     26 C          -5.6268   -0.9297   -0.1292 C.1     1  LIG1        0.1067
     27 C          -3.8443   -3.7463   -0.2466 C.ar    1  LIG1        0.1265
     28 C          -5.0584   -4.4034   -0.3951 C.ar    1  LIG1        0.1519
     29 C          -4.8212   -5.7937   -0.4865 C.ar    1  LIG1        0.0203
     30 C          -3.4434   -5.9499   -0.3761 C.ar    1  LIG1        0.0904
     31 N          -2.8734   -4.7100   -0.2406 N.ar    1  LIG1       -0.3461
     32 H          -1.8831   -4.5316   -0.2002 H       1  LIG1        0.1662
     33 O          -6.2534   -3.7738   -0.5258 O.3     1  LIG1       -0.4926
     34 C          -7.1321   -3.8876    0.5908 C.3     1  LIG1        0.0789
     35 H          -7.9837   -3.2437    0.3751 H       1  LIG1        0.0660
     36 H          -7.4690   -4.9203    0.7274 H       1  LIG1        0.0660
     37 H          -6.6441   -3.5423    1.5080 H       1  LIG1        0.0660
     38 C          -5.8699   -6.8220   -0.7632 C.3     1  LIG1       -0.0341
     39 H          -6.2228   -7.3217    0.1430 H       1  LIG1        0.0279
     40 H          -5.4969   -7.6010   -1.4318 H       1  LIG1        0.0279
     41 H          -6.7245   -6.3423   -1.2457 H       1  LIG1        0.0279
     42 C          -2.5934   -7.1108   -0.4250 C.ar    1  LIG1        0.1688
     43 C          -2.7465   -8.4471   -0.1433 C.ar    1  LIG1        0.1017
     44 C          -1.4743   -9.0830   -0.3934 C.ar    1  LIG1        0.0054
     45 C          -0.6538   -8.0855   -0.7854 C.ar    1  LIG1        0.0968
     46 O          -1.3136   -6.8890   -0.8109 O.2     1  LIG1       -0.4599
     47 H           0.3844   -8.0572   -1.0747 H       1  LIG1        0.1032
     48 N          -4.7936   -9.6512    0.8549 N.1     1  LIG1       -0.1907
     49 C          -3.8877   -9.0950    0.3955 C.1     1  LIG1        0.1033
     50 C          -1.1634  -10.5332   -0.2275 C.3     1  LIG1       -0.0355
     51 H          -0.1139  -10.7358   -0.4484 H       1  LIG1        0.0279
     52 H          -1.7764  -11.1454   -0.8947 H       1  LIG1        0.0279
     53 H          -1.3676  -10.8640    0.7945 H       1  LIG1        0.0279
@<TRIPOS>BOND
     1    40    38    1
     2    41    38    1
     3    15    14    1
     4    47    45    1
     5    13    14    1
     6    13     3    1
     7    52    50    1
     8    46    45   ar
     9    46    42   ar
    10    45    44   ar
    11    38    29    1
    12    38    39    1
    13    33    28    1
    14    33    34    1
    15    29    28   ar
    16    29    30   ar
    17    51    50    1
    18    42    30    1
    19    42    43   ar
    20    28    27   ar
    21    44    50    1
    22    44    43   ar
    23    30    31   ar
    24    14    17    1
    25    14    16    1
    26     3     2   ar
    27     3     4   ar
    28    27    31   ar
    29    27    21    1
    30    31    32    1
    31    50    53    1
    32    43    49    1
    33    21    20   ar
    34    21    22   ar
    35    26    25    3
    36    26    20    1
    37    12     9    1
    38     8     2    1
    39     8     9    1
    40    20    19   ar
    41    22    18   ar
    42    19    18   ar
    43    19    23    1
    44    10     9    1
    45    18     4    1
    46    24    23    1
    47     2     1   ar
    48     4     5   ar
    49     9    11    1
    50    35    34    1
    51    49    48    3
    52    34    36    1
    53    34    37    1
    54     5     1   ar
    55     5     6    1
    56     1     7    1
