@<TRIPOS>MOLECULE
mol_data/opt/cam/geoms/mol2/13ll13ll.out
 34 35 0 0 0
SMALL
GASTEIGER

@<TRIPOS>ATOM
      1 C           1.2572   -0.3192   -0.6785 C.ar    1  LIG1        0.0482
      2 C           1.0526    0.9752   -0.2645 C.ar    1  LIG1        0.1795
      3 C          -0.3218    1.1049    0.0880 C.ar    1  LIG1        0.1884
      4 C          -0.9317   -0.1107   -0.1351 C.ar    1  LIG1        0.1126
      5 N           0.0481   -0.9701   -0.5835 N.ar    1  LIG1       -0.3534
      6 H          -0.1521   -1.8747   -0.9754 H       1  LIG1        0.1656
      7 H           2.1450   -0.8221   -1.0241 H       1  LIG1        0.0845
      8 O           1.9361    2.0017   -0.1501 O.3     1  LIG1       -0.4900
      9 C           3.2550    1.6989   -0.5449 C.3     1  LIG1        0.0790
     10 H           3.8440    2.6055   -0.4063 H       1  LIG1        0.0660
     11 H           3.6787    0.8927    0.0678 H       1  LIG1        0.0660
     12 H           3.2937    1.3987   -1.5997 H       1  LIG1        0.0660
     13 O          -0.9525    2.2347    0.5194 O.3     1  LIG1       -0.4895
     14 C          -0.4579    2.7578    1.7448 C.3     1  LIG1        0.0791
     15 H          -1.0500    3.6470    1.9651 H       1  LIG1        0.0660
     16 H          -0.5806    2.0312    2.5565 H       1  LIG1        0.0660
     17 H           0.5975    3.0315    1.6594 H       1  LIG1        0.0660
     18 C          -2.2913   -0.5817    0.0928 C.ar    1  LIG1        0.1126
     19 C          -3.5507   -0.1866   -0.3216 C.ar    1  LIG1        0.1884
     20 C          -4.4997   -1.0753    0.2718 C.ar    1  LIG1        0.1795
     21 C          -3.8083   -1.9878    1.0210 C.ar    1  LIG1        0.0482
     22 N          -2.4754   -1.7144    0.8790 N.ar    1  LIG1       -0.3534
     23 H          -1.7505   -2.0776    1.4743 H       1  LIG1        0.1656
     24 H          -4.1716   -2.8196    1.6031 H       1  LIG1        0.0845
     25 O          -3.9730    0.7924   -1.1579 O.3     1  LIG1       -0.4895
     26 C          -3.0022    1.4899   -1.9179 C.3     1  LIG1        0.0791
     27 H          -3.5607    2.1119   -2.6187 H       1  LIG1        0.0660
     28 H          -2.3763    2.1210   -1.2825 H       1  LIG1        0.0660
     29 H          -2.3690    0.7943   -2.4798 H       1  LIG1        0.0660
     30 O          -5.8461   -1.0847    0.0612 O.3     1  LIG1       -0.4900
     31 C          -6.5098    0.1051    0.4627 C.3     1  LIG1        0.0790
     32 H          -7.5684   -0.0399    0.2413 H       1  LIG1        0.0660
     33 H          -6.3864    0.2787    1.5389 H       1  LIG1        0.0660
     34 H          -6.1358    0.9730   -0.0870 H       1  LIG1        0.0660
@<TRIPOS>BOND
     1    27    26    1
     2    29    26    1
     3    26    28    1
     4    26    25    1
     5    12     9    1
     6    25    19    1
     7     7     1    1
     8     6     5    1
     9     1     5   ar
    10     1     2   ar
    11     5     4   ar
    12     9    10    1
    13     9     8    1
    14     9    11    1
    15    19    18   ar
    16    19    20   ar
    17     2     8    1
    18     2     3   ar
    19     4     3   ar
    20     4    18    1
    21    34    31    1
    22    30    20    1
    23    30    31    1
    24     3    13    1
    25    18    22   ar
    26    32    31    1
    27    20    21   ar
    28    31    33    1
    29    13    14    1
    30    22    21   ar
    31    22    23    1
    32    21    24    1
    33    17    14    1
    34    14    15    1
    35    14    16    1
