@<TRIPOS>MOLECULE
mol_data/opt/cam/geoms/mol2/13ll13ll-13ll-13ll-.out
 66 69 0 0 0
SMALL
GASTEIGER

@<TRIPOS>ATOM
      1 C           0.9585   -0.1052   -0.4424 C.ar    1  LIG1        0.0482
      2 C           0.4083    1.0277   -1.0018 C.ar    1  LIG1        0.1795
      3 C          -1.0035    0.9257   -0.8716 C.ar    1  LIG1        0.1884
      4 C          -1.2749   -0.2655   -0.2311 C.ar    1  LIG1        0.1126
      5 N          -0.0789   -0.8750    0.0268 N.ar    1  LIG1       -0.3534
      6 H          -0.0213   -1.7560    0.5137 H       1  LIG1        0.1656
      7 H           1.9847   -0.4145   -0.3371 H       1  LIG1        0.0845
      8 O           1.0213    2.0888   -1.5947 O.3     1  LIG1       -0.4900
      9 C           2.4285    2.0177   -1.6302 C.3     1  LIG1        0.0790
     10 H           2.7802    2.9240   -2.1230 H       1  LIG1        0.0660
     11 H           2.8478    1.9689   -0.6173 H       1  LIG1        0.0660
     12 H           2.7684    1.1405   -2.1957 H       1  LIG1        0.0660
     13 O          -1.9659    1.8293   -1.2477 O.3     1  LIG1       -0.4895
     14 C          -1.9267    2.1816   -2.6268 C.3     1  LIG1        0.0791
     15 H          -2.7348    2.8964   -2.7901 H       1  LIG1        0.0660
     16 H          -0.9702    2.6433   -2.8836 H       1  LIG1        0.0660
     17 H          -2.0846    1.3005   -3.2597 H       1  LIG1        0.0660
     18 C          -2.5349   -0.8412    0.1613 C.ar    1  LIG1        0.1131
     19 C          -2.8172   -2.0704    0.7142 C.ar    1  LIG1        0.1891
     20 C          -4.2215   -2.1497    0.9224 C.ar    1  LIG1        0.1891
     21 C          -4.7764   -0.9592    0.4735 C.ar    1  LIG1        0.1131
     22 N          -3.7179   -0.1705    0.0454 N.ar    1  LIG1       -0.3458
     23 H          -3.7916    0.7111   -0.4395 H       1  LIG1        0.1662
     24 O          -1.8609   -2.9919    1.0591 O.3     1  LIG1       -0.4895
     25 C          -2.0441   -4.2728    0.4631 C.3     1  LIG1        0.0791
     26 H          -1.2304   -4.9041    0.8239 H       1  LIG1        0.0660
     27 H          -3.0034   -4.7037    0.7581 H       1  LIG1        0.0660
     28 H          -1.9975   -4.2047   -0.6301 H       1  LIG1        0.0660
     29 O          -4.7646   -3.2524    1.4958 O.3     1  LIG1       -0.4895
     30 C          -6.0774   -3.1569    2.0227 C.3     1  LIG1        0.0791
     31 H          -6.2303   -4.0630    2.6110 H       1  LIG1        0.0660
     32 H          -6.1735   -2.2826    2.6759 H       1  LIG1        0.0660
     33 H          -6.8226   -3.1045    1.2264 H       1  LIG1        0.0660
     34 C          -6.1250   -0.4175    0.4050 C.ar    1  LIG1        0.1131
     35 C          -7.2880   -0.8908   -0.1627 C.ar    1  LIG1        0.1891
     36 C          -8.3021    0.0955   -0.0034 C.ar    1  LIG1        0.1891
     37 C          -7.7344    1.1821    0.6426 C.ar    1  LIG1        0.1131
     38 N          -6.4153    0.8322    0.8938 N.ar    1  LIG1       -0.3458
     39 H          -5.7472    1.4406    1.3370 H       1  LIG1        0.1662
     40 O          -7.4476   -2.1284   -0.7150 O.3     1  LIG1       -0.4895
     41 C          -7.7916   -2.1178   -2.0944 C.3     1  LIG1        0.0791
     42 H          -7.8832   -3.1611   -2.4001 H       1  LIG1        0.0660
     43 H          -8.7415   -1.6018   -2.2578 H       1  LIG1        0.0660
     44 H          -7.0067   -1.6342   -2.6873 H       1  LIG1        0.0660
     45 O          -9.5564   -0.1496   -0.4531 O.3     1  LIG1       -0.4895
     46 C         -10.5683    0.8003   -0.1676 C.3     1  LIG1        0.0791
     47 H         -11.4989    0.3642   -0.5329 H       1  LIG1        0.0660
     48 H         -10.6523    0.9754    0.9106 H       1  LIG1        0.0660
     49 H         -10.3791    1.7488   -0.6761 H       1  LIG1        0.0660
     50 C          -8.2148    2.4785    1.1044 C.ar    1  LIG1        0.1126
     51 C          -8.7417    3.5621    0.4354 C.ar    1  LIG1        0.1884
     52 C          -8.9773    4.5932    1.3895 C.ar    1  LIG1        0.1795
     53 C          -8.5739    4.1252    2.6173 C.ar    1  LIG1        0.0482
     54 N          -8.1040    2.8462    2.4286 N.ar    1  LIG1       -0.3534
     55 H          -7.8918    2.1964    3.1666 H       1  LIG1        0.1656
     56 H          -8.5810    4.5875    3.5903 H       1  LIG1        0.0845
     57 O          -9.0307    3.5991   -0.8969 O.3     1  LIG1       -0.4895
     58 C          -8.3443    4.6095   -1.6239 C.3     1  LIG1        0.0791
     59 H          -8.6685    4.5207   -2.6616 H       1  LIG1        0.0660
     60 H          -8.5925    5.6050   -1.2456 H       1  LIG1        0.0660
     61 H          -7.2597    4.4600   -1.5691 H       1  LIG1        0.0660
     62 O          -9.4906    5.8040    1.0463 O.3     1  LIG1       -0.4900
     63 C          -9.6563    6.7057    2.1174 C.3     1  LIG1        0.0790
     64 H         -10.0770    7.6204    1.7001 H       1  LIG1        0.0660
     65 H         -10.3428    6.3018    2.8721 H       1  LIG1        0.0660
     66 H          -8.6961    6.9332    2.5981 H       1  LIG1        0.0660
@<TRIPOS>BOND
     1    17    14    1
     2    16    14    1
     3    15    14    1
     4    44    41    1
     5    59    58    1
     6    14    13    1
     7    42    41    1
     8    43    41    1
     9    12     9    1
    10    10     9    1
    11    41    40    1
    12     9     8    1
    13     9    11    1
    14    58    61    1
    15    58    60    1
    16    58    57    1
    17     8     2    1
    18    13     3    1
    19     2     3   ar
    20     2     1   ar
    21    57    51    1
    22     3     4   ar
    23    40    35    1
    24    49    46    1
    25    28    25    1
    26    47    46    1
    27    45    46    1
    28    45    36    1
    29     1     7    1
    30     1     5   ar
    31    23    22    1
    32     4     5   ar
    33     4    18    1
    34    46    48    1
    35    35    36   ar
    36    35    34   ar
    37    36    37   ar
    38     5     6    1
    39    22    18   ar
    40    22    21   ar
    41    18    19   ar
    42    34    21    1
    43    34    38   ar
    44    51    50   ar
    45    51    52   ar
    46    25    27    1
    47    25    26    1
    48    25    24    1
    49    21    20   ar
    50    37    38   ar
    51    37    50    1
    52    19    20   ar
    53    19    24    1
    54    38    39    1
    55    20    29    1
    56    62    52    1
    57    62    63    1
    58    50    54   ar
    59    33    30    1
    60    52    53   ar
    61    29    30    1
    62    64    63    1
    63    30    31    1
    64    30    32    1
    65    63    66    1
    66    63    65    1
    67    54    53   ar
    68    54    55    1
    69    53    56    1
