@<TRIPOS>MOLECULE
mol_data/opt/cam/geoms/mol2/2.out
 6 5 0 0 0
SMALL
GASTEIGER

@<TRIPOS>ATOM
      1 C           0.0038    0.0140    0.0000 C.2     1  LIG1       -0.1058
      2 H           1.0894    0.0009   -0.0006 H       1  LIG1        0.0529
      3 C          -0.6800    1.1487    0.0003 C.2     1  LIG1       -0.1058
      4 H          -1.7656    1.1617    0.0009 H       1  LIG1        0.0529
      5 H          -0.1843    2.1146   -0.0001 H       1  LIG1        0.0529
      6 H          -0.4919   -0.9519    0.0004 H       1  LIG1        0.0529
@<TRIPOS>BOND
     1     2     1    1
     2     5     3    1
     3     1     3    2
     4     1     6    1
     5     3     4    1
