@<TRIPOS>MOLECULE
mol_data/opt/cam/geoms/mol2/22-.out
 10 9 0 0 0
SMALL
GASTEIGER

@<TRIPOS>ATOM
      1 C          -0.0239   -0.0787   -0.0001 C.2     1  LIG1       -0.0987
      2 H           1.0606   -0.1263   -0.0017 H       1  LIG1        0.0535
      3 C          -0.6867    1.0767    0.0004 C.2     1  LIG1       -0.0694
      4 H          -1.7740    1.0430    0.0018 H       1  LIG1        0.0612
      5 H          -0.5506   -1.0262    0.0010 H       1  LIG1        0.0535
      6 C          -0.1032    2.4276   -0.0008 C.2     1  LIG1       -0.0694
      7 H          -0.8240    3.2424   -0.0021 H       1  LIG1        0.0612
      8 C           1.1923    2.7372   -0.0003 C.2     1  LIG1       -0.0987
      9 H           1.9705    1.9803    0.0012 H       1  LIG1        0.0535
     10 H           1.5212    3.7702   -0.0014 H       1  LIG1        0.0535
@<TRIPOS>BOND
     1     7     6    1
     2     2     1    1
     3    10     8    1
     4     6     8    2
     5     6     3    1
     6     8     9    1
     7     1     3    2
     8     1     5    1
     9     3     4    1
