@<TRIPOS>MOLECULE
mol_data/opt/cam/geoms/mol2/22-2-2.out
 18 17 0 0 0
SMALL
GASTEIGER

@<TRIPOS>ATOM
      1 C          -0.1049   -0.2128    0.0009 C.2     1  LIG1       -0.0987
      2 H           0.9783   -0.2818   -0.0004 H       1  LIG1        0.0535
      3 C          -0.7498    0.9556    0.0007 C.2     1  LIG1       -0.0689
      4 H          -1.8374    0.9359    0.0018 H       1  LIG1        0.0612
      5 H          -0.6489   -1.1504    0.0022 H       1  LIG1        0.0535
      6 C          -0.1564    2.2930   -0.0010 C.2     1  LIG1       -0.0623
      7 H          -0.8628    3.1209   -0.0023 H       1  LIG1        0.0617
      8 C           1.1536    2.5907   -0.0010 C.2     1  LIG1       -0.0618
      9 H           1.8916    1.7905    0.0004 H       1  LIG1        0.0618
     10 C           1.6698    3.9412   -0.0028 C.2     1  LIG1       -0.0618
     11 H           0.9318    4.7414   -0.0043 H       1  LIG1        0.0618
     12 C           2.9798    4.2389   -0.0029 C.2     1  LIG1       -0.0623
     13 H           3.6862    3.4109   -0.0016 H       1  LIG1        0.0617
     14 C           3.5732    5.5763   -0.0045 C.2     1  LIG1       -0.0689
     15 H           4.6608    5.5960   -0.0057 H       1  LIG1        0.0612
     16 C           2.9283    6.7447   -0.0047 C.2     1  LIG1       -0.0987
     17 H           1.8451    6.8137   -0.0034 H       1  LIG1        0.0535
     18 H           3.4723    7.6823   -0.0061 H       1  LIG1        0.0535
@<TRIPOS>BOND
     1    18    16    1
     2    15    14    1
     3    16    14    2
     4    16    17    1
     5    14    12    1
     6    11    10    1
     7    12    10    2
     8    12    13    1
     9    10     8    1
    10     7     6    1
    11     8     6    2
    12     8     9    1
    13     6     3    1
    14     2     1    1
    15     3     1    2
    16     3     4    1
    17     1     5    1
