@<TRIPOS>MOLECULE
mol_data/opt/cam/geoms/mol2/22-2-.out
 14 13 0 0 0
SMALL
GASTEIGER

@<TRIPOS>ATOM
      1 C          -0.0837   -0.1428    0.0001 C.2     1  LIG1       -0.0987
      2 H           0.9988   -0.2218   -0.0016 H       1  LIG1        0.0535
      3 C          -0.7166    1.0314    0.0006 C.2     1  LIG1       -0.0689
      4 H          -1.8044    1.0238    0.0021 H       1  LIG1        0.0612
      5 H          -0.6367   -1.0751    0.0013 H       1  LIG1        0.0535
      6 C          -0.1071    2.3635   -0.0008 C.2     1  LIG1       -0.0623
      7 H          -0.8048    3.1989   -0.0019 H       1  LIG1        0.0617
      8 C           1.2035    2.6474   -0.0007 C.2     1  LIG1       -0.0623
      9 H           1.9368    1.8431    0.0006 H       1  LIG1        0.0617
     10 C           1.7319    4.0011   -0.0022 C.2     1  LIG1       -0.0689
     11 H           0.9979    4.8054   -0.0035 H       1  LIG1        0.0612
     12 C           3.0322    4.2991   -0.0022 C.2     1  LIG1       -0.0987
     13 H           3.7908    3.5218   -0.0009 H       1  LIG1        0.0535
     14 H           3.3818    5.3251   -0.0034 H       1  LIG1        0.0535
@<TRIPOS>BOND
     1    11    10    1
     2    14    12    1
     3    10    12    2
     4    10     8    1
     5    12    13    1
     6     7     6    1
     7     2     1    1
     8     6     8    2
     9     6     3    1
    10     8     9    1
    11     1     3    2
    12     1     5    1
    13     3     4    1
