@<TRIPOS>MOLECULE
mol_data/opt/cam/geoms/mol2/22-2.out
 14 13 0 0 0
SMALL
GASTEIGER

@<TRIPOS>ATOM
      1 C          -0.0433   -0.1551    0.0004 C.2     1  LIG1       -0.0987
      2 H           1.0410   -0.2013   -0.0008 H       1  LIG1        0.0535
      3 C          -0.7134    0.9983    0.0004 C.2     1  LIG1       -0.0689
      4 H          -1.8003    0.9524    0.0013 H       1  LIG1        0.0612
      5 H          -0.5677   -1.1038    0.0016 H       1  LIG1        0.0535
      6 C          -0.1533    2.3523   -0.0010 C.2     1  LIG1       -0.0623
      7 H          -0.8866    3.1554   -0.0023 H       1  LIG1        0.0617
      8 C           1.1478    2.6752   -0.0008 C.2     1  LIG1       -0.0623
      9 H           1.8811    1.8722    0.0005 H       1  LIG1        0.0617
     10 C           1.7079    4.0293   -0.0022 C.2     1  LIG1       -0.0689
     11 H           2.7948    4.0752   -0.0031 H       1  LIG1        0.0612
     12 C           1.0379    5.1827   -0.0023 C.2     1  LIG1       -0.0987
     13 H          -0.0465    5.2288   -0.0011 H       1  LIG1        0.0535
     14 H           1.5622    6.1313   -0.0034 H       1  LIG1        0.0535
@<TRIPOS>BOND
     1    14    12    1
     2    11    10    1
     3     7     6    1
     4    12    10    2
     5    12    13    1
     6    10     8    1
     7     6     8    2
     8     6     3    1
     9     8     9    1
    10     2     1    1
    11     3     1    2
    12     3     4    1
    13     1     5    1
