@<TRIPOS>MOLECULE
mol_data/opt/cam/geoms/mol2/22-22-.out
 18 17 0 0 0
SMALL
GASTEIGER

@<TRIPOS>ATOM
      1 C          -0.0856   -0.2254    0.0005 C.2     1  LIG1       -0.0987
      2 H           0.9986   -0.2763   -0.0015 H       1  LIG1        0.0535
      3 C          -0.7515    0.9311    0.0011 C.2     1  LIG1       -0.0689
      4 H          -1.8385    0.8897    0.0030 H       1  LIG1        0.0612
      5 H          -0.6135   -1.1721    0.0020 H       1  LIG1        0.0535
      6 C          -0.1877    2.2825   -0.0005 C.2     1  LIG1       -0.0623
      7 H          -0.9197    3.0865   -0.0013 H       1  LIG1        0.0617
      8 C           1.1177    2.5983   -0.0011 C.2     1  LIG1       -0.0618
      9 H           1.8422    1.7872   -0.0002 H       1  LIG1        0.0618
     10 C           1.6966    3.9368   -0.0028 C.2     1  LIG1       -0.0618
     11 H           2.7837    3.9644   -0.0038 H       1  LIG1        0.0618
     12 C           1.0326    5.1043   -0.0033 C.2     1  LIG1       -0.0623
     13 H          -0.0546    5.0869   -0.0025 H       1  LIG1        0.0617
     14 C           1.6312    6.4406   -0.0050 C.2     1  LIG1       -0.0689
     15 H           0.9168    7.2611   -0.0068 H       1  LIG1        0.0612
     16 C           2.9299    6.7475   -0.0045 C.2     1  LIG1       -0.0987
     17 H           3.7095    5.9924   -0.0025 H       1  LIG1        0.0535
     18 H           3.2582    7.7805   -0.0059 H       1  LIG1        0.0535
@<TRIPOS>BOND
     1    15    14    1
     2    18    16    1
     3    14    16    2
     4    14    12    1
     5    16    17    1
     6    11    10    1
     7    12    10    2
     8    12    13    1
     9    10     8    1
    10     2     1    1
    11     7     6    1
    12     8     6    2
    13     8     9    1
    14     6     3    1
    15     1     3    2
    16     1     5    1
    17     3     4    1
