@<TRIPOS>MOLECULE
mol_data/opt/cam/geoms/mol2/22-2-2-.out
 18 17 0 0 0
SMALL
GASTEIGER

@<TRIPOS>ATOM
      1 C          -0.1431   -0.1832    0.0006 C.2     1  LIG1       -0.0987
      2 H           0.9383   -0.2770   -0.0008 H       1  LIG1        0.0535
      3 C          -0.7609    0.9997    0.0007 C.2     1  LIG1       -0.0689
      4 H          -1.8487    1.0053    0.0020 H       1  LIG1        0.0612
      5 H          -0.7085   -1.1080    0.0019 H       1  LIG1        0.0535
      6 C          -0.1364    2.3231   -0.0008 C.2     1  LIG1       -0.0623
      7 H          -0.8232    3.1673   -0.0017 H       1  LIG1        0.0617
      8 C           1.1800    2.5900   -0.0010 C.2     1  LIG1       -0.0618
      9 H           1.8987    1.7725    0.0001 H       1  LIG1        0.0618
     10 C           1.7279    3.9282   -0.0026 C.2     1  LIG1       -0.0618
     11 H           1.0135    4.7507   -0.0037 H       1  LIG1        0.0618
     12 C           3.0420    4.2074   -0.0029 C.2     1  LIG1       -0.0623
     13 H           3.7594    3.3878   -0.0018 H       1  LIG1        0.0617
     14 C           3.5871    5.5531   -0.0045 C.2     1  LIG1       -0.0689
     15 H           2.8637    6.3669   -0.0055 H       1  LIG1        0.0612
     16 C           4.8912    5.8358   -0.0048 C.2     1  LIG1       -0.0987
     17 H           5.6405    5.0496   -0.0038 H       1  LIG1        0.0535
     18 H           5.2527    6.8577   -0.0060 H       1  LIG1        0.0535
@<TRIPOS>BOND
     1    18    16    1
     2    15    14    1
     3    16    14    2
     4    16    17    1
     5    14    12    1
     6    11    10    1
     7    12    10    2
     8    12    13    1
     9    10     8    1
    10     7     6    1
    11     8     6    2
    12     8     9    1
    13     2     1    1
    14     6     3    1
    15     1     3    2
    16     1     5    1
    17     3     4    1
