@<TRIPOS>MOLECULE
mol_data/opt/cam/geoms/mol2/22-22.out
 18 17 0 0 0
SMALL
GASTEIGER

@<TRIPOS>ATOM
      1 C          -0.0287   -0.2279    0.0007 C.2     1  LIG1       -0.0987
      2 H           1.0564   -0.2532   -0.0007 H       1  LIG1        0.0535
      3 C          -0.7213    0.9128    0.0007 C.2     1  LIG1       -0.0689
      4 H          -1.8071    0.8465    0.0019 H       1  LIG1        0.0612
      5 H          -0.5342   -1.1867    0.0020 H       1  LIG1        0.0535
      6 C          -0.1882    2.2766   -0.0009 C.2     1  LIG1       -0.0623
      7 H          -0.9377    3.0643   -0.0021 H       1  LIG1        0.0617
      8 C           1.1094    2.6227   -0.0009 C.2     1  LIG1       -0.0618
      9 H           1.8542    1.8302    0.0004 H       1  LIG1        0.0618
     10 C           1.6509    3.9760   -0.0024 C.2     1  LIG1       -0.0618
     11 H           2.7374    4.0424   -0.0031 H       1  LIG1        0.0618
     12 C           0.9625    5.1297   -0.0030 C.2     1  LIG1       -0.0623
     13 H          -0.1258    5.1196   -0.0022 H       1  LIG1        0.0617
     14 C           1.5933    6.4373   -0.0046 C.2     1  LIG1       -0.0689
     15 H           2.6822    6.4476   -0.0054 H       1  LIG1        0.0612
     16 C           0.9268    7.5934   -0.0052 C.2     1  LIG1       -0.0987
     17 H          -0.1590    7.6208   -0.0044 H       1  LIG1        0.0535
     18 H           1.4411    8.5476   -0.0064 H       1  LIG1        0.0535
@<TRIPOS>BOND
     1    18    16    1
     2    15    14    1
     3    16    14    2
     4    16    17    1
     5    14    12    1
     6    11    10    1
     7    12    10    2
     8    12    13    1
     9    10     8    1
    10     7     6    1
    11     6     8    2
    12     6     3    1
    13     8     9    1
    14     2     1    1
    15     1     3    2
    16     1     5    1
    17     3     4    1
