@<TRIPOS>MOLECULE
mol_data/opt/cam/geoms/mol2/22.out
 10 9 0 0 0
SMALL
GASTEIGER

@<TRIPOS>ATOM
      1 C          -0.0167   -0.0359    0.0001 C.2     1  LIG1       -0.0987
      2 H           1.0695   -0.0299   -0.0006 H       1  LIG1        0.0535
      3 C          -0.7164    1.0977    0.0002 C.2     1  LIG1       -0.0694
      4 H          -1.8044    1.0584    0.0010 H       1  LIG1        0.0612
      5 H          -0.5013   -1.0056    0.0008 H       1  LIG1        0.0535
      6 C          -0.1179    2.4282   -0.0007 C.2     1  LIG1       -0.0694
      7 H           0.9701    2.4676   -0.0014 H       1  LIG1        0.0612
      8 C          -0.8176    3.5619   -0.0006 C.2     1  LIG1       -0.0987
      9 H          -1.9038    3.5559    0.0001 H       1  LIG1        0.0535
     10 H          -0.3330    4.5316   -0.0013 H       1  LIG1        0.0535
@<TRIPOS>BOND
     1     7     6    1
     2    10     8    1
     3     6     8    2
     4     6     3    1
     5     8     9    1
     6     2     1    1
     7     1     3    2
     8     1     5    1
     9     3     4    1
