@<TRIPOS>MOLECULE
mol_data/opt/cam/geoms/mol2/222-2-.out
 18 17 0 0 0
SMALL
GASTEIGER

@<TRIPOS>ATOM
      1 C          -0.1527   -0.2093    0.0007 C.2     1  LIG1       -0.0987
      2 H           0.9322   -0.2629   -0.0005 H       1  LIG1        0.0535
      3 C          -0.7909    0.9627    0.0007 C.2     1  LIG1       -0.0689
      4 H          -1.8796    0.9792    0.0020 H       1  LIG1        0.0612
      5 H          -0.6899   -1.1507    0.0020 H       1  LIG1        0.0535
      6 C          -0.1282    2.2544   -0.0010 C.2     1  LIG1       -0.0623
      7 H           0.9600    2.2384   -0.0023 H       1  LIG1        0.0617
      8 C          -0.7877    3.4249   -0.0010 C.2     1  LIG1       -0.0618
      9 H          -1.8755    3.3874    0.0002 H       1  LIG1        0.0618
     10 C          -0.2082    4.7615   -0.0025 C.2     1  LIG1       -0.0618
     11 H          -0.9243    5.5811   -0.0033 H       1  LIG1        0.0618
     12 C           1.0969    5.0802   -0.0030 C.2     1  LIG1       -0.0623
     13 H           1.8525    4.2969   -0.0021 H       1  LIG1        0.0617
     14 C           1.5868    6.4469   -0.0046 C.2     1  LIG1       -0.0689
     15 H           0.8305    7.2302   -0.0054 H       1  LIG1        0.0612
     16 C           2.8785    6.7822   -0.0050 C.2     1  LIG1       -0.0987
     17 H           3.6592    6.0270   -0.0042 H       1  LIG1        0.0535
     18 H           3.1984    7.8178   -0.0063 H       1  LIG1        0.0535
@<TRIPOS>BOND
     1    18    16    1
     2    15    14    1
     3    16    14    2
     4    16    17    1
     5    14    12    1
     6    11    10    1
     7    12    10    2
     8    12    13    1
     9    10     8    1
    10     7     6    1
    11     8     6    2
    12     8     9    1
    13     6     3    1
    14     2     1    1
    15     3     1    2
    16     3     4    1
    17     1     5    1
