@<TRIPOS>MOLECULE
mol_data/opt/cam/geoms/mol2/222-.out
 14 13 0 0 0
SMALL
GASTEIGER

@<TRIPOS>ATOM
      1 C          -0.0604   -0.1257    0.0003 C.2     1  LIG1       -0.0987
      2 H           1.0255   -0.1463   -0.0011 H       1  LIG1        0.0535
      3 C          -0.7336    1.0260    0.0005 C.2     1  LIG1       -0.0689
      4 H          -1.8223    1.0102    0.0019 H       1  LIG1        0.0612
      5 H          -0.5688   -1.0830    0.0015 H       1  LIG1        0.0535
      6 C          -0.1089    2.3380   -0.0011 C.2     1  LIG1       -0.0623
      7 H           0.9795    2.3543   -0.0025 H       1  LIG1        0.0617
      8 C          -0.7993    3.4876   -0.0009 C.2     1  LIG1       -0.0623
      9 H          -1.8859    3.4240    0.0003 H       1  LIG1        0.0617
     10 C          -0.2459    4.8439   -0.0023 C.2     1  LIG1       -0.0689
     11 H          -0.9852    5.6419   -0.0036 H       1  LIG1        0.0612
     12 C           1.0432    5.1867   -0.0021 C.2     1  LIG1       -0.0987
     13 H           1.8420    4.4518   -0.0006 H       1  LIG1        0.0535
     14 H           1.3440    6.2281   -0.0034 H       1  LIG1        0.0535
@<TRIPOS>BOND
     1    11    10    1
     2    14    12    1
     3     7     6    1
     4    10    12    2
     5    10     8    1
     6    12    13    1
     7     6     8    2
     8     6     3    1
     9     2     1    1
    10     8     9    1
    11     1     3    2
    12     1     5    1
    13     3     4    1
