@<TRIPOS>MOLECULE
mol_data/opt/cam/geoms/mol2/222-2.out
 18 17 0 0 0
SMALL
GASTEIGER

@<TRIPOS>ATOM
      1 C          -0.0905   -0.2026    0.0010 C.2     1  LIG1       -0.0987
      2 H           0.9953   -0.2309    0.0000 H       1  LIG1        0.0535
      3 C          -0.7560    0.9542    0.0007 C.2     1  LIG1       -0.0689
      4 H          -1.8449    0.9448    0.0017 H       1  LIG1        0.0612
      5 H          -0.6056   -1.1563    0.0023 H       1  LIG1        0.0535
      6 C          -0.1240    2.2612   -0.0010 C.2     1  LIG1       -0.0623
      7 H           0.9643    2.2703   -0.0020 H       1  LIG1        0.0617
      8 C          -0.8114    3.4155   -0.0014 C.2     1  LIG1       -0.0618
      9 H          -1.8980    3.3500   -0.0004 H       1  LIG1        0.0618
     10 C          -0.2687    4.7683   -0.0030 C.2     1  LIG1       -0.0618
     11 H          -1.0128    5.5614   -0.0040 H       1  LIG1        0.0618
     12 C           1.0292    5.1133   -0.0032 C.2     1  LIG1       -0.0623
     13 H           1.7781    4.3249   -0.0022 H       1  LIG1        0.0617
     14 C           1.5635    6.4766   -0.0048 C.2     1  LIG1       -0.0689
     15 H           2.6493    6.5420   -0.0062 H       1  LIG1        0.0612
     16 C           0.8719    7.6180   -0.0046 C.2     1  LIG1       -0.0987
     17 H          -0.2132    7.6442   -0.0030 H       1  LIG1        0.0535
     18 H           1.3783    8.5763   -0.0059 H       1  LIG1        0.0535
@<TRIPOS>BOND
     1    15    14    1
     2    18    16    1
     3    14    16    2
     4    14    12    1
     5    16    17    1
     6    11    10    1
     7    12    10    2
     8    12    13    1
     9    10     8    1
    10     7     6    1
    11     8     6    2
    12     8     9    1
    13     6     3    1
    14     2     1    1
    15     3     1    2
    16     3     4    1
    17     1     5    1
