@<TRIPOS>MOLECULE
mol_data/opt/cam/geoms/mol2/222.out
 14 13 0 0 0
SMALL
GASTEIGER

@<TRIPOS>ATOM
      1 C          -0.0171   -0.0839    0.0004 C.2     1  LIG1       -0.0987
      2 H           1.0690   -0.0725   -0.0004 H       1  LIG1        0.0535
      3 C          -0.7239    1.0472    0.0003 C.2     1  LIG1       -0.0689
      4 H          -1.8116    0.9989    0.0012 H       1  LIG1        0.0612
      5 H          -0.4970   -1.0559    0.0014 H       1  LIG1        0.0535
      6 C          -0.1381    2.3773   -0.0009 C.2     1  LIG1       -0.0623
      7 H           0.9498    2.4329   -0.0018 H       1  LIG1        0.0617
      8 C          -0.8511    3.5131   -0.0010 C.2     1  LIG1       -0.0623
      9 H          -1.9391    3.4575   -0.0002 H       1  LIG1        0.0617
     10 C          -0.2653    4.8432   -0.0022 C.2     1  LIG1       -0.0689
     11 H           0.8224    4.8916   -0.0031 H       1  LIG1        0.0612
     12 C          -0.9721    5.9743   -0.0024 C.2     1  LIG1       -0.0987
     13 H          -2.0582    5.9629   -0.0015 H       1  LIG1        0.0535
     14 H          -0.4922    6.9463   -0.0033 H       1  LIG1        0.0535
@<TRIPOS>BOND
     1    14    12    1
     2    11    10    1
     3    12    10    2
     4    12    13    1
     5    10     8    1
     6     7     6    1
     7     8     6    2
     8     8     9    1
     9     6     3    1
    10     2     1    1
    11     3     1    2
    12     3     4    1
    13     1     5    1
