@<TRIPOS>MOLECULE
mol_data/opt/cam/geoms/mol2/2222.out
 18 17 0 0 0
SMALL
GASTEIGER

@<TRIPOS>ATOM
      1 C          -0.0146   -0.1319    0.0009 C.2     1  LIG1       -0.0987
      2 H           1.0714   -0.1192   -0.0001 H       1  LIG1        0.0535
      3 C          -0.7230    0.9989    0.0006 C.2     1  LIG1       -0.0689
      4 H          -1.8106    0.9485    0.0015 H       1  LIG1        0.0612
      5 H          -0.4935   -1.1043    0.0020 H       1  LIG1        0.0535
      6 C          -0.1404    2.3288   -0.0010 C.2     1  LIG1       -0.0623
      7 H           0.9473    2.3878   -0.0019 H       1  LIG1        0.0617
      8 C          -0.8582    3.4641   -0.0013 C.2     1  LIG1       -0.0618
      9 H          -1.9457    3.4007   -0.0003 H       1  LIG1        0.0618
     10 C          -0.2829    4.7913   -0.0028 C.2     1  LIG1       -0.0618
     11 H           0.8046    4.8547   -0.0038 H       1  LIG1        0.0618
     12 C          -1.0007    5.9266   -0.0031 C.2     1  LIG1       -0.0623
     13 H          -2.0884    5.8676   -0.0021 H       1  LIG1        0.0617
     14 C          -0.4181    7.2565   -0.0046 C.2     1  LIG1       -0.0689
     15 H           0.6696    7.3069   -0.0056 H       1  LIG1        0.0612
     16 C          -1.1264    8.3873   -0.0050 C.2     1  LIG1       -0.0987
     17 H          -2.2125    8.3746   -0.0040 H       1  LIG1        0.0535
     18 H          -0.6475    9.3597   -0.0061 H       1  LIG1        0.0535
@<TRIPOS>BOND
     1    18    16    1
     2    15    14    1
     3    16    14    2
     4    16    17    1
     5    14    12    1
     6    11    10    1
     7    12    10    2
     8    12    13    1
     9    10     8    1
    10     7     6    1
    11     8     6    2
    12     8     9    1
    13     6     3    1
    14     2     1    1
    15     3     1    2
    16     3     4    1
    17     1     5    1
