@<TRIPOS>MOLECULE
mol_data/opt/cam/geoms/mol2/2222-.out
 18 17 0 0 0
SMALL
GASTEIGER

@<TRIPOS>ATOM
      1 C          -0.0637   -0.1687    0.0008 C.2     1  LIG1       -0.0987
      2 H           1.0224   -0.1771   -0.0005 H       1  LIG1        0.0535
      3 C          -0.7500    0.9758    0.0007 C.2     1  LIG1       -0.0689
      4 H          -1.8384    0.9463    0.0021 H       1  LIG1        0.0612
      5 H          -0.5615   -1.1315    0.0022 H       1  LIG1        0.0535
      6 C          -0.1417    2.2940   -0.0011 C.2     1  LIG1       -0.0623
      7 H           0.9469    2.3318   -0.0024 H       1  LIG1        0.0617
      8 C          -0.8373    3.4434   -0.0011 C.2     1  LIG1       -0.0618
      9 H          -1.9260    3.4015    0.0002 H       1  LIG1        0.0618
     10 C          -0.2364    4.7587   -0.0029 C.2     1  LIG1       -0.0618
     11 H           0.8515    4.7940   -0.0043 H       1  LIG1        0.0618
     12 C          -0.9426    5.9012   -0.0030 C.2     1  LIG1       -0.0623
     13 H          -2.0282    5.8243   -0.0018 H       1  LIG1        0.0617
     14 C          -0.4050    7.2622   -0.0046 C.2     1  LIG1       -0.0689
     15 H          -1.1533    8.0516   -0.0057 H       1  LIG1        0.0612
     16 C           0.8804    7.6211   -0.0049 C.2     1  LIG1       -0.0987
     17 H           1.6888    6.8967   -0.0036 H       1  LIG1        0.0535
     18 H           1.1678    8.6663   -0.0062 H       1  LIG1        0.0535
@<TRIPOS>BOND
     1    18    16    1
     2    15    14    1
     3    16    14    2
     4    16    17    1
     5    14    12    1
     6    11    10    1
     7    12    10    2
     8    12    13    1
     9    10     8    1
    10     7     6    1
    11     8     6    2
    12     8     9    1
    13     6     3    1
    14     2     1    1
    15     3     1    2
    16     3     4    1
    17     1     5    1
