@<TRIPOS>MOLECULE
mol_data/opt/cam/geoms/mol2/412-.out
 19 20 0 0 0
SMALL
GASTEIGER

@<TRIPOS>ATOM
      1 C          -0.0054    0.0676    0.0005 C.ar    1  LIG1       -0.0611
      2 C           1.3815    0.0156    0.0002 C.ar    1  LIG1       -0.0511
      3 C          -0.6639    1.2916    0.0003 C.ar    1  LIG1       -0.0617
      4 C           2.1340    1.1936   -0.0002 C.ar    1  LIG1        0.0172
      5 H           1.8935   -0.9394    0.0004 H       1  LIG1        0.0625
      6 C           0.0783    2.4682   -0.0002 C.ar    1  LIG1       -0.0611
      7 C           1.4639    2.4213   -0.0004 C.ar    1  LIG1       -0.0511
      8 H          -0.4255    3.4294   -0.0004 H       1  LIG1        0.0618
      9 H          -1.7481    1.3297    0.0004 H       1  LIG1        0.0618
     10 H          -0.5752   -0.8561    0.0008 H       1  LIG1        0.0618
     11 H           2.0324    3.3454   -0.0008 H       1  LIG1        0.0625
     12 C           3.5931    1.1469   -0.0004 C.ar    1  LIG1        0.1348
     13 C           4.5660    2.1012   -0.0006 C.ar    1  LIG1       -0.0159
     14 C           5.8167    1.4135   -0.0008 C.ar    1  LIG1       -0.0233
     15 C           5.5171    0.0930   -0.0007 C.ar    1  LIG1        0.0926
     16 O           4.1737   -0.0870   -0.0005 O.2     1  LIG1       -0.4629
     17 H           6.1134   -0.8053   -0.0007 H       1  LIG1        0.1029
     18 H           4.4155    3.1700   -0.0006 H       1  LIG1        0.0655
     19 H           6.8045    1.8490   -0.0009 H       1  LIG1        0.0649
@<TRIPOS>BOND
     1    19    14    1
     2    11     7    1
     3    14    15   ar
     4    14    13   ar
     5    17    15    1
     6    15    16   ar
     7    13    18    1
     8    13    12   ar
     9    16    12   ar
    10    12     4    1
    11     7     4   ar
    12     7     6   ar
    13     8     6    1
    14     4     2   ar
    15     6     3   ar
    16     2     5    1
    17     2     1   ar
    18     3     9    1
    19     3     1   ar
    20     1    10    1
