@<TRIPOS>MOLECULE
mol_data/opt/cam/geoms/mol2/412-5.out
 26 28 0 0 0
SMALL
GASTEIGER

@<TRIPOS>ATOM
      1 C          -0.1267    0.1720    0.0004 C.ar    1  LIG1       -0.0611
      2 C           1.2579    0.0779    0.0002 C.ar    1  LIG1       -0.0511
      3 C          -0.7475    1.4156    0.0002 C.ar    1  LIG1       -0.0617
      4 C           2.0460    1.2329   -0.0002 C.ar    1  LIG1        0.0173
      5 H           1.7399   -0.8925    0.0003 H       1  LIG1        0.0625
      6 C           0.0300    2.5694   -0.0001 C.ar    1  LIG1       -0.0611
      7 C           1.4134    2.4809   -0.0004 C.ar    1  LIG1       -0.0511
      8 H          -0.4445    3.5453   -0.0003 H       1  LIG1        0.0618
      9 H          -1.8301    1.4867    0.0004 H       1  LIG1        0.0618
     10 H          -0.7244   -0.7338    0.0006 H       1  LIG1        0.0618
     11 H           2.0093    3.3875   -0.0007 H       1  LIG1        0.0625
     12 C           3.5011    1.1436   -0.0004 C.ar    1  LIG1        0.1357
     13 C           4.5011    2.0713   -0.0005 C.ar    1  LIG1       -0.0152
     14 C           5.7287    1.3535   -0.0006 C.ar    1  LIG1       -0.0147
     15 C           5.4022    0.0295   -0.0007 C.ar    1  LIG1        0.1422
     16 O           4.0483   -0.1055   -0.0006 O.2     1  LIG1       -0.4543
     17 H           4.3806    3.1438   -0.0005 H       1  LIG1        0.0656
     18 H           6.7268    1.7657   -0.0007 H       1  LIG1        0.0656
     19 C           6.1723   -1.1925   -0.0009 C.ar    1  LIG1        0.0544
     20 C           5.7045   -2.4781   -0.0011 C.ar    1  LIG1       -0.0440
     21 C           6.7465   -3.4472   -0.0014 C.ar    1  LIG1       -0.0540
     22 C           7.9861   -2.8882   -0.0016 C.ar    1  LIG1       -0.0236
     23 S           7.9097   -1.1638   -0.0006 S.2     1  LIG1       -0.0936
     24 H           8.9455   -3.3846   -0.0019 H       1  LIG1        0.0693
     25 H           4.6484   -2.7135   -0.0011 H       1  LIG1        0.0630
     26 H           6.5745   -4.5164   -0.0017 H       1  LIG1        0.0623
@<TRIPOS>BOND
     1    24    22    1
     2    26    21    1
     3    22    21   ar
     4    22    23   ar
     5    21    20   ar
     6    25    20    1
     7    20    19   ar
     8    19    15    1
     9    19    23   ar
    10    15    14   ar
    11    15    16   ar
    12    18    14    1
    13    11     7    1
    14    14    13   ar
    15    16    12   ar
    16    13    17    1
    17    13    12   ar
    18    12     4    1
    19     7     4   ar
    20     7     6   ar
    21     8     6    1
    22     4     2   ar
    23     6     3   ar
    24     2     5    1
    25     2     1   ar
    26     3     1   ar
    27     3     9    1
    28     1    10    1
