@<TRIPOS>MOLECULE
mol_data/opt/cam/geoms/mol2/412-4.out
 29 31 0 0 0
SMALL
GASTEIGER

@<TRIPOS>ATOM
      1 C          -0.1312    0.1745    0.0006 C.ar    1  LIG1       -0.0611
      2 C           1.2538    0.0866    0.0005 C.ar    1  LIG1       -0.0511
      3 C          -0.7576    1.4153    0.0000 C.ar    1  LIG1       -0.0617
      4 C           2.0371    1.2448   -0.0002 C.ar    1  LIG1        0.0173
      5 H           1.7397   -0.8820    0.0010 H       1  LIG1        0.0625
      6 C           0.0150    2.5725   -0.0007 C.ar    1  LIG1       -0.0611
      7 C           1.3988    2.4900   -0.0008 C.ar    1  LIG1       -0.0511
      8 H          -0.4638    3.5464   -0.0012 H       1  LIG1        0.0618
      9 H          -1.8405    1.4816    0.0001 H       1  LIG1        0.0618
     10 H          -0.7249   -0.7340    0.0012 H       1  LIG1        0.0618
     11 H           1.9908    3.3991   -0.0014 H       1  LIG1        0.0625
     12 C           3.4930    1.1621   -0.0003 C.ar    1  LIG1        0.1357
     13 C           4.4882    2.0949   -0.0007 C.ar    1  LIG1       -0.0153
     14 C           5.7180    1.3814   -0.0005 C.ar    1  LIG1       -0.0153
     15 C           5.4021    0.0545   -0.0001 C.ar    1  LIG1        0.1357
     16 O           4.0470   -0.0820    0.0001 O.2     1  LIG1       -0.4548
     17 H           4.3631    3.1670   -0.0010 H       1  LIG1        0.0656
     18 H           6.7108    1.8049   -0.0007 H       1  LIG1        0.0656
     19 C           5.5795   -2.4233    0.0008 C.ar    1  LIG1       -0.0511
     20 C           6.3432   -3.5821    0.0011 C.ar    1  LIG1       -0.0611
     21 C           6.1963   -1.1685    0.0003 C.ar    1  LIG1        0.0173
     22 C           7.7313   -3.5101    0.0009 C.ar    1  LIG1       -0.0617
     23 H           5.8491   -4.5484    0.0015 H       1  LIG1        0.0618
     24 C           7.5941   -1.1047    0.0001 C.ar    1  LIG1       -0.0511
     25 C           8.3526   -2.2651    0.0004 C.ar    1  LIG1       -0.0611
     26 H           8.0896   -0.1395   -0.0003 H       1  LIG1        0.0625
     27 H           8.3263   -4.4173    0.0012 H       1  LIG1        0.0618
     28 H           4.4976   -2.4821    0.0009 H       1  LIG1        0.0625
     29 H           9.4357   -2.1974    0.0002 H       1  LIG1        0.0618
@<TRIPOS>BOND
     1    11     7    1
     2     8     6    1
     3    17    13    1
     4     7     6   ar
     5     7     4   ar
     6    18    14    1
     7    13    14   ar
     8    13    12   ar
     9     6     3   ar
    10    14    15   ar
    11    26    24    1
    12    12     4    1
    13    12    16   ar
    14     4     2   ar
    15    15    16   ar
    16    15    21    1
    17     3     9    1
    18     3     1   ar
    19    24    21   ar
    20    24    25   ar
    21    29    25    1
    22    21    19   ar
    23    25    22   ar
    24     2     1   ar
    25     2     5    1
    26     1    10    1
    27    19    28    1
    28    19    20   ar
    29    22    20   ar
    30    22    27    1
    31    20    23    1
