@<TRIPOS>MOLECULE
mol_data/opt/cam/geoms/mol2/412-5-8-.out
 32 35 0 0 0
SMALL
GASTEIGER

@<TRIPOS>ATOM
      1 C          -0.1402    0.2376    0.0002 C.ar    1  LIG1       -0.0611
      2 C           1.2439    0.1387    0.0000 C.ar    1  LIG1       -0.0511
      3 C          -0.7564    1.4836    0.0001 C.ar    1  LIG1       -0.0617
      4 C           2.0338    1.2923   -0.0002 C.ar    1  LIG1        0.0173
      5 H           1.7220   -0.8338    0.0001 H       1  LIG1        0.0625
      6 C           0.0237    2.6357   -0.0001 C.ar    1  LIG1       -0.0611
      7 C           1.4067    2.5429   -0.0002 C.ar    1  LIG1       -0.0511
      8 H          -0.4483    3.6127   -0.0001 H       1  LIG1        0.0618
      9 H          -1.8387    1.5579    0.0002 H       1  LIG1        0.0618
     10 H          -0.7407   -0.6661    0.0003 H       1  LIG1        0.0618
     11 H           2.0053    3.4478   -0.0004 H       1  LIG1        0.0625
     12 C           3.4886    1.1994   -0.0003 C.ar    1  LIG1        0.1357
     13 C           4.4923    2.1259   -0.0004 C.ar    1  LIG1       -0.0152
     14 C           5.7171    1.4075   -0.0006 C.ar    1  LIG1       -0.0147
     15 C           5.3879    0.0826   -0.0005 C.ar    1  LIG1        0.1422
     16 O           4.0332   -0.0481   -0.0003 O.2     1  LIG1       -0.4543
     17 H           4.3741    3.1985   -0.0004 H       1  LIG1        0.0656
     18 H           6.7154    1.8181   -0.0007 H       1  LIG1        0.0656
     19 C           6.1640   -1.1313   -0.0005 C.ar    1  LIG1        0.0551
     20 C           7.5351   -1.2485   -0.0006 C.ar    1  LIG1       -0.0433
     21 C           7.9667   -2.5908   -0.0007 C.ar    1  LIG1       -0.0431
     22 C           6.9254   -3.4833   -0.0006 C.ar    1  LIG1        0.0605
     23 S           5.3878   -2.6796   -0.0005 S.2     1  LIG1       -0.0820
     24 H           8.2042   -0.3975   -0.0007 H       1  LIG1        0.0630
     25 H           9.0008   -2.9097   -0.0007 H       1  LIG1        0.0630
     26 C           7.0112   -4.9285   -0.0005 C.ar    1  LIG1        0.2099
     27 N           8.2364   -5.4856   -0.0007 N.ar    1  LIG1       -0.1253
     28 C           7.1562   -7.4692   -0.0008 C.ar    1  LIG1        0.1605
     29 N           5.8610   -5.6235   -0.0005 N.ar    1  LIG1       -0.1253
     30 N           8.3055   -6.7918   -0.0008 N.ar    1  LIG1       -0.1339
     31 N           5.9383   -6.9305   -0.0006 N.ar    1  LIG1       -0.1339
     32 H           7.2200   -8.5510   -0.0006 H       1  LIG1        0.1085
@<TRIPOS>BOND
     1    28    30   ar
     2    28    32    1
     3    28    31   ar
     4    30    27   ar
     5    25    21    1
     6    27    26   ar
     7    18    14    1
     8    24    20    1
     9    21    20   ar
    10    21    22   ar
    11    20    19   ar
    12    31    29   ar
    13    14    15   ar
    14    14    13   ar
    15    22    26    1
    16    22    23   ar
    17    19    15    1
    18    19    23   ar
    19    26    29   ar
    20    15    16   ar
    21    11     7    1
    22    13    17    1
    23    13    12   ar
    24    16    12   ar
    25    12     4    1
    26     7     4   ar
    27     7     6   ar
    28     4     2   ar
    29     8     6    1
    30     6     3   ar
    31     2     5    1
    32     2     1   ar
    33     3     1   ar
    34     3     9    1
    35     1    10    1
