@<TRIPOS>MOLECULE
mol_data/opt/cam/geoms/mol2/412-12-13.out
 34 37 0 0 0
SMALL
GASTEIGER

@<TRIPOS>ATOM
      1 C          -0.1916    0.3739    0.0005 C.ar    1  LIG1       -0.0611
      2 C           1.1891    0.2346    0.0002 C.ar    1  LIG1       -0.0511
      3 C          -0.7720    1.6371    0.0003 C.ar    1  LIG1       -0.0617
      4 C           2.0133    1.3643   -0.0002 C.ar    1  LIG1        0.0173
      5 H           1.6417   -0.7501    0.0003 H       1  LIG1        0.0625
      6 C           0.0421    2.7654   -0.0001 C.ar    1  LIG1       -0.0611
      7 C           1.4219    2.6324   -0.0003 C.ar    1  LIG1       -0.0511
      8 H          -0.4010    3.7561   -0.0002 H       1  LIG1        0.0618
      9 H          -1.8517    1.7430    0.0005 H       1  LIG1        0.0618
     10 H          -0.8184   -0.5121    0.0008 H       1  LIG1        0.0618
     11 H           2.0472    3.5191   -0.0006 H       1  LIG1        0.0625
     12 C           3.4641    1.2254   -0.0005 C.ar    1  LIG1        0.1358
     13 C           4.4983    2.1161   -0.0007 C.ar    1  LIG1       -0.0151
     14 C           5.6985    1.3547   -0.0009 C.ar    1  LIG1       -0.0122
     15 C           5.3184    0.0438   -0.0007 C.ar    1  LIG1        0.1706
     16 O           3.9641   -0.0428   -0.0005 O.2     1  LIG1       -0.4517
     17 H           4.4175    3.1924   -0.0008 H       1  LIG1        0.0656
     18 H           6.7115    1.7279   -0.0011 H       1  LIG1        0.0657
     19 C           6.0631   -1.1886   -0.0007 C.ar    1  LIG1        0.1706
     20 C           7.3988   -1.4627   -0.0009 C.ar    1  LIG1       -0.0121
     21 C           7.5168   -2.8807   -0.0009 C.ar    1  LIG1       -0.0137
     22 C           6.2443   -3.3768   -0.0007 C.ar    1  LIG1        0.1519
     23 O           5.3537   -2.3504   -0.0005 O.2     1  LIG1       -0.4503
     24 H           8.2003   -0.7396   -0.0011 H       1  LIG1        0.0657
     25 H           8.4343   -3.4507   -0.0011 H       1  LIG1        0.0656
     26 C           5.6875   -4.7064   -0.0005 C.ar    1  LIG1        0.0821
     27 C           4.3739   -5.1260   -0.0003 C.ar    1  LIG1       -0.0334
     28 C           4.3794   -6.5423   -0.0007 C.ar    1  LIG1       -0.0437
     29 C           5.6905   -6.9488   -0.0000 C.ar    1  LIG1        0.0023
     30 N           6.4782   -5.8304   -0.0004 N.ar    1  LIG1       -0.3583
     31 H           7.4841   -5.8296   -0.0005 H       1  LIG1        0.1654
     32 H           6.1254   -7.9363    0.0002 H       1  LIG1        0.0807
     33 H           3.5152   -4.4722   -0.0003 H       1  LIG1        0.0640
     34 H           3.5166   -7.1916   -0.0009 H       1  LIG1        0.0633
@<TRIPOS>BOND
     1    24    20    1
     2    25    21    1
     3    18    14    1
     4    20    21   ar
     5    20    19   ar
     6    34    28    1
     7    21    22   ar
     8    14    13   ar
     9    14    15   ar
    10    17    13    1
    11    19    15    1
    12    19    23   ar
    13    13    12   ar
    14    15    16   ar
    15    28    27   ar
    16    28    29   ar
    17    22    23   ar
    18    22    26    1
    19    11     7    1
    20    26    30   ar
    21    26    27   ar
    22    31    30    1
    23    16    12   ar
    24    12     4    1
    25    30    29   ar
    26     7     4   ar
    27     7     6   ar
    28    27    33    1
    29     4     2   ar
    30     8     6    1
    31     6     3   ar
    32    29    32    1
    33     2     5    1
    34     2     1   ar
    35     3     1   ar
    36     3     9    1
    37     1    10    1
