@<TRIPOS>MOLECULE
mol_data/opt/cam/geoms/mol2/412-13.out
 27 29 0 0 0
SMALL
GASTEIGER

@<TRIPOS>ATOM
      1 C          -0.1037    0.1483    0.0006 C.ar    1  LIG1       -0.0611
      2 C           1.2819    0.0676    0.0004 C.ar    1  LIG1       -0.0511
      3 C          -0.7372    1.3855    0.0002 C.ar    1  LIG1       -0.0617
      4 C           2.0588    1.2303   -0.0002 C.ar    1  LIG1        0.0173
      5 H           1.7738   -0.8978    0.0007 H       1  LIG1        0.0625
      6 C           0.0292    2.5468   -0.0004 C.ar    1  LIG1       -0.0611
      7 C           1.4134    2.4719   -0.0006 C.ar    1  LIG1       -0.0511
      8 H          -0.4548    3.5181   -0.0007 H       1  LIG1        0.0618
      9 H          -1.8204    1.4458    0.0004 H       1  LIG1        0.0618
     10 H          -0.6922   -0.7636    0.0010 H       1  LIG1        0.0618
     11 H           2.0004    3.3845   -0.0010 H       1  LIG1        0.0625
     12 C           3.5143    1.1540   -0.0004 C.ar    1  LIG1        0.1358
     13 C           4.5076    2.0872   -0.0007 C.ar    1  LIG1       -0.0152
     14 C           5.7414    1.3767   -0.0008 C.ar    1  LIG1       -0.0138
     15 C           5.4223    0.0498   -0.0005 C.ar    1  LIG1        0.1517
     16 O           4.0720   -0.0926   -0.0003 O.2     1  LIG1       -0.4534
     17 H           4.3804    3.1590   -0.0009 H       1  LIG1        0.0656
     18 H           6.7329    1.8051   -0.0010 H       1  LIG1        0.0656
     19 C           6.1976   -1.1664   -0.0004 C.ar    1  LIG1        0.0821
     20 C           5.7963   -2.4856   -0.0002 C.ar    1  LIG1       -0.0334
     21 C           6.9646   -3.2867   -0.0006 C.ar    1  LIG1       -0.0437
     22 C           8.0442   -2.4392   -0.0001 C.ar    1  LIG1        0.0023
     23 N           7.5717   -1.1554   -0.0004 N.ar    1  LIG1       -0.3583
     24 H           8.1425   -0.3271   -0.0005 H       1  LIG1        0.1654
     25 H           9.1039   -2.6429    0.0001 H       1  LIG1        0.0807
     26 H           4.7708   -2.8222   -0.0000 H       1  LIG1        0.0640
     27 H           7.0080   -4.3657   -0.0009 H       1  LIG1        0.0633
@<TRIPOS>BOND
     1    11     7    1
     2    18    14    1
     3    17    13    1
     4    27    21    1
     5    14    13   ar
     6    14    15   ar
     7    13    12   ar
     8     8     6    1
     9    21    20   ar
    10    21    22   ar
    11     7     6   ar
    12     7     4   ar
    13    24    23    1
    14    15    19    1
    15    15    16   ar
    16    12    16   ar
    17    12     4    1
    18    19    23   ar
    19    19    20   ar
    20    23    22   ar
    21     6     3   ar
    22     4     2   ar
    23    20    26    1
    24    22    25    1
    25     3     9    1
    26     3     1   ar
    27     2     1   ar
    28     2     5    1
    29     1    10    1
