@<TRIPOS>MOLECULE
mol_data/opt/cam/geoms/mol2/412.out
 19 20 0 0 0
SMALL
GASTEIGER

@<TRIPOS>ATOM
      1 C           0.0211    0.0510    0.0005 C.ar    1  LIG1       -0.0611
      2 C           1.4074    0.0321    0.0002 C.ar    1  LIG1       -0.0511
      3 C          -0.6645    1.2614    0.0002 C.ar    1  LIG1       -0.0617
      4 C           2.1349    1.2267   -0.0002 C.ar    1  LIG1        0.0172
      5 H           1.9314   -0.9179    0.0004 H       1  LIG1        0.0625
      6 C           0.0512    2.4528   -0.0002 C.ar    1  LIG1       -0.0611
      7 C           1.4390    2.4391   -0.0004 C.ar    1  LIG1       -0.0511
      8 H          -0.4741    3.4025   -0.0004 H       1  LIG1        0.0618
      9 H          -1.7493    1.2748    0.0004 H       1  LIG1        0.0618
     10 H          -0.5277   -0.8853    0.0008 H       1  LIG1        0.0618
     11 H           1.9957    3.3687   -0.0008 H       1  LIG1        0.0625
     12 C           3.5945    1.2042   -0.0005 C.ar    1  LIG1        0.1348
     13 C           4.5211    0.2049   -0.0006 C.ar    1  LIG1       -0.0159
     14 C           5.8031    0.8326   -0.0008 C.ar    1  LIG1       -0.0233
     15 C           5.5664    2.1657   -0.0009 C.ar    1  LIG1        0.0926
     16 O           4.2330    2.4092   -0.0006 O.2     1  LIG1       -0.4629
     17 H           6.2045    3.0348   -0.0010 H       1  LIG1        0.1029
     18 H           4.3202   -0.8556   -0.0005 H       1  LIG1        0.0655
     19 H           6.7691    0.3507   -0.0010 H       1  LIG1        0.0649
@<TRIPOS>BOND
     1    17    15    1
     2    19    14    1
     3    15    14   ar
     4    15    16   ar
     5    14    13   ar
     6    11     7    1
     7    16    12   ar
     8    13    18    1
     9    13    12   ar
    10    12     4    1
    11     7     4   ar
    12     7     6   ar
    13     8     6    1
    14     4     2   ar
    15     6     3   ar
    16     3     9    1
    17     3     1   ar
    18     2     5    1
    19     2     1   ar
    20     1    10    1
