@<TRIPOS>MOLECULE
mol_data/opt/cam/geoms/mol2/41212.out
 26 28 0 0 0
SMALL
GASTEIGER

@<TRIPOS>ATOM
      1 C          -0.0163   -0.0384    0.0003 C.ar    1  LIG1       -0.0611
      2 C           1.3699   -0.0181    0.0001 C.ar    1  LIG1       -0.0511
      3 C          -0.7357    1.1526    0.0002 C.ar    1  LIG1       -0.0617
      4 C           2.0624    1.1975   -0.0002 C.ar    1  LIG1        0.0173
      5 H           1.9208   -0.9529    0.0003 H       1  LIG1        0.0625
      6 C          -0.0544    2.3643   -0.0002 C.ar    1  LIG1       -0.0611
      7 C           1.3332    2.3907   -0.0003 C.ar    1  LIG1       -0.0511
      8 H          -0.6068    3.2984   -0.0003 H       1  LIG1        0.0618
      9 H          -1.8205    1.1350    0.0003 H       1  LIG1        0.0618
     10 H          -0.5386   -0.9896    0.0006 H       1  LIG1        0.0618
     11 H           1.8642    3.3353   -0.0006 H       1  LIG1        0.0625
     12 C           3.5201    1.2186   -0.0004 C.ar    1  LIG1        0.1358
     13 C           4.4793    0.2478   -0.0004 C.ar    1  LIG1       -0.0151
     14 C           5.7367    0.9116   -0.0007 C.ar    1  LIG1       -0.0122
     15 C           5.4622    2.2476   -0.0007 C.ar    1  LIG1        0.1705
     16 O           4.1195    2.4424   -0.0005 O.2     1  LIG1       -0.4517
     17 H           4.3127   -0.8186   -0.0004 H       1  LIG1        0.0656
     18 H           6.7168    0.4591   -0.0008 H       1  LIG1        0.0657
     19 C           6.3036    3.4195   -0.0008 C.ar    1  LIG1        0.1697
     20 C           7.6573    3.5834   -0.0010 C.ar    1  LIG1       -0.0128
     21 C           7.8875    4.9918   -0.0011 C.ar    1  LIG1       -0.0232
     22 C           6.6637    5.5736   -0.0011 C.ar    1  LIG1        0.0927
     23 O           5.6885    4.6309   -0.0008 O.2     1  LIG1       -0.4598
     24 H           6.3269    6.5976   -0.0012 H       1  LIG1        0.1029
     25 H           8.3975    2.7976   -0.0010 H       1  LIG1        0.0656
     26 H           8.8405    5.4988   -0.0011 H       1  LIG1        0.0649
@<TRIPOS>BOND
     1    24    22    1
     2    26    21    1
     3    22    21   ar
     4    22    23   ar
     5    21    20   ar
     6    25    20    1
     7    20    19   ar
     8    23    19   ar
     9    19    15    1
    10    18    14    1
    11    14    15   ar
    12    14    13   ar
    13    15    16   ar
    14    11     7    1
    15    16    12   ar
    16    13    17    1
    17    13    12   ar
    18    12     4    1
    19     7     4   ar
    20     7     6   ar
    21     8     6    1
    22     4     2   ar
    23     6     3   ar
    24     2     5    1
    25     2     1   ar
    26     3     9    1
    27     3     1   ar
    28     1    10    1
