@<TRIPOS>MOLECULE
mol_data/opt/cam/geoms/mol2/41213-5.out
 34 37 0 0 0
SMALL
GASTEIGER

@<TRIPOS>ATOM
      1 C          -0.0980   -0.0409    0.0009 C.ar    1  LIG1       -0.0611
      2 C           1.2882   -0.0362    0.0007 C.ar    1  LIG1       -0.0511
      3 C          -0.8045    1.1578    0.0005 C.ar    1  LIG1       -0.0617
      4 C           1.9951    1.1714   -0.0000 C.ar    1  LIG1        0.0173
      5 H           1.8282   -0.9773    0.0011 H       1  LIG1        0.0625
      6 C          -0.1095    2.3615   -0.0003 C.ar    1  LIG1       -0.0611
      7 C           1.2783    2.3719   -0.0005 C.ar    1  LIG1       -0.0511
      8 H          -0.6512    3.3019   -0.0006 H       1  LIG1        0.0618
      9 H          -1.8894    1.1523    0.0006 H       1  LIG1        0.0618
     10 H          -0.6306   -0.9865    0.0015 H       1  LIG1        0.0618
     11 H           1.8183    3.3114   -0.0010 H       1  LIG1        0.0625
     12 C           3.4526    1.1737   -0.0003 C.ar    1  LIG1        0.1358
     13 C           4.3968    0.1902   -0.0002 C.ar    1  LIG1       -0.0152
     14 C           5.6649    0.8357   -0.0006 C.ar    1  LIG1       -0.0138
     15 C           5.4142    2.1777   -0.0009 C.ar    1  LIG1        0.1518
     16 O           4.0727    2.3898   -0.0007 O.2     1  LIG1       -0.4534
     17 H           4.2146   -0.8737    0.0001 H       1  LIG1        0.0656
     18 H           6.6331    0.3567   -0.0007 H       1  LIG1        0.0656
     19 C           6.2496    3.3508   -0.0014 C.ar    1  LIG1        0.0826
     20 C           5.9138    4.6901   -0.0016 C.ar    1  LIG1       -0.0328
     21 C           7.1154    5.4283   -0.0019 C.ar    1  LIG1       -0.0352
     22 C           8.1668    4.5307   -0.0021 C.ar    1  LIG1        0.0536
     23 N           7.6194    3.2709   -0.0017 N.ar    1  LIG1       -0.3514
     24 H           8.1463    2.4141   -0.0013 H       1  LIG1        0.1660
     25 H           4.9070    5.0783   -0.0015 H       1  LIG1        0.0640
     26 H           7.2103    6.5045   -0.0022 H       1  LIG1        0.0639
     27 C           9.6001    4.7413   -0.0025 C.ar    1  LIG1        0.0355
     28 C          10.6083    3.8138   -0.0042 C.ar    1  LIG1       -0.0455
     29 C          11.9085    4.3939   -0.0041 C.ar    1  LIG1       -0.0541
     30 C          11.8769    5.7526   -0.0023 C.ar    1  LIG1       -0.0237
     31 S          10.2579    6.3509   -0.0004 S.2     1  LIG1       -0.0952
     32 H          12.7078    6.4427   -0.0018 H       1  LIG1        0.0693
     33 H          10.4407    2.7430   -0.0058 H       1  LIG1        0.0629
     34 H          12.8247    3.8167   -0.0054 H       1  LIG1        0.0623
@<TRIPOS>BOND
     1    33    28    1
     2    34    29    1
     3    28    29   ar
     4    28    27   ar
     5    29    30   ar
     6    27    22    1
     7    27    31   ar
     8    30    32    1
     9    30    31   ar
    10    26    21    1
    11    22    21   ar
    12    22    23   ar
    13    21    20   ar
    14    23    19   ar
    15    23    24    1
    16    20    25    1
    17    20    19   ar
    18    19    15    1
    19    11     7    1
    20    15    16   ar
    21    15    14   ar
    22    16    12   ar
    23    18    14    1
    24     8     6    1
    25    14    13   ar
    26     7     6   ar
    27     7     4   ar
    28    12    13   ar
    29    12     4    1
    30     6     3   ar
    31    13    17    1
    32     4     2   ar
    33     3     9    1
    34     3     1   ar
    35     2     1   ar
    36     2     5    1
    37     1    10    1
