@<TRIPOS>MOLECULE
mol_data/opt/cam/geoms/mol2/41213.out
 27 29 0 0 0
SMALL
GASTEIGER

@<TRIPOS>ATOM
      1 C          -0.0291   -0.0118    0.0002 C.ar    1  LIG1       -0.0611
      2 C           1.3569   -0.0097    0.0001 C.ar    1  LIG1       -0.0511
      3 C          -0.7344    1.1877   -0.0000 C.ar    1  LIG1       -0.0617
      4 C           2.0678    1.1962   -0.0002 C.ar    1  LIG1        0.0173
      5 H           1.8949   -0.9518    0.0003 H       1  LIG1        0.0625
      6 C          -0.0369    2.3897   -0.0003 C.ar    1  LIG1       -0.0611
      7 C           1.3510    2.3969   -0.0004 C.ar    1  LIG1       -0.0511
      8 H          -0.5767    3.3312   -0.0005 H       1  LIG1        0.0618
      9 H          -1.8192    1.1841    0.0000 H       1  LIG1        0.0618
     10 H          -0.5630   -0.9566    0.0004 H       1  LIG1        0.0618
     11 H           1.8903    3.3366   -0.0007 H       1  LIG1        0.0625
     12 C           3.5247    1.1924   -0.0003 C.ar    1  LIG1        0.1358
     13 C           4.4648    0.2058   -0.0004 C.ar    1  LIG1       -0.0152
     14 C           5.7390    0.8405   -0.0005 C.ar    1  LIG1       -0.0138
     15 C           5.5001    2.1819   -0.0005 C.ar    1  LIG1        0.1517
     16 O           4.1557    2.4070   -0.0004 O.2     1  LIG1       -0.4534
     17 H           4.2753   -0.8570   -0.0005 H       1  LIG1        0.0656
     18 H           6.7079    0.3652   -0.0005 H       1  LIG1        0.0656
     19 C           6.3431    3.3523   -0.0005 C.ar    1  LIG1        0.0821
     20 C           7.7160    3.4926   -0.0007 C.ar    1  LIG1       -0.0334
     21 C           8.0001    4.8799   -0.0011 C.ar    1  LIG1       -0.0437
     22 C           6.7989    5.5465   -0.0001 C.ar    1  LIG1        0.0023
     23 N           5.8015    4.6131   -0.0002 N.ar    1  LIG1       -0.3583
     24 H           4.8116    4.7954    0.0000 H       1  LIG1        0.1654
     25 H           6.5765    6.6024    0.0003 H       1  LIG1        0.0807
     26 H           8.4311    2.6831   -0.0009 H       1  LIG1        0.0640
     27 H           8.9778    5.3385   -0.0016 H       1  LIG1        0.0633
@<TRIPOS>BOND
     1    27    21    1
     2    21    20   ar
     3    21    22   ar
     4    26    20    1
     5    20    19   ar
     6    11     7    1
     7    18    14    1
     8    19    15    1
     9    19    23   ar
    10     8     6    1
    11    17    13    1
    12    14    15   ar
    13    14    13   ar
    14    15    16   ar
    15    13    12   ar
    16     7     6   ar
    17     7     4   ar
    18    16    12   ar
    19     6     3   ar
    20    12     4    1
    21     4     2   ar
    22    23    22   ar
    23    23    24    1
    24    22    25    1
    25     3     9    1
    26     3     1   ar
    27     2     1   ar
    28     2     5    1
    29     1    10    1
