@<TRIPOS>MOLECULE
mol_data/opt/cam/geoms/mol2/4121312.out
 34 37 0 0 0
SMALL
GASTEIGER

@<TRIPOS>ATOM
      1 C          -0.0401   -0.0828    0.0000 C.ar    1  LIG1       -0.0611
      2 C           1.3459   -0.0692   -0.0001 C.ar    1  LIG1       -0.0511
      3 C          -0.7550    1.1110   -0.0000 C.ar    1  LIG1       -0.0617
      4 C           2.0462    1.1428   -0.0002 C.ar    1  LIG1        0.0173
      5 H           1.8918   -1.0067   -0.0000 H       1  LIG1        0.0625
      6 C          -0.0676    2.3189   -0.0002 C.ar    1  LIG1       -0.0611
      7 C           1.3202    2.3379   -0.0003 C.ar    1  LIG1       -0.0511
      8 H          -0.6152    3.2559   -0.0002 H       1  LIG1        0.0618
      9 H          -1.8398    1.0984    0.0001 H       1  LIG1        0.0618
     10 H          -0.5662   -1.0320    0.0001 H       1  LIG1        0.0618
     11 H           1.8520    3.2819   -0.0004 H       1  LIG1        0.0625
     12 C           3.5031    1.1507   -0.0004 C.ar    1  LIG1        0.1358
     13 C           4.4507    0.1704   -0.0006 C.ar    1  LIG1       -0.0152
     14 C           5.7194    0.8142   -0.0005 C.ar    1  LIG1       -0.0138
     15 C           5.4697    2.1544   -0.0004 C.ar    1  LIG1        0.1518
     16 O           4.1241    2.3696   -0.0003 O.2     1  LIG1       -0.4534
     17 H           4.2691   -0.8936   -0.0007 H       1  LIG1        0.0656
     18 H           6.6919    0.3463   -0.0006 H       1  LIG1        0.0656
     19 C           6.3045    3.3283   -0.0004 C.ar    1  LIG1        0.0826
     20 C           7.6802    3.4722   -0.0005 C.ar    1  LIG1       -0.0327
     21 C           7.9631    4.8540   -0.0007 C.ar    1  LIG1       -0.0327
     22 C           6.7548    5.5261   -0.0002 C.ar    1  LIG1        0.0826
     23 N           5.7609    4.5851   -0.0001 N.ar    1  LIG1       -0.3494
     24 H           4.7744    4.7898    0.0001 H       1  LIG1        0.1661
     25 H           8.3971    2.6646   -0.0007 H       1  LIG1        0.0640
     26 H           8.9396    5.3150   -0.0009 H       1  LIG1        0.0640
     27 C           6.4418    6.9344    0.0001 C.ar    1  LIG1        0.1509
     28 C           7.1879    8.0737   -0.0001 C.ar    1  LIG1       -0.0144
     29 C           6.2608    9.1614    0.0007 C.ar    1  LIG1       -0.0233
     30 C           5.0250    8.6098    0.0006 C.ar    1  LIG1        0.0926
     31 O           5.1150    7.2517    0.0006 O.2     1  LIG1       -0.4615
     32 H           4.0266    9.0160    0.0008 H       1  LIG1        0.1029
     33 H           8.2657    8.1308   -0.0004 H       1  LIG1        0.0656
     34 H           6.4918   10.2160    0.0010 H       1  LIG1        0.0649
@<TRIPOS>BOND
     1    26    21    1
     2    21    20   ar
     3    21    22   ar
     4    25    20    1
     5    17    13    1
     6    18    14    1
     7    13    14   ar
     8    13    12   ar
     9    20    19   ar
    10    14    15   ar
    11    15    19    1
    12    15    16   ar
    13    33    28    1
    14    19    23   ar
    15    11     7    1
    16    12    16   ar
    17    12     4    1
    18     7     4   ar
    19     7     6   ar
    20     4     2   ar
    21     8     6    1
    22    22    23   ar
    23    22    27    1
    24     6     3   ar
    25    23    24    1
    26     2     5    1
    27     2     1   ar
    28    28    27   ar
    29    28    29   ar
    30     3     1   ar
    31     3     9    1
    32     1    10    1
    33    27    31   ar
    34    31    30   ar
    35    30    29   ar
    36    30    32    1
    37    29    34    1
