@<TRIPOS>MOLECULE
mol_data/opt/cam/geoms/mol2/41248-.out
 35 38 0 0 0
SMALL
GASTEIGER

@<TRIPOS>ATOM
      1 C          -0.0641   -0.1490   -0.0008 C.ar    1  LIG1       -0.0611
      2 C           1.3215   -0.1068   -0.0007 C.ar    1  LIG1       -0.0511
      3 C          -0.8020    1.0306   -0.0007 C.ar    1  LIG1       -0.0617
      4 C           1.9947    1.1197   -0.0004 C.ar    1  LIG1        0.0173
      5 H           1.8868   -1.0327   -0.0007 H       1  LIG1        0.0625
      6 C          -0.1405    2.2531   -0.0004 C.ar    1  LIG1       -0.0611
      7 C           1.2465    2.3007   -0.0003 C.ar    1  LIG1       -0.0511
      8 H          -0.7077    3.1782   -0.0003 H       1  LIG1        0.0618
      9 H          -1.8864    0.9959   -0.0008 H       1  LIG1        0.0618
     10 H          -0.5713   -1.1082   -0.0010 H       1  LIG1        0.0618
     11 H           1.7601    3.2548   -0.0001 H       1  LIG1        0.0625
     12 C           3.4527    1.1591   -0.0003 C.ar    1  LIG1        0.1357
     13 C           4.4188    0.1943   -0.0007 C.ar    1  LIG1       -0.0153
     14 C           5.6688    0.8681   -0.0003 C.ar    1  LIG1       -0.0153
     15 C           5.3946    2.2052    0.0003 C.ar    1  LIG1        0.1357
     16 O           4.0437    2.3841    0.0003 O.2     1  LIG1       -0.4548
     17 H           4.2601   -0.8731   -0.0012 H       1  LIG1        0.0656
     18 H           6.6479    0.4137   -0.0005 H       1  LIG1        0.0656
     19 C           7.6226    3.2913    0.0009 C.ar    1  LIG1       -0.0504
     20 C           8.4184    4.4207    0.0015 C.ar    1  LIG1       -0.0503
     21 C           6.2257    3.3984    0.0009 C.ar    1  LIG1        0.0173
     22 C           7.8386    5.6935    0.0020 C.ar    1  LIG1        0.0227
     23 H           9.4979    4.3321    0.0015 H       1  LIG1        0.0625
     24 C           5.6507    4.6747    0.0014 C.ar    1  LIG1       -0.0504
     25 C           6.4461    5.8066    0.0019 C.ar    1  LIG1       -0.0503
     26 H           4.5718    4.7712    0.0013 H       1  LIG1        0.0625
     27 H           8.0893    2.3124    0.0005 H       1  LIG1        0.0625
     28 H           5.9968    6.7922    0.0023 H       1  LIG1        0.0625
     29 C           8.6850    6.8971    0.0026 C.ar    1  LIG1        0.2033
     30 N           8.0794    8.0963    0.0032 N.ar    1  LIG1       -0.1258
     31 C          10.1526    8.9839    0.0039 C.ar    1  LIG1        0.1605
     32 N          10.0181    6.7328    0.0026 N.ar    1  LIG1       -0.1258
     33 N           8.8333    9.1669    0.0038 N.ar    1  LIG1       -0.1339
     34 N          10.7709    7.8044    0.0032 N.ar    1  LIG1       -0.1339
     35 H          10.7761    9.8706    0.0042 H       1  LIG1        0.1085
@<TRIPOS>BOND
     1    17    13    1
     2    10     1    1
     3     1     3   ar
     4     1     2   ar
     5     9     3    1
     6     5     2    1
     7     3     6   ar
     8    13    14   ar
     9    13    12   ar
    10     2     4   ar
    11    18    14    1
    12     4    12    1
    13     4     7   ar
    14     6     8    1
    15     6     7   ar
    16    14    15   ar
    17    12    16   ar
    18     7    11    1
    19    15    16   ar
    20    15    21    1
    21    27    19    1
    22    21    19   ar
    23    21    24   ar
    24    19    20   ar
    25    26    24    1
    26    24    25   ar
    27    20    23    1
    28    20    22   ar
    29    25    22   ar
    30    25    28    1
    31    22    29    1
    32    29    32   ar
    33    29    30   ar
    34    32    34   ar
    35    30    33   ar
    36    34    31   ar
    37    33    31   ar
    38    31    35    1
