@<TRIPOS>MOLECULE
mol_data/opt/cam/geoms/mol2/4124-.out
 29 31 0 0 0
SMALL
GASTEIGER

@<TRIPOS>ATOM
      1 C          -0.0469   -0.0398    0.0008 C.ar    1  LIG1       -0.0611
      2 C           1.3393   -0.0293    0.0006 C.ar    1  LIG1       -0.0511
      3 C          -0.7582    1.1560    0.0003 C.ar    1  LIG1       -0.0617
      4 C           2.0415    1.1810   -0.0002 C.ar    1  LIG1        0.0173
      5 H           1.8833   -0.9680    0.0010 H       1  LIG1        0.0625
      6 C          -0.0682    2.3626   -0.0004 C.ar    1  LIG1       -0.0611
      7 C           1.3196    2.3784   -0.0007 C.ar    1  LIG1       -0.0511
      8 H          -0.6138    3.3007   -0.0008 H       1  LIG1        0.0618
      9 H          -1.8431    1.1461    0.0005 H       1  LIG1        0.0618
     10 H          -0.5756   -0.9875    0.0014 H       1  LIG1        0.0618
     11 H           1.8551    3.3203   -0.0012 H       1  LIG1        0.0625
     12 C           3.4998    1.1878   -0.0005 C.ar    1  LIG1        0.1357
     13 C           4.4452    0.2046   -0.0003 C.ar    1  LIG1       -0.0153
     14 C           5.7103    0.8532   -0.0008 C.ar    1  LIG1       -0.0153
     15 C           5.4638    2.1948   -0.0012 C.ar    1  LIG1        0.1357
     16 O           4.1177    2.4016   -0.0010 O.2     1  LIG1       -0.4548
     17 H           4.2645   -0.8596    0.0000 H       1  LIG1        0.0656
     18 H           6.6798    0.3787   -0.0009 H       1  LIG1        0.0656
     19 C           5.7699    4.6599   -0.0022 C.ar    1  LIG1       -0.0511
     20 C           6.5928    5.7775   -0.0027 C.ar    1  LIG1       -0.0611
     21 C           6.3206    3.3748   -0.0017 C.ar    1  LIG1        0.0173
     22 C           7.9753    5.6334   -0.0028 C.ar    1  LIG1       -0.0617
     23 H           6.1496    6.7681   -0.0031 H       1  LIG1        0.0618
     24 C           7.7132    3.2384   -0.0018 C.ar    1  LIG1       -0.0511
     25 C           8.5309    4.3578   -0.0024 C.ar    1  LIG1       -0.0611
     26 H           8.1579    2.2488   -0.0015 H       1  LIG1        0.0625
     27 H           8.6166    6.5085   -0.0032 H       1  LIG1        0.0618
     28 H           4.6924    4.7750   -0.0021 H       1  LIG1        0.0625
     29 H           9.6091    4.2339   -0.0024 H       1  LIG1        0.0618
@<TRIPOS>BOND
     1    27    22    1
     2    23    20    1
     3    22    20   ar
     4    22    25   ar
     5    20    19   ar
     6    29    25    1
     7    25    24   ar
     8    19    28    1
     9    19    21   ar
    10    24    21   ar
    11    24    26    1
    12    21    15    1
    13    11     7    1
    14    15    16   ar
    15    15    14   ar
    16    16    12   ar
    17    18    14    1
    18    14    13   ar
    19     8     6    1
    20     7     6   ar
    21     7     4   ar
    22    12    13   ar
    23    12     4    1
    24     6     3   ar
    25    13    17    1
    26     4     2   ar
    27     3     9    1
    28     3     1   ar
    29     2     1   ar
    30     2     5    1
    31     1    10    1
