@<TRIPOS>MOLECULE
mol_data/opt/cam/geoms/mol2/412812.out
 32 35 0 0 0
SMALL
GASTEIGER

@<TRIPOS>ATOM
      1 C          -0.0009   -0.1742    0.0003 C.ar    1  LIG1       -0.0611
      2 C           1.3833   -0.0967    0.0001 C.ar    1  LIG1       -0.0511
      3 C          -0.7673    0.9869    0.0001 C.ar    1  LIG1       -0.0617
      4 C           2.0221    1.1474   -0.0002 C.ar    1  LIG1        0.0173
      5 H           1.9728   -1.0075    0.0003 H       1  LIG1        0.0625
      6 C          -0.1382    2.2268   -0.0002 C.ar    1  LIG1       -0.0611
      7 C           1.2468    2.3110   -0.0004 C.ar    1  LIG1       -0.0511
      8 H          -0.7295    3.1366   -0.0004 H       1  LIG1        0.0618
      9 H          -1.8504    0.9246    0.0002 H       1  LIG1        0.0618
     10 H          -0.4842   -1.1457    0.0005 H       1  LIG1        0.0618
     11 H           1.7391    3.2765   -0.0006 H       1  LIG1        0.0625
     12 C           3.4783    1.2294   -0.0004 C.ar    1  LIG1        0.1358
     13 C           4.4759    0.2910   -0.0005 C.ar    1  LIG1       -0.0151
     14 C           5.7016    1.0016   -0.0006 C.ar    1  LIG1       -0.0120
     15 C           5.3725    2.3263   -0.0006 C.ar    1  LIG1        0.1760
     16 O           4.0229    2.4702   -0.0005 O.2     1  LIG1       -0.4516
     17 H           4.3488   -0.7805   -0.0004 H       1  LIG1        0.0656
     18 H           6.7048    0.6045   -0.0007 H       1  LIG1        0.0657
     19 C           6.1880    3.5206   -0.0007 C.ar    1  LIG1        0.2381
     20 N           7.5221    3.3336   -0.0009 N.ar    1  LIG1       -0.1219
     21 C           7.6798    5.5937   -0.0009 C.ar    1  LIG1        0.2381
     22 N           5.5890    4.7193   -0.0007 N.ar    1  LIG1       -0.1219
     23 N           8.2807    4.3889   -0.0010 N.ar    1  LIG1       -0.1219
     24 N           6.3542    5.7814   -0.0008 N.ar    1  LIG1       -0.1219
     25 C           8.5574    6.7475   -0.0010 C.ar    1  LIG1        0.1751
     26 C           9.9175    6.8471   -0.0012 C.ar    1  LIG1       -0.0126
     27 C          10.2106    8.2396   -0.0013 C.ar    1  LIG1       -0.0232
     28 C           9.0090    8.8738   -0.0011 C.ar    1  LIG1        0.0927
     29 O           7.9950    7.9835   -0.0011 O.2     1  LIG1       -0.4597
     30 H           8.7213    9.9133   -0.0010 H       1  LIG1        0.1029
     31 H          10.6073    6.0176   -0.0013 H       1  LIG1        0.0656
     32 H          11.1840    8.7059   -0.0014 H       1  LIG1        0.0649
@<TRIPOS>BOND
     1    32    27    1
     2    27    26   ar
     3    27    28   ar
     4    31    26    1
     5    26    25   ar
     6    28    29   ar
     7    28    30    1
     8    29    25   ar
     9    25    21    1
    10    23    21   ar
    11    23    20   ar
    12    21    24   ar
    13    20    19   ar
    14    24    22   ar
    15    19    22   ar
    16    19    15    1
    17    18    14    1
    18    11     7    1
    19    15    14   ar
    20    15    16   ar
    21    14    13   ar
    22    16    12   ar
    23    13    17    1
    24    13    12   ar
    25     7     6   ar
    26     7     4   ar
    27    12     4    1
    28     8     6    1
    29     6     3   ar
    30     4     2   ar
    31     3     9    1
    32     3     1   ar
    33     2     1   ar
    34     2     5    1
    35     1    10    1
