@<TRIPOS>MOLECULE
mol_data/opt/cam/geoms/mol2/4128.out
 25 27 0 0 0
SMALL
GASTEIGER

@<TRIPOS>ATOM
      1 C          -0.0079   -0.0307    0.0003 C.ar    1  LIG1       -0.0611
      2 C           1.3783   -0.0080    0.0001 C.ar    1  LIG1       -0.0511
      3 C          -0.7276    1.1600    0.0002 C.ar    1  LIG1       -0.0617
      4 C           2.0652    1.2101   -0.0002 C.ar    1  LIG1        0.0173
      5 H           1.9312   -0.9414    0.0003 H       1  LIG1        0.0625
      6 C          -0.0503    2.3743   -0.0002 C.ar    1  LIG1       -0.0611
      7 C           1.3369    2.4036   -0.0003 C.ar    1  LIG1       -0.0511
      8 H          -0.6053    3.3066   -0.0003 H       1  LIG1        0.0618
      9 H          -1.8123    1.1405    0.0003 H       1  LIG1        0.0618
     10 H          -0.5294   -0.9822    0.0006 H       1  LIG1        0.0618
     11 H           1.8668    3.3489   -0.0006 H       1  LIG1        0.0625
     12 C           3.5237    1.2349   -0.0004 C.ar    1  LIG1        0.1358
     13 C           4.4835    0.2571   -0.0005 C.ar    1  LIG1       -0.0151
     14 C           5.7358    0.9186   -0.0007 C.ar    1  LIG1       -0.0120
     15 C           5.4592    2.2552   -0.0007 C.ar    1  LIG1        0.1760
     16 O           4.1159    2.4525   -0.0005 O.2     1  LIG1       -0.4516
     17 H           4.3141   -0.8086   -0.0004 H       1  LIG1        0.0656
     18 H           6.7227    0.4823   -0.0008 H       1  LIG1        0.0657
     19 C           6.3210    3.4161   -0.0008 C.ar    1  LIG1        0.2381
     20 N           7.6451    3.1752   -0.0010 N.ar    1  LIG1       -0.1226
     21 C           7.8824    5.4187   -0.0011 C.ar    1  LIG1        0.1605
     22 N           5.7621    4.6366   -0.0008 N.ar    1  LIG1       -0.1226
     23 N           8.4454    4.2085   -0.0011 N.ar    1  LIG1       -0.1338
     24 N           6.5747    5.6665   -0.0010 N.ar    1  LIG1       -0.1338
     25 H           8.5490    6.2732   -0.0013 H       1  LIG1        0.1085
@<TRIPOS>BOND
     1    25    21    1
     2    23    21   ar
     3    23    20   ar
     4    21    24   ar
     5    20    19   ar
     6    24    22   ar
     7    19    22   ar
     8    19    15    1
     9    18    14    1
    10    15    14   ar
    11    15    16   ar
    12    14    13   ar
    13    11     7    1
    14    16    12   ar
    15    13    17    1
    16    13    12   ar
    17    12     4    1
    18     7     4   ar
    19     7     6   ar
    20     8     6    1
    21     4     2   ar
    22     6     3   ar
    23     2     5    1
    24     2     1   ar
    25     3     9    1
    26     3     1   ar
    27     1    10    1
