@<TRIPOS>MOLECULE
mol_data/opt/cam/geoms/mol2/413-12.out
 27 29 0 0 0
SMALL
GASTEIGER

@<TRIPOS>ATOM
      1 C          -0.0974    0.1090    0.0015 C.ar    1  LIG1       -0.0611
      2 C           1.2898    0.0507    0.0013 C.ar    1  LIG1       -0.0526
      3 C          -0.7490    1.3354    0.0004 C.ar    1  LIG1       -0.0617
      4 C           2.0628    1.2175   -0.0002 C.ar    1  LIG1       -0.0017
      5 H           1.7633   -0.9264    0.0024 H       1  LIG1        0.0624
      6 C           0.0059    2.5041   -0.0011 C.ar    1  LIG1       -0.0611
      7 C           1.3903    2.4465   -0.0014 C.ar    1  LIG1       -0.0526
      8 H          -0.4882    3.4704   -0.0020 H       1  LIG1        0.0618
      9 H          -1.8328    1.3813    0.0006 H       1  LIG1        0.0618
     10 H          -0.6705   -0.8127    0.0027 H       1  LIG1        0.0618
     11 H           1.9619    3.3678   -0.0026 H       1  LIG1        0.0624
     12 C           3.5253    1.1824   -0.0005 C.ar    1  LIG1        0.0470
     13 C           4.4521    2.2090   -0.0001 C.ar    1  LIG1       -0.0357
     14 C           5.7420    1.6388   -0.0007 C.ar    1  LIG1       -0.0328
     15 C           5.5862    0.2679   -0.0014 C.ar    1  LIG1        0.0825
     16 N           4.2403    0.0083   -0.0013 N.ar    1  LIG1       -0.3518
     17 H           3.8393   -0.9137   -0.0018 H       1  LIG1        0.1660
     18 H           4.2245    3.2644    0.0007 H       1  LIG1        0.0639
     19 H           6.6887    2.1568   -0.0007 H       1  LIG1        0.0640
     20 C           6.5715   -0.7859   -0.0022 C.ar    1  LIG1        0.1509
     21 C           6.5015   -2.1482   -0.0033 C.ar    1  LIG1       -0.0144
     22 C           7.8502   -2.6208   -0.0038 C.ar    1  LIG1       -0.0233
     23 C           8.6352   -1.5182   -0.0028 C.ar    1  LIG1        0.0926
     24 O           7.8732   -0.3936   -0.0020 O.2     1  LIG1       -0.4615
     25 H           9.7019   -1.3636   -0.0026 H       1  LIG1        0.1029
     26 H           5.6054   -2.7513   -0.0038 H       1  LIG1        0.0656
     27 H           8.1834   -3.6476   -0.0046 H       1  LIG1        0.0649
@<TRIPOS>BOND
     1    27    22    1
     2    26    21    1
     3    22    21   ar
     4    22    23   ar
     5    21    20   ar
     6    23    25    1
     7    23    24   ar
     8    11     7    1
     9    20    24   ar
    10    20    15    1
    11     8     6    1
    12    17    16    1
    13    15    16   ar
    14    15    14   ar
    15     7     6   ar
    16     7     4   ar
    17    16    12   ar
    18     6     3   ar
    19    14    19    1
    20    14    13   ar
    21    12     4    1
    22    12    13   ar
    23     4     2   ar
    24    13    18    1
    25     3     9    1
    26     3     1   ar
    27     2     1   ar
    28     2     5    1
    29     1    10    1
