@<TRIPOS>MOLECULE
mol_data/opt/cam/geoms/mol2/413-4-.out
 30 32 0 0 0
SMALL
GASTEIGER

@<TRIPOS>ATOM
      1 C          -0.1076    0.2678    0.6243 C.ar    1  LIG1       -0.0611
      2 C           1.2797    0.2137    0.6025 C.ar    1  LIG1       -0.0526
      3 C          -0.7743    1.3716    0.1065 C.ar    1  LIG1       -0.0617
      4 C           2.0298    1.2573    0.0491 C.ar    1  LIG1       -0.0017
      5 H           1.7837   -0.6375    1.0509 H       1  LIG1        0.0624
      6 C          -0.0392    2.4202   -0.4371 C.ar    1  LIG1       -0.0611
      7 C           1.3459    2.3615   -0.4721 C.ar    1  LIG1       -0.0526
      8 H          -0.5493    3.2856   -0.8481 H       1  LIG1        0.0618
      9 H          -1.8581    1.4157    0.1275 H       1  LIG1        0.0618
     10 H          -0.6694   -0.5521    1.0604 H       1  LIG1        0.0618
     11 H           1.9118    3.1691   -0.9239 H       1  LIG1        0.0624
     12 C           3.4920    1.2128    0.0117 C.ar    1  LIG1        0.0469
     13 C           4.4271    2.2287    0.0059 C.ar    1  LIG1       -0.0358
     14 C           5.7096    1.6368   -0.0043 C.ar    1  LIG1       -0.0358
     15 C           5.5430    0.2661   -0.0132 C.ar    1  LIG1        0.0469
     16 N           4.1905    0.0309   -0.0012 N.ar    1  LIG1       -0.3542
     17 H           3.7687   -0.8828   -0.0038 H       1  LIG1        0.1659
     18 H           4.2042    3.2852    0.0351 H       1  LIG1        0.0639
     19 H           6.6582    2.1525   -0.0312 H       1  LIG1        0.0639
     20 C           7.8086   -0.6234    0.4716 C.ar    1  LIG1       -0.0526
     21 C           8.7519   -1.6393    0.4352 C.ar    1  LIG1       -0.0611
     22 C           6.5254   -0.8177   -0.0521 C.ar    1  LIG1       -0.0017
     23 C           8.4316   -2.8774   -0.1125 C.ar    1  LIG1       -0.0617
     24 H           9.7408   -1.4674    0.8481 H       1  LIG1        0.0618
     25 C           6.2187   -2.0640   -0.6095 C.ar    1  LIG1       -0.0526
     26 C           7.1599   -3.0846   -0.6328 C.ar    1  LIG1       -0.0611
     27 H           5.2446   -2.2314   -1.0598 H       1  LIG1        0.0624
     28 H           9.1683   -3.6735   -0.1345 H       1  LIG1        0.0618
     29 H           8.0554    0.3300    0.9265 H       1  LIG1        0.0624
     30 H           6.9010   -4.0428   -1.0719 H       1  LIG1        0.0618
@<TRIPOS>BOND
     1    30    26    1
     2    27    25    1
     3    11     7    1
     4     8     6    1
     5    26    25   ar
     6    26    23   ar
     7    25    22   ar
     8     7     6   ar
     9     7     4   ar
    10     6     3   ar
    11    28    23    1
    12    23    21   ar
    13    22    15    1
    14    22    20   ar
    15    19    14    1
    16    15    14   ar
    17    15    16   ar
    18    14    13   ar
    19    17    16    1
    20    16    12   ar
    21    13    12   ar
    22    13    18    1
    23    12     4    1
    24     4     2   ar
    25     3     9    1
    26     3     1   ar
    27    21    20   ar
    28    21    24    1
    29    20    29    1
    30     2     1   ar
    31     2     5    1
    32     1    10    1
