@<TRIPOS>MOLECULE
mol_data/opt/cam/geoms/mol2/413-13-8.out
 34 37 0 0 0
SMALL
GASTEIGER

@<TRIPOS>ATOM
      1 C          -0.1823    0.2336    0.0019 C.ar    1  LIG1       -0.0611
      2 C           1.2029    0.1409    0.0012 C.ar    1  LIG1       -0.0526
      3 C          -0.8026    1.4761    0.0012 C.ar    1  LIG1       -0.0617
      4 C           2.0042    1.2884   -0.0002 C.ar    1  LIG1       -0.0017
      5 H           1.6500   -0.8487    0.0018 H       1  LIG1        0.0624
      6 C          -0.0193    2.6258   -0.0002 C.ar    1  LIG1       -0.0611
      7 C           1.3635    2.5340   -0.0009 C.ar    1  LIG1       -0.0526
      8 H          -0.4893    3.6040   -0.0007 H       1  LIG1        0.0618
      9 H          -1.8848    1.5490    0.0018 H       1  LIG1        0.0618
     10 H          -0.7781   -0.6734    0.0030 H       1  LIG1        0.0618
     11 H           1.9574    3.4409   -0.0021 H       1  LIG1        0.0624
     12 C           3.4658    1.2169   -0.0010 C.ar    1  LIG1        0.0469
     13 C           4.4189    2.2191   -0.0017 C.ar    1  LIG1       -0.0358
     14 C           5.6911    1.6148   -0.0021 C.ar    1  LIG1       -0.0344
     15 C           5.5068    0.2455   -0.0019 C.ar    1  LIG1        0.0633
     16 N           4.1504    0.0251   -0.0012 N.ar    1  LIG1       -0.3530
     17 H           3.7068   -0.8768   -0.0005 H       1  LIG1        0.1659
     18 H           4.2197    3.2800   -0.0017 H       1  LIG1        0.0639
     19 H           6.6466    2.1178   -0.0028 H       1  LIG1        0.0639
     20 C           6.4888   -0.8146   -0.0023 C.ar    1  LIG1        0.0634
     21 C           7.8784   -0.7252   -0.0013 C.ar    1  LIG1       -0.0343
     22 C           8.3961   -2.0288   -0.0021 C.ar    1  LIG1       -0.0326
     23 C           7.3200   -2.8984   -0.0037 C.ar    1  LIG1        0.0880
     24 N           6.1718   -2.1403   -0.0036 N.ar    1  LIG1       -0.3505
     25 H           5.2606   -2.5717   -0.0049 H       1  LIG1        0.1660
     26 H           8.4421    0.1955   -0.0000 H       1  LIG1        0.0639
     27 H           9.4334   -2.3271   -0.0016 H       1  LIG1        0.0640
     28 C           7.2393   -4.3312   -0.0051 C.ar    1  LIG1        0.2193
     29 N           6.0058   -4.8730   -0.0065 N.ar    1  LIG1       -0.1243
     30 C           7.0490   -6.8705   -0.0078 C.ar    1  LIG1        0.1605
     31 N           8.3845   -5.0449   -0.0051 N.ar    1  LIG1       -0.1243
     32 N           5.9120   -6.1792   -0.0078 N.ar    1  LIG1       -0.1338
     33 N           8.2784   -6.3459   -0.0064 N.ar    1  LIG1       -0.1338
     34 H           6.9733   -7.9514   -0.0087 H       1  LIG1        0.1085
@<TRIPOS>BOND
     1    34    30    1
     2    32    30   ar
     3    32    29   ar
     4    30    33   ar
     5    29    28   ar
     6    33    31   ar
     7    28    31   ar
     8    28    23    1
     9    25    24    1
    10    23    24   ar
    11    23    22   ar
    12    24    20   ar
    13    19    14    1
    14    20    15    1
    15    20    21   ar
    16    14    15   ar
    17    14    13   ar
    18    22    27    1
    19    22    21   ar
    20    11     7    1
    21    15    16   ar
    22    18    13    1
    23    13    12   ar
    24    21    26    1
    25    16    12   ar
    26    16    17    1
    27    12     4    1
    28     7     4   ar
    29     7     6   ar
    30     8     6    1
    31     4     2   ar
    32     6     3   ar
    33     2     5    1
    34     2     1   ar
    35     3     9    1
    36     3     1   ar
    37     1    10    1
