@<TRIPOS>MOLECULE
mol_data/opt/cam/geoms/mol2/413-13.out
 28 30 0 0 0
SMALL
GASTEIGER

@<TRIPOS>ATOM
      1 C          -0.1121    0.1220    0.0023 C.ar    1  LIG1       -0.0611
      2 C           1.2751    0.0637    0.0019 C.ar    1  LIG1       -0.0526
      3 C          -0.7642    1.3481    0.0006 C.ar    1  LIG1       -0.0617
      4 C           2.0484    1.2305   -0.0002 C.ar    1  LIG1       -0.0017
      5 H           1.7489   -0.9131    0.0035 H       1  LIG1        0.0624
      6 C          -0.0092    2.5168   -0.0014 C.ar    1  LIG1       -0.0611
      7 C           1.3752    2.4594   -0.0018 C.ar    1  LIG1       -0.0526
      8 H          -0.5033    3.4831   -0.0027 H       1  LIG1        0.0618
      9 H          -1.8480    1.3939    0.0009 H       1  LIG1        0.0618
     10 H          -0.6849   -0.7998    0.0039 H       1  LIG1        0.0618
     11 H           1.9465    3.3809   -0.0036 H       1  LIG1        0.0624
     12 C           3.5105    1.1947   -0.0006 C.ar    1  LIG1        0.0469
     13 C           4.4377    2.2185   -0.0006 C.ar    1  LIG1       -0.0358
     14 C           5.7272    1.6431   -0.0011 C.ar    1  LIG1       -0.0344
     15 C           5.5731    0.2700   -0.0015 C.ar    1  LIG1        0.0633
     16 N           4.2271    0.0198   -0.0012 N.ar    1  LIG1       -0.3530
     17 H           3.8286   -0.9032   -0.0013 H       1  LIG1        0.1659
     18 H           4.2137    3.2746   -0.0002 H       1  LIG1        0.0639
     19 H           6.6646    2.1811   -0.0013 H       1  LIG1        0.0639
     20 C           6.5448   -0.8037   -0.0021 C.ar    1  LIG1        0.0629
     21 C           6.3917   -2.1758   -0.0039 C.ar    1  LIG1       -0.0350
     22 C           7.6858   -2.7557   -0.0041 C.ar    1  LIG1       -0.0438
     23 C           8.5936   -1.7284   -0.0015 C.ar    1  LIG1        0.0022
     24 N           7.8940   -0.5517   -0.0007 N.ar    1  LIG1       -0.3595
     25 H           8.3021    0.3677    0.0009 H       1  LIG1        0.1654
     26 H           9.6725   -1.7364   -0.0005 H       1  LIG1        0.0807
     27 H           5.4532   -2.7123   -0.0054 H       1  LIG1        0.0639
     28 H           7.9212   -3.8097   -0.0056 H       1  LIG1        0.0633
@<TRIPOS>BOND
     1    28    22    1
     2    27    21    1
     3    22    21   ar
     4    22    23   ar
     5    21    20   ar
     6    11     7    1
     7     8     6    1
     8    20    15    1
     9    20    24   ar
    10     7     6   ar
    11     7     4   ar
    12    23    24   ar
    13    23    26    1
    14    15    16   ar
    15    15    14   ar
    16     6     3   ar
    17    17    16    1
    18    19    14    1
    19    16    12   ar
    20    14    13   ar
    21    24    25    1
    22    12    13   ar
    23    12     4    1
    24    13    18    1
    25     4     2   ar
    26     3     9    1
    27     3     1   ar
    28     2     1   ar
    29     2     5    1
    30     1    10    1
