@<TRIPOS>MOLECULE
mol_data/opt/cam/geoms/mol2/413-55.out
 34 37 0 0 0
SMALL
GASTEIGER

@<TRIPOS>ATOM
      1 C          -0.1614    0.1990    0.5687 C.ar    1  LIG1       -0.0611
      2 C           1.2263    0.1573    0.5477 C.ar    1  LIG1       -0.0526
      3 C          -0.8342    1.3437    0.1588 C.ar    1  LIG1       -0.0617
      4 C           1.9697    1.2559    0.1028 C.ar    1  LIG1       -0.0017
      5 H           1.7357   -0.7298    0.9127 H       1  LIG1        0.0624
      6 C          -0.1056    2.4461   -0.2761 C.ar    1  LIG1       -0.0611
      7 C           1.2801    2.4014   -0.3105 C.ar    1  LIG1       -0.0526
      8 H          -0.6211    3.3437   -0.6022 H       1  LIG1        0.0618
      9 H          -1.9183    1.3777    0.1793 H       1  LIG1        0.0618
     10 H          -0.7186   -0.6636    0.9199 H       1  LIG1        0.0618
     11 H           1.8417    3.2535   -0.6781 H       1  LIG1        0.0624
     12 C           3.4322    1.2255    0.0680 C.ar    1  LIG1        0.0469
     13 C           4.3599    2.2441    0.1677 C.ar    1  LIG1       -0.0358
     14 C           5.6469    1.6686    0.0956 C.ar    1  LIG1       -0.0353
     15 C           5.4881    0.3045   -0.0531 C.ar    1  LIG1        0.0536
     16 N           4.1378    0.0552   -0.0603 N.ar    1  LIG1       -0.3537
     17 H           3.7255   -0.8564   -0.1697 H       1  LIG1        0.1659
     18 H           4.1287    3.2897    0.3074 H       1  LIG1        0.0639
     19 H           6.5934    2.1882    0.1288 H       1  LIG1        0.0639
     20 C           6.4579   -0.7607   -0.2048 C.ar    1  LIG1        0.0361
     21 C           6.3002   -1.9882   -0.7925 C.ar    1  LIG1       -0.0449
     22 C           7.4795   -2.7772   -0.7731 C.ar    1  LIG1       -0.0458
     23 C           8.5383   -2.1569   -0.1689 C.ar    1  LIG1        0.0265
     24 S           8.0728   -0.5817    0.4101 S.2     1  LIG1       -0.0863
     25 H           5.3813   -2.3037   -1.2728 H       1  LIG1        0.0630
     26 H           7.5585   -3.7574   -1.2267 H       1  LIG1        0.0629
     27 C           9.8800   -2.6846    0.0234 C.ar    1  LIG1        0.0259
     28 C          10.2384   -3.9920    0.2126 C.ar    1  LIG1       -0.0464
     29 C          11.6433   -4.1761    0.3406 C.ar    1  LIG1       -0.0541
     30 C          12.3361   -3.0082    0.2572 C.ar    1  LIG1       -0.0237
     31 S          11.2890   -1.6632    0.0013 S.2     1  LIG1       -0.0961
     32 H          13.4030   -2.8566    0.3332 H       1  LIG1        0.0693
     33 H           9.5119   -4.7918    0.2836 H       1  LIG1        0.0629
     34 H          12.1131   -5.1384    0.5017 H       1  LIG1        0.0623
@<TRIPOS>BOND
     1    25    21    1
     2    26    22    1
     3    21    22   ar
     4    21    20   ar
     5    22    23   ar
     6    11     7    1
     7     8     6    1
     8     7     6   ar
     9     7     4   ar
    10     6     3   ar
    11    20    15    1
    12    20    24   ar
    13    17    16    1
    14    23    27    1
    15    23    24   ar
    16    16    15   ar
    17    16    12   ar
    18    15    14   ar
    19    31    27   ar
    20    31    30   ar
    21    27    28   ar
    22    12     4    1
    23    12    13   ar
    24    14    19    1
    25    14    13   ar
    26     4     2   ar
    27     3     9    1
    28     3     1   ar
    29    13    18    1
    30    28    33    1
    31    28    29   ar
    32    30    32    1
    33    30    29   ar
    34    29    34    1
    35     2     1   ar
    36     2     5    1
    37     1    10    1
