@<TRIPOS>MOLECULE
mol_data/opt/cam/geoms/mol2/413-.out
 20 21 0 0 0
SMALL
GASTEIGER

@<TRIPOS>ATOM
      1 C          -0.0316    0.0689    0.0011 C.ar    1  LIG1       -0.0611
      2 C           1.3560    0.0221    0.0008 C.ar    1  LIG1       -0.0526
      3 C          -0.6938    1.2895    0.0004 C.ar    1  LIG1       -0.0617
      4 C           2.1205    1.1944   -0.0003 C.ar    1  LIG1       -0.0017
      5 H           1.8372   -0.9512    0.0015 H       1  LIG1        0.0624
      6 C           0.0521    2.4637   -0.0006 C.ar    1  LIG1       -0.0611
      7 C           1.4371    2.4172   -0.0010 C.ar    1  LIG1       -0.0526
      8 H          -0.4495    3.4263   -0.0011 H       1  LIG1        0.0618
      9 H          -1.7778    1.3265    0.0007 H       1  LIG1        0.0618
     10 H          -0.5969   -0.8576    0.0019 H       1  LIG1        0.0618
     11 H           2.0011    3.3431   -0.0019 H       1  LIG1        0.0624
     12 C           3.5846    1.1706   -0.0007 C.ar    1  LIG1        0.0465
     13 C           4.5039    2.2016   -0.0003 C.ar    1  LIG1       -0.0364
     14 C           5.8011    1.6360   -0.0008 C.ar    1  LIG1       -0.0438
     15 C           5.6488    0.2724   -0.0020 C.ar    1  LIG1        0.0022
     16 N           4.3098    0.0013   -0.0017 N.ar    1  LIG1       -0.3607
     17 H           3.9153   -0.9232   -0.0023 H       1  LIG1        0.1653
     18 H           6.3790   -0.5222   -0.0028 H       1  LIG1        0.0807
     19 H           4.2692    3.2556    0.0006 H       1  LIG1        0.0639
     20 H           6.7402    2.1693   -0.0005 H       1  LIG1        0.0633
@<TRIPOS>BOND
     1    18    15    1
     2    17    16    1
     3    15    16   ar
     4    15    14   ar
     5    11     7    1
     6    16    12   ar
     7     8     6    1
     8     7     6   ar
     9     7     4   ar
    10    14    20    1
    11    14    13   ar
    12    12     4    1
    13    12    13   ar
    14     6     3   ar
    15     4     2   ar
    16    13    19    1
    17     3     9    1
    18     3     1   ar
    19     2     1   ar
    20     2     5    1
    21     1    10    1
