@<TRIPOS>MOLECULE
mol_data/opt/cam/geoms/mol2/413-12-.out
 27 29 0 0 0
SMALL
GASTEIGER

@<TRIPOS>ATOM
      1 C          -0.0870    0.1087    0.0016 C.ar    1  LIG1       -0.0611
      2 C           1.3002    0.0545    0.0015 C.ar    1  LIG1       -0.0526
      3 C          -0.7424    1.3333    0.0003 C.ar    1  LIG1       -0.0617
      4 C           2.0692    1.2238   -0.0002 C.ar    1  LIG1       -0.0017
      5 H           1.7787   -0.9200    0.0028 H       1  LIG1        0.0624
      6 C           0.0088    2.5043   -0.0013 C.ar    1  LIG1       -0.0611
      7 C           1.3936    2.4510   -0.0015 C.ar    1  LIG1       -0.0526
      8 H          -0.4883    3.4691   -0.0024 H       1  LIG1        0.0618
      9 H          -1.8263    1.3760    0.0004 H       1  LIG1        0.0618
     10 H          -0.6573   -0.8146    0.0029 H       1  LIG1        0.0618
     11 H           1.9623    3.3741   -0.0029 H       1  LIG1        0.0624
     12 C           3.5318    1.1899   -0.0004 C.ar    1  LIG1        0.0470
     13 C           4.4587    2.2180   -0.0000 C.ar    1  LIG1       -0.0357
     14 C           5.7489    1.6488   -0.0003 C.ar    1  LIG1       -0.0328
     15 C           5.5914    0.2771   -0.0013 C.ar    1  LIG1        0.0825
     16 N           4.2472    0.0184   -0.0012 N.ar    1  LIG1       -0.3518
     17 H           3.8687   -0.9141   -0.0020 H       1  LIG1        0.1660
     18 H           4.2308    3.2733    0.0008 H       1  LIG1        0.0639
     19 H           6.6913    2.1762    0.0000 H       1  LIG1        0.0640
     20 C           6.5510   -0.8005   -0.0022 C.ar    1  LIG1        0.1509
     21 C           7.9112   -0.8631   -0.0023 C.ar    1  LIG1       -0.0144
     22 C           8.2502   -2.2517   -0.0037 C.ar    1  LIG1       -0.0233
     23 C           7.0799   -2.9309   -0.0037 C.ar    1  LIG1        0.0926
     24 O           6.0314   -2.0625   -0.0031 O.2     1  LIG1       -0.4615
     25 H           6.8246   -3.9781   -0.0043 H       1  LIG1        0.1029
     26 H           8.5885   -0.0228   -0.0017 H       1  LIG1        0.0656
     27 H           9.2404   -2.6819   -0.0042 H       1  LIG1        0.0649
@<TRIPOS>BOND
     1    25    23    1
     2    27    22    1
     3    23    22   ar
     4    23    24   ar
     5    22    21   ar
     6    24    20   ar
     7    11     7    1
     8     8     6    1
     9    21    20   ar
    10    21    26    1
    11    20    15    1
    12    17    16    1
    13     7     6   ar
    14     7     4   ar
    15     6     3   ar
    16    15    16   ar
    17    15    14   ar
    18    16    12   ar
    19    12     4    1
    20    12    13   ar
    21    14    13   ar
    22    14    19    1
    23     4     2   ar
    24    13    18    1
    25     3     9    1
    26     3     1   ar
    27     2     1   ar
    28     2     5    1
    29     1    10    1
