@<TRIPOS>MOLECULE
mol_data/opt/cam/geoms/mol2/413.out
 20 21 0 0 0
SMALL
GASTEIGER

@<TRIPOS>ATOM
      1 C          -0.0050    0.0580    0.0008 C.ar    1  LIG1       -0.0611
      2 C           1.3807    0.0383    0.0007 C.ar    1  LIG1       -0.0526
      3 C          -0.6939    1.2664    0.0001 C.ar    1  LIG1       -0.0617
      4 C           2.1218    1.2270   -0.0001 C.ar    1  LIG1       -0.0017
      5 H           1.8998   -0.9135    0.0014 H       1  LIG1        0.0624
      6 C           0.0258    2.4540   -0.0008 C.ar    1  LIG1       -0.0611
      7 C           1.4141    2.4345   -0.0009 C.ar    1  LIG1       -0.0526
      8 H          -0.4945    3.4065   -0.0014 H       1  LIG1        0.0618
      9 H          -1.7785    1.2813    0.0001 H       1  LIG1        0.0618
     10 H          -0.5519   -0.8795    0.0015 H       1  LIG1        0.0618
     11 H           1.9412    3.3837   -0.0017 H       1  LIG1        0.0624
     12 C           3.5853    1.1809   -0.0002 C.ar    1  LIG1        0.0465
     13 C           4.4543    0.1071   -0.0006 C.ar    1  LIG1       -0.0364
     14 C           5.7771    0.6101   -0.0008 C.ar    1  LIG1       -0.0438
     15 C           5.6901    1.9794    0.0002 C.ar    1  LIG1        0.0022
     16 N           4.3656    2.3142    0.0003 N.ar    1  LIG1       -0.3607
     17 H           4.0157    3.2565    0.0008 H       1  LIG1        0.1653
     18 H           6.4575    2.7382    0.0007 H       1  LIG1        0.0807
     19 H           4.1695   -0.9345   -0.0011 H       1  LIG1        0.0639
     20 H           6.6896    0.0324   -0.0012 H       1  LIG1        0.0633
@<TRIPOS>BOND
     1    11     7    1
     2     8     6    1
     3    20    14    1
     4    19    13    1
     5     7     6   ar
     6     7     4   ar
     7     6     3   ar
     8    14    13   ar
     9    14    15   ar
    10    13    12   ar
    11    12     4    1
    12    12    16   ar
    13     4     2   ar
    14     3     9    1
    15     3     1   ar
    16    15    16   ar
    17    15    18    1
    18    16    17    1
    19     2     1   ar
    20     2     5    1
    21     1    10    1
