@<TRIPOS>MOLECULE
mol_data/opt/cam/geoms/mol2/41312-5-.out
 34 37 0 0 0
SMALL
GASTEIGER

@<TRIPOS>ATOM
      1 C          -0.0918    0.0915    0.4661 C.ar    1  LIG1       -0.0611
      2 C           1.2912    0.0607    0.3685 C.ar    1  LIG1       -0.0526
      3 C          -0.7923    1.2563    0.1693 C.ar    1  LIG1       -0.0617
      4 C           2.0046    1.1923   -0.0426 C.ar    1  LIG1       -0.0017
      5 H           1.8341   -0.8414    0.6299 H       1  LIG1        0.0624
      6 C          -0.0951    2.3879   -0.2366 C.ar    1  LIG1       -0.0611
      7 C           1.2883    2.3550   -0.3484 C.ar    1  LIG1       -0.0526
      8 H          -0.6316    3.2992   -0.4809 H       1  LIG1        0.0618
      9 H          -1.8737    1.2808    0.2525 H       1  LIG1        0.0618
     10 H          -0.6262   -0.7966    0.7879 H       1  LIG1        0.0618
     11 H           1.8143    3.2341   -0.7085 H       1  LIG1        0.0624
     12 C           3.4626    1.1467   -0.1478 C.ar    1  LIG1        0.0470
     13 C           4.3210    0.0922   -0.3893 C.ar    1  LIG1       -0.0357
     14 C           5.6403    0.5956   -0.3974 C.ar    1  LIG1       -0.0328
     15 C           5.5663    1.9524   -0.1571 C.ar    1  LIG1        0.0825
     16 N           4.2382    2.2741   -0.0219 N.ar    1  LIG1       -0.3518
     17 H           3.8924    3.1674    0.2875 H       1  LIG1        0.1660
     18 H           4.0204   -0.9275   -0.5800 H       1  LIG1        0.0639
     19 H           6.5516    0.0449   -0.5742 H       1  LIG1        0.0640
     20 C           6.6062    2.9427   -0.0523 C.ar    1  LIG1        0.1518
     21 C           6.6112    4.3038    0.0552 C.ar    1  LIG1       -0.0138
     22 C           7.9763    4.7012    0.1225 C.ar    1  LIG1       -0.0147
     23 C           8.7176    3.5594    0.0484 C.ar    1  LIG1        0.1423
     24 O           7.8864    2.4833   -0.0562 O.2     1  LIG1       -0.4528
     25 H           5.7485    4.9534    0.0691 H       1  LIG1        0.0656
     26 H           8.3592    5.7066    0.2098 H       1  LIG1        0.0656
     27 C          10.1361    3.2908    0.0595 C.ar    1  LIG1        0.0544
     28 C          11.1650    4.1896    0.1572 C.ar    1  LIG1       -0.0440
     29 C          12.4450    3.5716    0.1360 C.ar    1  LIG1       -0.0540
     30 C          12.3724    2.2173    0.0232 C.ar    1  LIG1       -0.0236
     31 S          10.7407    1.6664   -0.0595 S.2     1  LIG1       -0.0936
     32 H          13.1844    1.5060   -0.0163 H       1  LIG1        0.0693
     33 H          11.0109    5.2583    0.2412 H       1  LIG1        0.0630
     34 H          13.3782    4.1170    0.2023 H       1  LIG1        0.0623
@<TRIPOS>BOND
     1    11     7    1
     2    18    13    1
     3    19    14    1
     4     8     6    1
     5    14    13   ar
     6    14    15   ar
     7    13    12   ar
     8     7     6   ar
     9     7     4   ar
    10     6     3   ar
    11    15    20    1
    12    15    16   ar
    13    12     4    1
    14    12    16   ar
    15    31    30   ar
    16    31    27   ar
    17    24    20   ar
    18    24    23   ar
    19    20    21   ar
    20     4     2   ar
    21    16    17    1
    22    32    30    1
    23    30    29   ar
    24    23    27    1
    25    23    22   ar
    26    21    25    1
    27    21    22   ar
    28    27    28   ar
    29    22    26    1
    30    29    28   ar
    31    29    34    1
    32    28    33    1
    33     3     9    1
    34     3     1   ar
    35     2     1   ar
    36     2     5    1
    37     1    10    1
