@<TRIPOS>MOLECULE
mol_data/opt/cam/geoms/mol2/41313-5-.out
 35 38 0 0 0
SMALL
GASTEIGER

@<TRIPOS>ATOM
      1 C          -0.1285   -0.0100    0.0006 C.ar    1  LIG1       -0.0611
      2 C           1.2571   -0.0179    0.0010 C.ar    1  LIG1       -0.0526
      3 C          -0.8272    1.1931   -0.0010 C.ar    1  LIG1       -0.0617
      4 C           1.9872    1.1779   -0.0002 C.ar    1  LIG1       -0.0017
      5 H           1.7843   -0.9654    0.0024 H       1  LIG1        0.0624
      6 C          -0.1181    2.3872   -0.0023 C.ar    1  LIG1       -0.0611
      7 C           1.2702    2.3800   -0.0019 C.ar    1  LIG1       -0.0526
      8 H          -0.6470    3.3350   -0.0036 H       1  LIG1        0.0618
      9 H          -1.9120    1.1987   -0.0013 H       1  LIG1        0.0618
     10 H          -0.6677   -0.9518    0.0016 H       1  LIG1        0.0618
     11 H           1.7894    3.3336   -0.0031 H       1  LIG1        0.0624
     12 C           3.4494    1.1451    0.0002 C.ar    1  LIG1        0.0469
     13 C           4.3276    0.0782    0.0007 C.ar    1  LIG1       -0.0358
     14 C           5.6421    0.5914    0.0010 C.ar    1  LIG1       -0.0344
     15 C           5.5529    1.9707    0.0008 C.ar    1  LIG1        0.0633
     16 N           4.2195    2.2846    0.0003 N.ar    1  LIG1       -0.3530
     17 H           3.8635    3.2249   -0.0000 H       1  LIG1        0.1659
     18 H           4.0542   -0.9661    0.0008 H       1  LIG1        0.0639
     19 H           6.5530    0.0097    0.0014 H       1  LIG1        0.0639
     20 C           6.5734    2.9945    0.0010 C.ar    1  LIG1        0.0633
     21 C           6.4856    4.3745    0.0020 C.ar    1  LIG1       -0.0344
     22 C           7.7992    4.8903    0.0018 C.ar    1  LIG1       -0.0353
     23 C           8.6735    3.8209    0.0005 C.ar    1  LIG1        0.0536
     24 N           7.9073    2.6791    0.0000 N.ar    1  LIG1       -0.3526
     25 H           8.2669    1.7384   -0.0009 H       1  LIG1        0.1660
     26 H           5.5745    4.9558    0.0030 H       1  LIG1        0.0639
     27 H           8.0824    5.9323    0.0024 H       1  LIG1        0.0639
     28 C          10.1222    3.7959   -0.0003 C.ar    1  LIG1        0.0355
     29 C          10.9840    4.8597    0.0005 C.ar    1  LIG1       -0.0455
     30 C          12.3540    4.4751   -0.0006 C.ar    1  LIG1       -0.0541
     31 C          12.5283    3.1272   -0.0022 C.ar    1  LIG1       -0.0237
     32 S          11.0129    2.2985   -0.0025 S.2     1  LIG1       -0.0952
     33 H          13.4506    2.5657   -0.0033 H       1  LIG1        0.0693
     34 H          10.6474    5.8887    0.0019 H       1  LIG1        0.0629
     35 H          13.1759    5.1804   -0.0002 H       1  LIG1        0.0623
@<TRIPOS>BOND
     1     8     6    1
     2    33    31    1
     3    11     7    1
     4    32    31   ar
     5    32    28   ar
     6     6     7   ar
     7     6     3   ar
     8    31    30   ar
     9     7     4   ar
    10     9     3    1
    11     3     1   ar
    12    25    24    1
    13    30    35    1
    14    30    29   ar
    15    28    23    1
    16    28    29   ar
    17     4    12    1
    18     4     2   ar
    19    17    16    1
    20    24    23   ar
    21    24    20   ar
    22    12    16   ar
    23    12    13   ar
    24    16    15   ar
    25    23    22   ar
    26    29    34    1
    27     1     2   ar
    28     1    10    1
    29    13    18    1
    30    13    14   ar
    31    15    14   ar
    32    15    20    1
    33    14    19    1
    34    20    21   ar
    35     2     5    1
    36    22    21   ar
    37    22    27    1
    38    21    26    1
