@<TRIPOS>MOLECULE
mol_data/opt/cam/geoms/mol2/41313.out
 28 30 0 0 0
SMALL
GASTEIGER

@<TRIPOS>ATOM
      1 C          -0.0274    0.0185   -0.3786 C.ar    1  LIG1       -0.0611
      2 C           1.3527    0.0081   -0.2428 C.ar    1  LIG1       -0.0526
      3 C          -0.7395    1.2062   -0.2439 C.ar    1  LIG1       -0.0617
      4 C           2.0527    1.1851    0.0467 C.ar    1  LIG1       -0.0017
      5 H           1.9047   -0.9157   -0.3789 H       1  LIG1        0.0624
      6 C          -0.0559    2.3827    0.0382 C.ar    1  LIG1       -0.0611
      7 C           1.3244    2.3716    0.1888 C.ar    1  LIG1       -0.0526
      8 H          -0.6007    3.3142    0.1545 H       1  LIG1        0.0618
      9 H          -1.8183    1.2137   -0.3576 H       1  LIG1        0.0618
     10 H          -0.5503   -0.9056   -0.6036 H       1  LIG1        0.0618
     11 H           1.8396    3.2913    0.4494 H       1  LIG1        0.0624
     12 C           3.5070    1.1617    0.1956 C.ar    1  LIG1        0.0469
     13 C           4.3635    0.1467    0.5640 C.ar    1  LIG1       -0.0358
     14 C           5.6827    0.6615    0.5549 C.ar    1  LIG1       -0.0344
     15 C           5.6131    1.9825    0.1730 C.ar    1  LIG1        0.0633
     16 N           4.2819    2.2815   -0.0183 N.ar    1  LIG1       -0.3530
     17 H           3.9600    3.0972   -0.5146 H       1  LIG1        0.1659
     18 H           4.0632   -0.8478    0.8606 H       1  LIG1        0.0639
     19 H           6.5872    0.1422    0.8350 H       1  LIG1        0.0639
     20 C           6.6515    2.9782   -0.0196 C.ar    1  LIG1        0.0629
     21 C           7.9240    2.8742   -0.5348 C.ar    1  LIG1       -0.0350
     22 C           8.5162    4.1632   -0.4868 C.ar    1  LIG1       -0.0438
     23 C           7.5919    5.0205    0.0515 C.ar    1  LIG1        0.0022
     24 N           6.4577    4.2995    0.3207 N.ar    1  LIG1       -0.3595
     25 H           5.6698    4.6358    0.8495 H       1  LIG1        0.1654
     26 H           7.6444    6.0779    0.2607 H       1  LIG1        0.0807
     27 H           8.3608    1.9698   -0.9317 H       1  LIG1        0.0639
     28 H           9.5059    4.4326   -0.8251 H       1  LIG1        0.0633
@<TRIPOS>BOND
     1    27    21    1
     2    28    22    1
     3    10     1    1
     4    21    22   ar
     5    21    20   ar
     6    17    16    1
     7    22    23   ar
     8     5     2    1
     9     1     3   ar
    10     1     2   ar
    11     9     3    1
    12     3     6   ar
    13     2     4   ar
    14    20    15    1
    15    20    24   ar
    16    16    15   ar
    17    16    12   ar
    18     6     8    1
    19     6     7   ar
    20     4     7   ar
    21     4    12    1
    22    23    26    1
    23    23    24   ar
    24    15    14   ar
    25     7    11    1
    26    12    13   ar
    27    24    25    1
    28    14    13   ar
    29    14    19    1
    30    13    18    1
