@<TRIPOS>MOLECULE
mol_data/opt/cam/geoms/mol2/41312.out
 27 29 0 0 0
SMALL
GASTEIGER

@<TRIPOS>ATOM
      1 C          -0.0505    0.0266    0.0012 C.ar    1  LIG1       -0.0611
      2 C           1.3353    0.0086    0.0011 C.ar    1  LIG1       -0.0526
      3 C          -0.7404    1.2347    0.0001 C.ar    1  LIG1       -0.0617
      4 C           2.0731    1.1994   -0.0002 C.ar    1  LIG1       -0.0017
      5 H           1.8557   -0.9426    0.0022 H       1  LIG1        0.0624
      6 C          -0.0229    2.4239   -0.0012 C.ar    1  LIG1       -0.0611
      7 C           1.3653    2.4068   -0.0014 C.ar    1  LIG1       -0.0526
      8 H          -0.5449    3.3754   -0.0022 H       1  LIG1        0.0618
      9 H          -1.8251    1.2478    0.0002 H       1  LIG1        0.0618
     10 H          -0.5966   -0.9113    0.0023 H       1  LIG1        0.0618
     11 H           1.8933    3.3553   -0.0026 H       1  LIG1        0.0624
     12 C           3.5355    1.1580   -0.0003 C.ar    1  LIG1        0.0470
     13 C           4.4082    0.0836   -0.0007 C.ar    1  LIG1       -0.0357
     14 C           5.7261    0.5856   -0.0009 C.ar    1  LIG1       -0.0328
     15 C           5.6393    1.9636   -0.0001 C.ar    1  LIG1        0.0825
     16 N           4.3103    2.2911    0.0002 N.ar    1  LIG1       -0.3518
     17 H           3.9802    3.2418    0.0008 H       1  LIG1        0.1660
     18 H           4.1264   -0.9586   -0.0012 H       1  LIG1        0.0639
     19 H           6.6401    0.0104   -0.0014 H       1  LIG1        0.0640
     20 C           6.6531    2.9904    0.0004 C.ar    1  LIG1        0.1509
     21 C           8.0148    2.9830    0.0002 C.ar    1  LIG1       -0.0144
     22 C           8.4247    4.3523    0.0011 C.ar    1  LIG1       -0.0233
     23 C           7.2909    5.0908    0.0014 C.ar    1  LIG1        0.0926
     24 O           6.1991    4.2775    0.0012 O.2     1  LIG1       -0.4615
     25 H           7.0899    6.1497    0.0019 H       1  LIG1        0.1029
     26 H           8.6479    2.1089   -0.0005 H       1  LIG1        0.0656
     27 H           9.4358    4.7309    0.0014 H       1  LIG1        0.0649
@<TRIPOS>BOND
     1    11     7    1
     2     8     6    1
     3     7     6   ar
     4     7     4   ar
     5    19    14    1
     6     6     3   ar
     7    18    13    1
     8    14    13   ar
     9    14    15   ar
    10    13    12   ar
    11    26    21    1
    12    12     4    1
    13    12    16   ar
    14     4     2   ar
    15    15    16   ar
    16    15    20    1
    17     3     9    1
    18     3     1   ar
    19    21    20   ar
    20    21    22   ar
    21    16    17    1
    22    20    24   ar
    23     2     1   ar
    24     2     5    1
    25    22    23   ar
    26    22    27    1
    27    24    23   ar
    28     1    10    1
    29    23    25    1
