@<TRIPOS>MOLECULE
mol_data/opt/cam/geoms/mol2/41313-.out
 28 30 0 0 0
SMALL
GASTEIGER

@<TRIPOS>ATOM
      1 C          -0.0740    0.1210    0.4008 C.ar    1  LIG1       -0.0611
      2 C           1.3123    0.0940    0.4197 C.ar    1  LIG1       -0.0526
      3 C          -0.7497    1.2429   -0.0689 C.ar    1  LIG1       -0.0617
      4 C           2.0571    1.1842   -0.0448 C.ar    1  LIG1       -0.0017
      5 H           1.8324   -0.7720    0.8152 H       1  LIG1        0.0624
      6 C          -0.0222    2.3337   -0.5289 C.ar    1  LIG1       -0.0611
      7 C           1.3660    2.3026   -0.5238 C.ar    1  LIG1       -0.0526
      8 H          -0.5372    3.2113   -0.9065 H       1  LIG1        0.0618
      9 H          -1.8343    1.2656   -0.0768 H       1  LIG1        0.0618
     10 H          -0.6316   -0.7352    0.7669 H       1  LIG1        0.0618
     11 H           1.9162    3.1479   -0.9266 H       1  LIG1        0.0624
     12 C           3.5193    1.1386   -0.0276 C.ar    1  LIG1        0.0469
     13 C           4.3909    0.0702   -0.0832 C.ar    1  LIG1       -0.0358
     14 C           5.7093    0.5813   -0.0506 C.ar    1  LIG1       -0.0344
     15 C           5.6220    1.9572    0.0254 C.ar    1  LIG1        0.0633
     16 N           4.2893    2.2759    0.0296 N.ar    1  LIG1       -0.3530
     17 H           3.9340    3.2152    0.0998 H       1  LIG1        0.1659
     18 H           4.1042   -0.9681   -0.1639 H       1  LIG1        0.0639
     19 H           6.6246    0.0066   -0.0482 H       1  LIG1        0.0639
     20 C           6.6458    2.9813    0.1002 C.ar    1  LIG1        0.0629
     21 C           6.6421    4.2382    0.6689 C.ar    1  LIG1       -0.0350
     22 C           7.9183    4.8161    0.4438 C.ar    1  LIG1       -0.0438
     23 C           8.6657    3.9000   -0.2508 C.ar    1  LIG1        0.0022
     24 N           7.8882    2.7911   -0.4514 N.ar    1  LIG1       -0.3595
     25 H           8.1450    1.9834   -0.9941 H       1  LIG1        0.1654
     26 H           9.6799    3.9451   -0.6164 H       1  LIG1        0.0807
     27 H           5.8249    4.6760    1.2247 H       1  LIG1        0.0639
     28 H           8.2528    5.7906    0.7676 H       1  LIG1        0.0633
@<TRIPOS>BOND
     1    25    24    1
     2    11     7    1
     3     8     6    1
     4    26    23    1
     5     6     7   ar
     6     6     3   ar
     7     7     4   ar
     8    24    23   ar
     9    24    20   ar
    10    23    22   ar
    11    18    13    1
    12    13    14   ar
    13    13    12   ar
    14     9     3    1
    15     3     1   ar
    16    14    19    1
    17    14    15   ar
    18     4    12    1
    19     4     2   ar
    20    12    16   ar
    21    15    16   ar
    22    15    20    1
    23    16    17    1
    24    20    21   ar
    25     1     2   ar
    26     1    10    1
    27     2     5    1
    28    22    21   ar
    29    22    28    1
    30    21    27    1
