@<TRIPOS>MOLECULE
mol_data/opt/cam/geoms/mol2/4135.out
 27 29 0 0 0
SMALL
GASTEIGER

@<TRIPOS>ATOM
      1 C          -0.0639    0.1167    0.4163 C.ar    1  LIG1       -0.0611
      2 C           1.3224    0.0835    0.4176 C.ar    1  LIG1       -0.0526
      3 C          -0.7398    1.2524   -0.0184 C.ar    1  LIG1       -0.0617
      4 C           2.0655    1.1819   -0.0294 C.ar    1  LIG1       -0.0017
      5 H           1.8437   -0.7938    0.7856 H       1  LIG1        0.0624
      6 C          -0.0135    2.3511   -0.4614 C.ar    1  LIG1       -0.0611
      7 C           1.3744    2.3145   -0.4737 C.ar    1  LIG1       -0.0526
      8 H          -0.5294    3.2393   -0.8120 H       1  LIG1        0.0618
      9 H          -1.8243    1.2797   -0.0128 H       1  LIG1        0.0618
     10 H          -0.6209   -0.7456    0.7684 H       1  LIG1        0.0618
     11 H           1.9237    3.1666   -0.8632 H       1  LIG1        0.0624
     12 C           3.5278    1.1291   -0.0297 C.ar    1  LIG1        0.0469
     13 C           4.3929    0.0571   -0.1291 C.ar    1  LIG1       -0.0358
     14 C           5.7127    0.5582   -0.0957 C.ar    1  LIG1       -0.0353
     15 C           5.6362    1.9316    0.0234 C.ar    1  LIG1        0.0536
     16 N           4.3027    2.2590    0.0580 N.ar    1  LIG1       -0.3537
     17 H           3.9439    3.1945    0.1622 H       1  LIG1        0.1659
     18 H           4.0986   -0.9761   -0.2406 H       1  LIG1        0.0639
     19 H           6.6276   -0.0144   -0.1334 H       1  LIG1        0.0639
     20 C           6.6869    2.9282    0.1111 C.ar    1  LIG1        0.0355
     21 C           7.9527    2.8646   -0.4020 C.ar    1  LIG1       -0.0455
     22 C           8.7344    4.0201   -0.1165 C.ar    1  LIG1       -0.0541
     23 C           8.0564    4.9547    0.6011 C.ar    1  LIG1       -0.0237
     24 S           6.4541    4.4269    0.9698 S.2     1  LIG1       -0.0952
     25 H           8.3997    5.9211    0.9398 H       1  LIG1        0.0693
     26 H           8.3028    2.0242   -0.9881 H       1  LIG1        0.0629
     27 H           9.7570    4.1517   -0.4478 H       1  LIG1        0.0623
@<TRIPOS>BOND
     1    26    21    1
     2    11     7    1
     3     8     6    1
     4     7     6   ar
     5     7     4   ar
     6     6     3   ar
     7    27    22    1
     8    21    22   ar
     9    21    20   ar
    10    18    13    1
    11    19    14    1
    12    13    14   ar
    13    13    12   ar
    14    22    23   ar
    15    14    15   ar
    16    12     4    1
    17    12    16   ar
    18     4     2   ar
    19     3     9    1
    20     3     1   ar
    21    15    16   ar
    22    15    20    1
    23    16    17    1
    24    20    24   ar
    25     1     2   ar
    26     1    10    1
    27     2     5    1
    28    23    25    1
    29    23    24   ar
