@<TRIPOS>MOLECULE
mol_data/opt/cam/geoms/mol2/4135-.out
 27 29 0 0 0
SMALL
GASTEIGER

@<TRIPOS>ATOM
      1 C          -0.0657   -0.0086    0.0012 C.ar    1  LIG1       -0.0611
      2 C           1.3200   -0.0067    0.0012 C.ar    1  LIG1       -0.0526
      3 C          -0.7729    1.1895   -0.0002 C.ar    1  LIG1       -0.0617
      4 C           2.0411    1.1943   -0.0003 C.ar    1  LIG1       -0.0017
      5 H           1.8540   -0.9503    0.0025 H       1  LIG1        0.0624
      6 C          -0.0726    2.3888   -0.0017 C.ar    1  LIG1       -0.0611
      7 C           1.3158    2.3913   -0.0018 C.ar    1  LIG1       -0.0526
      8 H          -0.6082    3.3326   -0.0029 H       1  LIG1        0.0618
      9 H          -1.8576    1.1872   -0.0002 H       1  LIG1        0.0618
     10 H          -0.5983   -0.9542    0.0024 H       1  LIG1        0.0618
     11 H           1.8281    3.3486   -0.0032 H       1  LIG1        0.0624
     12 C           3.5040    1.1705   -0.0003 C.ar    1  LIG1        0.0469
     13 C           4.3882    0.1072   -0.0010 C.ar    1  LIG1       -0.0358
     14 C           5.6983    0.6275   -0.0004 C.ar    1  LIG1       -0.0353
     15 C           5.6031    2.0057    0.0001 C.ar    1  LIG1        0.0536
     16 N           4.2661    2.3134    0.0003 N.ar    1  LIG1       -0.3537
     17 H           3.9006    3.2498    0.0007 H       1  LIG1        0.1659
     18 H           4.1197   -0.9384   -0.0017 H       1  LIG1        0.0639
     19 H           6.6180    0.0607   -0.0005 H       1  LIG1        0.0639
     20 C           6.6256    3.0326    0.0007 C.ar    1  LIG1        0.0355
     21 C           6.4811    4.3948    0.0028 C.ar    1  LIG1       -0.0455
     22 C           7.7215    5.0940    0.0024 C.ar    1  LIG1       -0.0541
     23 C           8.7943    4.2599    0.0000 C.ar    1  LIG1       -0.0237
     24 S           8.3105    2.6029   -0.0010 S.2     1  LIG1       -0.0952
     25 H           9.8434    4.5166   -0.0009 H       1  LIG1        0.0693
     26 H           5.5212    4.8980    0.0044 H       1  LIG1        0.0629
     27 H           7.8031    6.1738    0.0037 H       1  LIG1        0.0623
@<TRIPOS>BOND
     1    11     7    1
     2     8     6    1
     3     7     6   ar
     4     7     4   ar
     5     6     3   ar
     6    18    13    1
     7    24    23   ar
     8    24    20   ar
     9    13    14   ar
    10    13    12   ar
    11    25    23    1
    12    19    14    1
    13    14    15   ar
    14    12     4    1
    15    12    16   ar
    16     4     2   ar
    17     3     9    1
    18     3     1   ar
    19    23    22   ar
    20    15    16   ar
    21    15    20    1
    22    16    17    1
    23    20    21   ar
    24     2     1   ar
    25     2     5    1
    26     1    10    1
    27    22    21   ar
    28    22    27    1
    29    21    26    1
