@<TRIPOS>MOLECULE
mol_data/opt/cam/geoms/mol2/413512-.out
 34 37 0 0 0
SMALL
GASTEIGER

@<TRIPOS>ATOM
      1 C          -0.0951    0.1002    0.5718 C.ar    1  LIG1       -0.0611
      2 C           1.2915    0.0920    0.5869 C.ar    1  LIG1       -0.0526
      3 C          -0.7856    1.1372   -0.0471 C.ar    1  LIG1       -0.0617
      4 C           2.0202    1.1154   -0.0296 C.ar    1  LIG1       -0.0017
      5 H           1.8237   -0.7039    1.0969 H       1  LIG1        0.0624
      6 C          -0.0738    2.1612   -0.6601 C.ar    1  LIG1       -0.0611
      7 C           1.3146    2.1475   -0.6579 C.ar    1  LIG1       -0.0526
      8 H          -0.6011    2.9705   -1.1548 H       1  LIG1        0.0618
      9 H          -1.8705    1.1459   -0.0526 H       1  LIG1        0.0618
     10 H          -0.6410   -0.7025    1.0573 H       1  LIG1        0.0618
     11 H           1.8530    2.9338   -1.1789 H       1  LIG1        0.0624
     12 C           3.4831    1.0899   -0.0119 C.ar    1  LIG1        0.0469
     13 C           4.3674    0.0320    0.0736 C.ar    1  LIG1       -0.0358
     14 C           5.6777    0.5551    0.0318 C.ar    1  LIG1       -0.0353
     15 C           5.5772    1.9284   -0.0792 C.ar    1  LIG1        0.0536
     16 N           4.2376    2.2325   -0.1074 N.ar    1  LIG1       -0.3537
     17 H           3.8609    3.1648   -0.1671 H       1  LIG1        0.1659
     18 H           4.0916   -1.0105    0.1340 H       1  LIG1        0.0639
     19 H           6.6022    0.0006    0.0958 H       1  LIG1        0.0639
     20 C           6.6092    2.9421   -0.1518 C.ar    1  LIG1        0.0362
     21 C           7.8894    2.8146   -0.6164 C.ar    1  LIG1       -0.0448
     22 C           8.6440    4.0134   -0.5322 C.ar    1  LIG1       -0.0433
     23 C           7.9373    5.0617   -0.0121 C.ar    1  LIG1        0.0550
     24 S           6.3257    4.5678    0.4161 S.2     1  LIG1       -0.0837
     25 H           8.2694    1.8895   -1.0311 H       1  LIG1        0.0630
     26 H           9.6710    4.1128   -0.8587 H       1  LIG1        0.0630
     27 C           8.3844    6.4198    0.1940 C.ar    1  LIG1        0.1413
     28 C           7.7960    7.5450    0.6901 C.ar    1  LIG1       -0.0154
     29 C           8.7814    8.5766    0.6277 C.ar    1  LIG1       -0.0233
     30 C           9.8908    8.0058    0.1013 C.ar    1  LIG1        0.0926
     31 O           9.6678    6.6943   -0.1689 O.2     1  LIG1       -0.4624
     32 H          10.8760    8.3740   -0.1354 H       1  LIG1        0.1029
     33 H           6.7836    7.6291    1.0564 H       1  LIG1        0.0655
     34 H           8.6724    9.6053    0.9359 H       1  LIG1        0.0649
@<TRIPOS>BOND
     1    11     7    1
     2     8     6    1
     3    25    21    1
     4    26    22    1
     5     6     7   ar
     6     6     3   ar
     7     7     4   ar
     8    21    22   ar
     9    21    20   ar
    10    22    23   ar
    11    31    30   ar
    12    31    27   ar
    13    17    16    1
    14    20    15    1
    15    20    24   ar
    16    32    30    1
    17    16    15   ar
    18    16    12   ar
    19    15    14   ar
    20     9     3    1
    21     3     1   ar
    22     4    12    1
    23     4     2   ar
    24    23    27    1
    25    23    24   ar
    26    12    13   ar
    27    14    13   ar
    28    14    19    1
    29    13    18    1
    30    30    29   ar
    31    27    28   ar
    32     1     2   ar
    33     1    10    1
    34     2     5    1
    35    29    28   ar
    36    29    34    1
    37    28    33    1
