@<TRIPOS>MOLECULE
mol_data/opt/cam/geoms/mol2/4138-.out
 26 28 0 0 0
SMALL
GASTEIGER

@<TRIPOS>ATOM
      1 C          -0.0380    0.0416    0.0013 C.ar    1  LIG1       -0.0611
      2 C           1.3481    0.0205    0.0011 C.ar    1  LIG1       -0.0526
      3 C          -0.7229    1.2520    0.0002 C.ar    1  LIG1       -0.0617
      4 C           2.0849    1.2105   -0.0002 C.ar    1  LIG1       -0.0017
      5 H           1.8665   -0.9317    0.0022 H       1  LIG1        0.0624
      6 C          -0.0043    2.4410   -0.0012 C.ar    1  LIG1       -0.0611
      7 C           1.3834    2.4209   -0.0014 C.ar    1  LIG1       -0.0526
      8 H          -0.5250    3.3930   -0.0021 H       1  LIG1        0.0618
      9 H          -1.8076    1.2678    0.0003 H       1  LIG1        0.0618
     10 H          -0.5871   -0.8944    0.0024 H       1  LIG1        0.0618
     11 H           1.9147    3.3673   -0.0026 H       1  LIG1        0.0624
     12 C           3.5494    1.1665   -0.0004 C.ar    1  LIG1        0.0470
     13 C           4.4171    0.0783   -0.0010 C.ar    1  LIG1       -0.0357
     14 C           5.7323    0.5683   -0.0010 C.ar    1  LIG1       -0.0326
     15 C           5.6502    1.9492   -0.0001 C.ar    1  LIG1        0.0879
     16 N           4.3218    2.2889    0.0002 N.ar    1  LIG1       -0.3516
     17 H           4.0132    3.2487    0.0009 H       1  LIG1        0.1660
     18 H           4.1253   -0.9608   -0.0016 H       1  LIG1        0.0639
     19 H           6.6500    0.0004   -0.0015 H       1  LIG1        0.0640
     20 C           6.6659    2.9680    0.0004 C.ar    1  LIG1        0.2193
     21 N           6.2494    4.2479    0.0013 N.ar    1  LIG1       -0.1243
     22 C           8.4348    4.7981    0.0015 C.ar    1  LIG1        0.1605
     23 N           7.9590    2.5876    0.0001 N.ar    1  LIG1       -0.1243
     24 N           7.1622    5.1873    0.0018 N.ar    1  LIG1       -0.1338
     25 N           8.8613    3.5322    0.0006 N.ar    1  LIG1       -0.1338
     26 H           9.1912    5.5741    0.0018 H       1  LIG1        0.1085
@<TRIPOS>BOND
     1    11     7    1
     2     8     6    1
     3    18    13    1
     4    19    14    1
     5     7     6   ar
     6     7     4   ar
     7     6     3   ar
     8    13    14   ar
     9    13    12   ar
    10    14    15   ar
    11    12     4    1
    12    12    16   ar
    13     4     2   ar
    14    15    16   ar
    15    15    20    1
    16    23    20   ar
    17    23    25   ar
    18    16    17    1
    19     3     9    1
    20     3     1   ar
    21    20    21   ar
    22    25    22   ar
    23     2     1   ar
    24     2     5    1
    25    21    24   ar
    26     1    10    1
    27    22    24   ar
    28    22    26    1
