@<TRIPOS>MOLECULE
mol_data/opt/cam/geoms/mol2/4138-8-.out
 32 35 0 0 0
SMALL
GASTEIGER

@<TRIPOS>ATOM
      1 C          -0.0639    0.0348    0.0013 C.ar    1  LIG1       -0.0611
      2 C           1.3221    0.0096    0.0012 C.ar    1  LIG1       -0.0526
      3 C          -0.7447    1.2476    0.0001 C.ar    1  LIG1       -0.0617
      4 C           2.0615    1.1978   -0.0002 C.ar    1  LIG1       -0.0017
      5 H           1.8375   -0.9441    0.0022 H       1  LIG1        0.0624
      6 C          -0.0230    2.4349   -0.0012 C.ar    1  LIG1       -0.0611
      7 C           1.3645    2.4108   -0.0014 C.ar    1  LIG1       -0.0526
      8 H          -0.5412    3.3881   -0.0022 H       1  LIG1        0.0618
      9 H          -1.8292    1.2667    0.0003 H       1  LIG1        0.0618
     10 H          -0.6160   -0.8992    0.0024 H       1  LIG1        0.0618
     11 H           1.8984    3.3558   -0.0027 H       1  LIG1        0.0624
     12 C           3.5257    1.1495   -0.0003 C.ar    1  LIG1        0.0470
     13 C           4.3897    0.0552   -0.0009 C.ar    1  LIG1       -0.0357
     14 C           5.7046    0.5379   -0.0009 C.ar    1  LIG1       -0.0326
     15 C           5.6297    1.9218   -0.0001 C.ar    1  LIG1        0.0879
     16 N           4.3013    2.2671    0.0001 N.ar    1  LIG1       -0.3516
     17 H           3.9958    3.2281    0.0008 H       1  LIG1        0.1660
     18 H           4.0923   -0.9821   -0.0014 H       1  LIG1        0.0639
     19 H           6.6200   -0.0338   -0.0013 H       1  LIG1        0.0640
     20 C           6.6474    2.9292    0.0004 C.ar    1  LIG1        0.2194
     21 N           6.2426    4.2154    0.0011 N.ar    1  LIG1       -0.1236
     22 C           8.4345    4.7548    0.0012 C.ar    1  LIG1        0.2435
     23 N           7.9413    2.5443    0.0001 N.ar    1  LIG1       -0.1236
     24 N           7.1572    5.1448    0.0015 N.ar    1  LIG1       -0.1218
     25 N           8.8460    3.4792    0.0005 N.ar    1  LIG1       -0.1218
     26 C           9.4776    5.8132    0.0017 C.ar    1  LIG1        0.2434
     27 N           9.0631    7.0851    0.0026 N.ar    1  LIG1       -0.1224
     28 C          11.2554    7.6193    0.0028 C.ar    1  LIG1        0.1605
     29 N          10.7558    5.4187    0.0013 N.ar    1  LIG1       -0.1224
     30 N           9.9845    8.0185    0.0031 N.ar    1  LIG1       -0.1338
     31 N          11.6744    6.3550    0.0018 N.ar    1  LIG1       -0.1338
     32 H          12.0160    8.3919    0.0029 H       1  LIG1        0.1085
@<TRIPOS>BOND
     1    11     7    1
     2     8     6    1
     3     7     6   ar
     4     7     4   ar
     5    18    13    1
     6    19    14    1
     7     6     3   ar
     8    14    13   ar
     9    14    15   ar
    10    13    12   ar
    11    12     4    1
    12    12    16   ar
    13     4     2   ar
    14    15    16   ar
    15    15    20    1
    16    23    20   ar
    17    23    25   ar
    18    16    17    1
    19     3     9    1
    20     3     1   ar
    21    20    21   ar
    22    25    22   ar
    23    21    24   ar
    24     2     1   ar
    25     2     5    1
    26    22    24   ar
    27    22    26    1
    28     1    10    1
    29    29    26   ar
    30    29    31   ar
    31    26    27   ar
    32    31    28   ar
    33    27    30   ar
    34    28    32    1
    35    28    30   ar
