@<TRIPOS>MOLECULE
mol_data/opt/cam/geoms/mol2/44-.out
 22 23 0 0 0
SMALL
GASTEIGER

@<TRIPOS>ATOM
      1 C          -0.0438    0.1419    0.4137 C.ar    1  LIG1       -0.0612
      2 C           1.3442    0.0997    0.4098 C.ar    1  LIG1       -0.0540
      3 C          -0.7100    1.2932    0.0100 C.ar    1  LIG1       -0.0617
      4 C           2.0944    1.2062    0.0014 C.ar    1  LIG1       -0.0179
      5 H           1.8564   -0.7946    0.7496 H       1  LIG1        0.0624
      6 C           0.0238    2.4011   -0.3981 C.ar    1  LIG1       -0.0612
      7 C           1.4117    2.3572   -0.4028 C.ar    1  LIG1       -0.0540
      8 H          -0.4865    3.3023   -0.7228 H       1  LIG1        0.0618
      9 H          -1.7946    1.3268    0.0133 H       1  LIG1        0.0618
     10 H          -0.6070   -0.7260    0.7415 H       1  LIG1        0.0618
     11 H           1.9763    3.2180   -0.7461 H       1  LIG1        0.0624
     12 C           4.3306    2.2668    0.4002 C.ar    1  LIG1       -0.0540
     13 C           5.7185    2.2246    0.3955 C.ar    1  LIG1       -0.0612
     14 C           3.5779    1.1602   -0.0033 C.ar    1  LIG1       -0.0179
     15 C           6.3823    1.0732   -0.0120 C.ar    1  LIG1       -0.0617
     16 H           6.2838    3.0927    0.7196 H       1  LIG1        0.0618
     17 C           4.2580    0.0091   -0.4111 C.ar    1  LIG1       -0.0540
     18 C           5.6460   -0.0348   -0.4150 C.ar    1  LIG1       -0.0612
     19 H           3.6914   -0.8519   -0.7505 H       1  LIG1        0.0624
     20 H           7.4668    1.0396   -0.0153 H       1  LIG1        0.0618
     21 H           3.8204    3.1612    0.7430 H       1  LIG1        0.0624
     22 H           6.1543   -0.9361   -0.7424 H       1  LIG1        0.0618
@<TRIPOS>BOND
     1    19    17    1
     2    11     7    1
     3    22    18    1
     4     8     6    1
     5    18    17   ar
     6    18    15   ar
     7    17    14   ar
     8     7     6   ar
     9     7     4   ar
    10     6     3   ar
    11    20    15    1
    12    15    13   ar
    13    14     4    1
    14    14    12   ar
    15     4     2   ar
    16     3     9    1
    17     3     1   ar
    18    13    12   ar
    19    13    16    1
    20    12    21    1
    21     2     1   ar
    22     2     5    1
    23     1    10    1
