@<TRIPOS>MOLECULE
mol_data/opt/cam/geoms/mol2/44-13.out
 30 32 0 0 0
SMALL
GASTEIGER

@<TRIPOS>ATOM
      1 C          -0.1250    0.2391    0.6178 C.ar    1  LIG1       -0.0612
      2 C           1.2629    0.1978    0.6082 C.ar    1  LIG1       -0.0540
      3 C          -0.7982    1.2945    0.0135 C.ar    1  LIG1       -0.0617
      4 C           2.0070    1.2088   -0.0076 C.ar    1  LIG1       -0.0179
      5 H           1.7801   -0.6169    1.1045 H       1  LIG1        0.0624
      6 C          -0.0710    2.3070   -0.6015 C.ar    1  LIG1       -0.0612
      7 C           1.3168    2.2635   -0.6129 C.ar    1  LIG1       -0.0540
      8 H          -0.5867    3.1315   -1.0837 H       1  LIG1        0.0618
      9 H          -1.8827    1.3275    0.0215 H       1  LIG1        0.0618
     10 H          -0.6827   -0.5529    1.1075 H       1  LIG1        0.0618
     11 H           1.8751    3.0447   -1.1184 H       1  LIG1        0.0624
     12 C           4.2489    2.3251    0.1388 C.ar    1  LIG1       -0.0534
     13 C           5.6346    2.2835    0.1243 C.ar    1  LIG1       -0.0521
     14 C           3.4890    1.1635   -0.0180 C.ar    1  LIG1       -0.0178
     15 C           6.3194    1.0741   -0.0325 C.ar    1  LIG1       -0.0017
     16 H           6.1904    3.2121    0.2150 H       1  LIG1        0.0624
     17 C           4.1750   -0.0438   -0.1859 C.ar    1  LIG1       -0.0534
     18 C           5.5590   -0.0901   -0.1857 C.ar    1  LIG1       -0.0521
     19 H           3.6125   -0.9605   -0.3297 H       1  LIG1        0.0624
     20 H           3.7466    3.2758    0.2847 H       1  LIG1        0.0624
     21 H           6.0657   -1.0429   -0.2966 H       1  LIG1        0.0624
     22 C           7.7809    1.0138   -0.0412 C.ar    1  LIG1        0.0465
     23 C           8.6461    0.1222   -0.6404 C.ar    1  LIG1       -0.0364
     24 C           9.9698    0.5318   -0.3416 C.ar    1  LIG1       -0.0438
     25 C           9.8821    1.6596    0.4346 C.ar    1  LIG1        0.0022
     26 N           8.5560    1.9509    0.6015 N.ar    1  LIG1       -0.3607
     27 H           8.1932    2.6728    1.2013 H       1  LIG1        0.1653
     28 H          10.6495    2.2732    0.8810 H       1  LIG1        0.0807
     29 H           8.3532   -0.7127   -1.2601 H       1  LIG1        0.0639
     30 H          10.8836    0.0572   -0.6675 H       1  LIG1        0.0633
@<TRIPOS>BOND
     1    29    23    1
     2    11     7    1
     3     8     6    1
     4    30    24    1
     5    23    24   ar
     6    23    22   ar
     7     7     6   ar
     8     7     4   ar
     9     6     3   ar
    10    24    25   ar
    11    19    17    1
    12    21    18    1
    13    17    18   ar
    14    17    14   ar
    15    18    15   ar
    16    22    15    1
    17    22    26   ar
    18    15    13   ar
    19    14     4    1
    20    14    12   ar
    21     4     2   ar
    22     3     9    1
    23     3     1   ar
    24    13    12   ar
    25    13    16    1
    26    12    20    1
    27    25    26   ar
    28    25    28    1
    29    26    27    1
    30     2     1   ar
    31     2     5    1
    32     1    10    1
