@<TRIPOS>MOLECULE
mol_data/opt/cam/geoms/mol2/44-124.out
 39 42 0 0 0
SMALL
GASTEIGER

@<TRIPOS>ATOM
      1 C          -0.1833    0.1426    0.7191 C.ar    1  LIG1       -0.0612
      2 C           1.2045    0.1339    0.6780 C.ar    1  LIG1       -0.0540
      3 C          -0.8959    1.1541    0.0855 C.ar    1  LIG1       -0.0617
      4 C           1.9088    1.1346    0.0016 C.ar    1  LIG1       -0.0179
      5 H           1.7530   -0.6455    1.1971 H       1  LIG1        0.0624
      6 C          -0.2084    2.1559   -0.5899 C.ar    1  LIG1       -0.0612
      7 C           1.1794    2.1454   -0.6319 C.ar    1  LIG1       -0.0540
      8 H          -0.7553    2.9459   -1.0947 H       1  LIG1        0.0618
      9 H          -1.9804    1.1616    0.1179 H       1  LIG1        0.0618
     10 H          -0.7099   -0.6399    1.2561 H       1  LIG1        0.0618
     11 H           1.7068    2.9174   -1.1828 H       1  LIG1        0.0624
     12 C           4.1249    2.3099    0.0472 C.ar    1  LIG1       -0.0534
     13 C           5.5099    2.3037    0.0072 C.ar    1  LIG1       -0.0505
     14 C           3.3905    1.1243   -0.0421 C.ar    1  LIG1       -0.0178
     15 C           6.2137    1.1031   -0.1236 C.ar    1  LIG1        0.0173
     16 H           6.0582    3.2350    0.0851 H       1  LIG1        0.0625
     17 C           4.1005   -0.0739   -0.1729 C.ar    1  LIG1       -0.0534
     18 C           5.4839   -0.0869   -0.2121 C.ar    1  LIG1       -0.0505
     19 H           3.5571   -1.0082   -0.2674 H       1  LIG1        0.0624
     20 H           3.6021    3.2523    0.1734 H       1  LIG1        0.0624
     21 H           6.0042   -1.0328   -0.3196 H       1  LIG1        0.0625
     22 C           7.6695    1.0860   -0.1683 C.ar    1  LIG1        0.1357
     23 C           8.5940    0.0957   -0.3290 C.ar    1  LIG1       -0.0153
     24 C           9.8715    0.7177   -0.2865 C.ar    1  LIG1       -0.0153
     25 C           9.6533    2.0517   -0.1028 C.ar    1  LIG1        0.1357
     26 O           8.3124    2.2789   -0.0304 O.2     1  LIG1       -0.4548
     27 H           8.3911   -0.9557   -0.4646 H       1  LIG1        0.0656
     28 H          10.8304    0.2309   -0.3782 H       1  LIG1        0.0656
     29 C          11.9210    3.0538   -0.0908 C.ar    1  LIG1       -0.0511
     30 C          12.7630    4.1479    0.0346 C.ar    1  LIG1       -0.0611
     31 C          10.5350    3.2059    0.0264 C.ar    1  LIG1        0.0173
     32 C          12.2385    5.4134    0.2776 C.ar    1  LIG1       -0.0617
     33 H          13.8356    4.0122   -0.0592 H       1  LIG1        0.0618
     34 C          10.0156    4.4809    0.2702 C.ar    1  LIG1       -0.0511
     35 C          10.8627    5.5732    0.3940 C.ar    1  LIG1       -0.0611
     36 H           8.9435    4.6077    0.3634 H       1  LIG1        0.0625
     37 H          12.8988    6.2688    0.3750 H       1  LIG1        0.0618
     38 H          12.3412    2.0724   -0.2840 H       1  LIG1        0.0625
     39 H          10.4438    6.5562    0.5836 H       1  LIG1        0.0618
@<TRIPOS>BOND
     1    11     7    1
     2     8     6    1
     3     7     6   ar
     4     7     4   ar
     5     6     3   ar
     6    27    23    1
     7    28    24    1
     8    23    24   ar
     9    23    22   ar
    10    21    18    1
    11    24    25   ar
    12    38    29    1
    13    19    17    1
    14    18    17   ar
    15    18    15   ar
    16    17    14   ar
    17    22    15    1
    18    22    26   ar
    19    15    13   ar
    20    25    26   ar
    21    25    31    1
    22    29    31   ar
    23    29    30   ar
    24    33    30    1
    25    14     4    1
    26    14    12   ar
    27     4     2   ar
    28    13    12   ar
    29    13    16    1
    30    31    34   ar
    31    30    32   ar
    32    12    20    1
    33     3     9    1
    34     3     1   ar
    35    34    36    1
    36    34    35   ar
    37    32    37    1
    38    32    35   ar
    39    35    39    1
    40     2     1   ar
    41     2     5    1
    42     1    10    1
