@<TRIPOS>MOLECULE
mol_data/opt/cam/geoms/mol2/44-12.out
 29 31 0 0 0
SMALL
GASTEIGER

@<TRIPOS>ATOM
      1 C          -0.1096    0.1586    0.4733 C.ar    1  LIG1       -0.0612
      2 C           1.2783    0.1197    0.4698 C.ar    1  LIG1       -0.0540
      3 C          -0.7793    1.2869    0.0141 C.ar    1  LIG1       -0.0617
      4 C           2.0256    1.2065    0.0057 C.ar    1  LIG1       -0.0179
      5 H           1.7928   -0.7552    0.8539 H       1  LIG1        0.0624
      6 C          -0.0488    2.3750   -0.4493 C.ar    1  LIG1       -0.0612
      7 C           1.3391    2.3345   -0.4541 C.ar    1  LIG1       -0.0540
      8 H          -0.5618    3.2578   -0.8174 H       1  LIG1        0.0618
      9 H          -1.8639    1.3180    0.0173 H       1  LIG1        0.0618
     10 H          -0.6701   -0.6933    0.8448 H       1  LIG1        0.0618
     11 H           1.9005    3.1786   -0.8412 H       1  LIG1        0.0624
     12 C           4.2642    2.2940    0.3233 C.ar    1  LIG1       -0.0534
     13 C           5.6494    2.2577    0.3200 C.ar    1  LIG1       -0.0505
     14 C           3.5075    1.1641    0.0013 C.ar    1  LIG1       -0.0178
     15 C           6.3302    1.0819   -0.0072 C.ar    1  LIG1        0.0173
     16 H           6.2164    3.1434    0.5812 H       1  LIG1        0.0625
     17 C           4.1950   -0.0092   -0.3258 C.ar    1  LIG1       -0.0534
     18 C           5.5787   -0.0519   -0.3307 C.ar    1  LIG1       -0.0505
     19 H           3.6348   -0.8956   -0.6046 H       1  LIG1        0.0624
     20 H           3.7583    3.2118    0.6046 H       1  LIG1        0.0624
     21 H           6.0818   -0.9748   -0.5992 H       1  LIG1        0.0625
     22 C           7.7880    1.0358   -0.0115 C.ar    1  LIG1        0.1348
     23 C           8.6977    0.0511   -0.2589 C.ar    1  LIG1       -0.0159
     24 C           9.9897    0.6374   -0.1015 C.ar    1  LIG1       -0.0233
     25 C           9.7748    1.9327    0.2299 C.ar    1  LIG1        0.0926
     26 O           8.4455    2.1914    0.2889 O.2     1  LIG1       -0.4629
     27 H          10.4274    2.7632    0.4466 H       1  LIG1        0.1029
     28 H           8.4792   -0.9730   -0.5208 H       1  LIG1        0.0655
     29 H          10.9478    0.1542   -0.2200 H       1  LIG1        0.0649
@<TRIPOS>BOND
     1    11     7    1
     2     8     6    1
     3    19    17    1
     4    21    18    1
     5    28    23    1
     6     7     6   ar
     7     7     4   ar
     8     6     3   ar
     9    18    17   ar
    10    18    15   ar
    11    17    14   ar
    12    23    24   ar
    13    23    22   ar
    14    29    24    1
    15    24    25   ar
    16    22    15    1
    17    22    26   ar
    18    15    13   ar
    19    14     4    1
    20    14    12   ar
    21     4     2   ar
    22     3     9    1
    23     3     1   ar
    24    25    26   ar
    25    25    27    1
    26    13    12   ar
    27    13    16    1
    28    12    20    1
    29     2     1   ar
    30     2     5    1
    31     1    10    1
