@<TRIPOS>MOLECULE
mol_data/opt/cam/geoms/mol2/44-4-12-.out
 39 42 0 0 0
SMALL
GASTEIGER

@<TRIPOS>ATOM
      1 C          -0.2305    0.4458    0.8180 C.ar    1  LIG1       -0.0612
      2 C           1.1567    0.3838    0.8171 C.ar    1  LIG1       -0.0540
      3 C          -0.8911    1.3528   -0.0026 C.ar    1  LIG1       -0.0617
      4 C           1.9122    1.2253   -0.0049 C.ar    1  LIG1       -0.0179
      5 H           1.6642   -0.3098    1.4797 H       1  LIG1        0.0624
      6 C          -0.1523    2.1960   -0.8243 C.ar    1  LIG1       -0.0612
      7 C           1.2348    2.1319   -0.8258 C.ar    1  LIG1       -0.0540
      8 H          -0.6582    2.9024   -1.4747 H       1  LIG1        0.0618
      9 H          -1.9751    1.4020   -0.0017 H       1  LIG1        0.0618
     10 H          -0.7972   -0.2119    1.4693 H       1  LIG1        0.0618
     11 H           1.8020    2.7766   -1.4894 H       1  LIG1        0.0624
     12 C           4.1693    2.3160   -0.1062 C.ar    1  LIG1       -0.0535
     13 C           5.5541    2.2530   -0.1087 C.ar    1  LIG1       -0.0535
     14 C           3.3937    1.1579   -0.0062 C.ar    1  LIG1       -0.0178
     15 C           6.2218    1.0291   -0.0085 C.ar    1  LIG1       -0.0178
     16 H           6.1286    3.1684   -0.2059 H       1  LIG1        0.0624
     17 C           4.0611   -0.0659    0.0924 C.ar    1  LIG1       -0.0535
     18 C           5.4459   -0.1290    0.0929 C.ar    1  LIG1       -0.0535
     19 H           3.4857   -0.9839    0.1554 H       1  LIG1        0.0624
     20 H           3.6796    3.2824   -0.1684 H       1  LIG1        0.0624
     21 H           5.9352   -1.0928    0.1889 H       1  LIG1        0.0624
     22 C           8.4696    1.9370    0.6355 C.ar    1  LIG1       -0.0534
     23 C           9.8524    1.8763    0.6360 C.ar    1  LIG1       -0.0505
     24 C           7.7017    0.9616   -0.0096 C.ar    1  LIG1       -0.0178
     25 C          10.5229    0.8334   -0.0105 C.ar    1  LIG1        0.0173
     26 H          10.4186    2.6434    1.1537 H       1  LIG1        0.0625
     27 C           8.3778   -0.0781   -0.6542 C.ar    1  LIG1       -0.0534
     28 C           9.7618   -0.1446   -0.6563 C.ar    1  LIG1       -0.0505
     29 H           7.8099   -0.8357   -1.1841 H       1  LIG1        0.0624
     30 H           7.9729    2.7426    1.1660 H       1  LIG1        0.0624
     31 H          10.2656   -0.9553   -1.1693 H       1  LIG1        0.0625
     32 C          11.9800    0.7704   -0.0094 C.ar    1  LIG1        0.1348
     33 C          12.9561    1.5672    0.5110 C.ar    1  LIG1       -0.0159
     34 C          14.2037    0.9625    0.1711 C.ar    1  LIG1       -0.0233
     35 C          13.8988   -0.1553   -0.5300 C.ar    1  LIG1        0.0926
     36 O          12.5550   -0.2872   -0.6487 O.2     1  LIG1       -0.4629
     37 H          14.4917   -0.9280   -0.9924 H       1  LIG1        0.1029
     38 H          12.8099    2.4787    1.0703 H       1  LIG1        0.0655
     39 H          15.1930    1.3171    0.4180 H       1  LIG1        0.0649
@<TRIPOS>BOND
     1    11     7    1
     2     8     6    1
     3    29    27    1
     4    31    28    1
     5    37    35    1
     6     7     6   ar
     7     7     4   ar
     8     6     3   ar
     9    28    27   ar
    10    28    25   ar
    11    27    24   ar
    12    36    35   ar
    13    36    32   ar
    14    35    34   ar
    15    16    13    1
    16    20    12    1
    17    13    12   ar
    18    13    15   ar
    19    12    14   ar
    20    25    32    1
    21    25    23   ar
    22    24    15    1
    23    24    22   ar
    24    32    33   ar
    25    15    18   ar
    26    14     4    1
    27    14    17   ar
    28     4     2   ar
    29     3     9    1
    30     3     1   ar
    31    17    18   ar
    32    17    19    1
    33    18    21    1
    34    34    39    1
    35    34    33   ar
    36    33    38    1
    37    22    23   ar
    38    22    30    1
    39    23    26    1
    40     2     1   ar
    41     2     5    1
    42     1    10    1
