@<TRIPOS>MOLECULE
mol_data/opt/cam/geoms/mol2/44-4.out
 32 34 0 0 0
SMALL
GASTEIGER

@<TRIPOS>ATOM
      1 C          -0.1503    0.3403    0.7581 C.ar    1  LIG1       -0.0612
      2 C           1.2376    0.2973    0.7575 C.ar    1  LIG1       -0.0540
      3 C          -0.8213    1.2936    0.0010 C.ar    1  LIG1       -0.0617
      4 C           1.9831    1.2050   -0.0006 C.ar    1  LIG1       -0.0179
      5 H           1.7535   -0.4343    1.3708 H       1  LIG1        0.0624
      6 C          -0.0923    2.2027   -0.7569 C.ar    1  LIG1       -0.0612
      7 C           1.2955    2.1580   -0.7578 C.ar    1  LIG1       -0.0540
      8 H          -0.6065    2.9461   -1.3577 H       1  LIG1        0.0618
      9 H          -1.9059    1.3279    0.0016 H       1  LIG1        0.0618
     10 H          -0.7097   -0.3692    1.3596 H       1  LIG1        0.0618
     11 H           1.8559    2.8557   -1.3717 H       1  LIG1        0.0624
     12 C           4.2248    2.3313   -0.0017 C.ar    1  LIG1       -0.0535
     13 C           5.6106    2.2875   -0.0032 C.ar    1  LIG1       -0.0535
     14 C           3.4655    1.1582   -0.0014 C.ar    1  LIG1       -0.0178
     15 C           6.2943    1.0688   -0.0030 C.ar    1  LIG1       -0.0178
     16 H           6.1735    3.2151   -0.0199 H       1  LIG1        0.0624
     17 C           4.1492   -0.0604   -0.0019 C.ar    1  LIG1       -0.0535
     18 C           5.5350   -0.1042   -0.0020 C.ar    1  LIG1       -0.0535
     19 H           3.5863   -0.9881   -0.0175 H       1  LIG1        0.0624
     20 H           3.7215    3.2926    0.0145 H       1  LIG1        0.0624
     21 H           6.0383   -1.0655    0.0140 H       1  LIG1        0.0624
     22 C           8.4634    0.0687   -0.7615 C.ar    1  LIG1       -0.0540
     23 C           9.8512    0.0240   -0.7622 C.ar    1  LIG1       -0.0612
     24 C           7.7767    1.0220   -0.0039 C.ar    1  LIG1       -0.0179
     25 C          10.5811    0.9334   -0.0055 C.ar    1  LIG1       -0.0617
     26 H          10.3647   -0.7197   -1.3632 H       1  LIG1        0.0618
     27 C           8.5231    1.9301    0.7529 C.ar    1  LIG1       -0.0540
     28 C           9.9110    1.8871    0.7519 C.ar    1  LIG1       -0.0612
     29 H           8.0079    2.6620    1.3665 H       1  LIG1        0.0624
     30 H          11.6657    0.8992   -0.0062 H       1  LIG1        0.0618
     31 H           7.9023   -0.6293   -1.3744 H       1  LIG1        0.0624
     32 H          10.4711    2.5969    1.3524 H       1  LIG1        0.0618
@<TRIPOS>BOND
     1    31    22    1
     2    11     7    1
     3    26    23    1
     4     8     6    1
     5    23    22   ar
     6    23    25   ar
     7    22    24   ar
     8     7     6   ar
     9     7     4   ar
    10     6     3   ar
    11    16    13    1
    12    19    17    1
    13    30    25    1
    14    25    28   ar
    15    24    15    1
    16    24    27   ar
    17    13    15   ar
    18    13    12   ar
    19    15    18   ar
    20    18    17   ar
    21    18    21    1
    22    17    14   ar
    23    12    14   ar
    24    12    20    1
    25    14     4    1
    26     4     2   ar
    27     3     9    1
    28     3     1   ar
    29    28    27   ar
    30    28    32    1
    31    27    29    1
    32     2     1   ar
    33     2     5    1
    34     1    10    1
