@<TRIPOS>MOLECULE
mol_data/opt/cam/geoms/mol2/44-5-12-.out
 36 39 0 0 0
SMALL
GASTEIGER

@<TRIPOS>ATOM
      1 C          -0.2468    0.4361    0.6328 C.ar    1  LIG1       -0.0612
      2 C           1.1386    0.3693    0.6980 C.ar    1  LIG1       -0.0540
      3 C          -0.8645    1.3823   -0.1769 C.ar    1  LIG1       -0.0617
      4 C           1.9347    1.2456   -0.0457 C.ar    1  LIG1       -0.0179
      5 H           1.6120   -0.3560    1.3518 H       1  LIG1        0.0624
      6 C          -0.0850    2.2600   -0.9213 C.ar    1  LIG1       -0.0612
      7 C           1.3003    2.1915   -0.8566 C.ar    1  LIG1       -0.0540
      8 H          -0.5572    2.9970   -1.5630 H       1  LIG1        0.0618
      9 H          -1.9471    1.4350   -0.2277 H       1  LIG1        0.0618
     10 H          -0.8462   -0.2490    1.2238 H       1  LIG1        0.0618
     11 H           1.9006    2.8639   -1.4609 H       1  LIG1        0.0624
     12 C           4.1957    2.3323    0.0131 C.ar    1  LIG1       -0.0534
     13 C           5.5780    2.2663    0.0690 C.ar    1  LIG1       -0.0530
     14 C           3.4140    1.1732    0.0233 C.ar    1  LIG1       -0.0178
     15 C           6.2373    1.0351    0.1532 C.ar    1  LIG1       -0.0113
     16 H           6.1587    3.1819    0.0357 H       1  LIG1        0.0624
     17 C           4.0746   -0.0560    0.0969 C.ar    1  LIG1       -0.0534
     18 C           5.4568   -0.1253    0.1651 C.ar    1  LIG1       -0.0530
     19 H           3.4967   -0.9743    0.0855 H       1  LIG1        0.0624
     20 H           3.7112    3.3023   -0.0284 H       1  LIG1        0.0624
     21 H           5.9376   -1.0956    0.2379 H       1  LIG1        0.0624
     22 C           7.7013    0.9812    0.2309 C.ar    1  LIG1        0.0200
     23 C           8.5566    1.9225    0.7374 C.ar    1  LIG1       -0.0462
     24 C           9.9217    1.5495    0.6580 C.ar    1  LIG1       -0.0434
     25 C          10.1082    0.3186    0.0886 C.ar    1  LIG1        0.0550
     26 S           8.5903   -0.3912   -0.3642 S.2     1  LIG1       -0.0852
     27 H           8.2153    2.8484    1.1836 H       1  LIG1        0.0629
     28 H          10.7369    2.1645    1.0188 H       1  LIG1        0.0630
     29 C          11.3539   -0.3737   -0.1504 C.ar    1  LIG1        0.1413
     30 C          12.6615   -0.0555    0.0696 C.ar    1  LIG1       -0.0154
     31 C          13.4294   -1.1686   -0.3880 C.ar    1  LIG1       -0.0233
     32 C          12.5388   -2.0778   -0.8515 C.ar    1  LIG1        0.0926
     33 O          11.2723   -1.6103   -0.7141 O.2     1  LIG1       -0.4624
     34 H          12.6343   -3.0582   -1.2893 H       1  LIG1        0.1029
     35 H          13.0321    0.8608    0.5033 H       1  LIG1        0.0655
     36 H          14.5038   -1.2724   -0.3721 H       1  LIG1        0.0649
@<TRIPOS>BOND
     1     8     6    1
     2    11     7    1
     3    34    32    1
     4     6     7   ar
     5     6     3   ar
     6     7     4   ar
     7    32    33   ar
     8    32    31   ar
     9    33    29   ar
    10    31    36    1
    11    31    30   ar
    12    26    25   ar
    13    26    22   ar
    14     9     3    1
    15     3     1   ar
    16    29    30   ar
    17    29    25    1
    18     4    14    1
    19     4     2   ar
    20    20    12    1
    21    12    14   ar
    22    12    13   ar
    23    14    17   ar
    24    16    13    1
    25    13    15   ar
    26    30    35    1
    27    19    17    1
    28    25    24   ar
    29    17    18   ar
    30    15    18   ar
    31    15    22    1
    32    18    21    1
    33    22    23   ar
    34     1     2   ar
    35     1    10    1
    36    24    23   ar
    37    24    28    1
    38     2     5    1
    39    23    27    1
