@<TRIPOS>MOLECULE
mol_data/opt/cam/geoms/mol2/44-813.out
 36 39 0 0 0
SMALL
GASTEIGER

@<TRIPOS>ATOM
      1 C          -0.1643    0.2091    0.5134 C.ar    1  LIG1       -0.0612
      2 C           1.2229    0.1540    0.5082 C.ar    1  LIG1       -0.0540
      3 C          -0.8219    1.3267    0.0124 C.ar    1  LIG1       -0.0617
      4 C           1.9800    1.2149    0.0024 C.ar    1  LIG1       -0.0179
      5 H           1.7286   -0.7119    0.9231 H       1  LIG1        0.0624
      6 C          -0.0810    2.3886   -0.4935 C.ar    1  LIG1       -0.0612
      7 C           1.3063    2.3330   -0.4981 C.ar    1  LIG1       -0.0540
      8 H          -0.5853    3.2621   -0.8940 H       1  LIG1        0.0618
      9 H          -1.9060    1.3699    0.0161 H       1  LIG1        0.0618
     10 H          -0.7338   -0.6216    0.9176 H       1  LIG1        0.0618
     11 H           1.8763    3.1560   -0.9168 H       1  LIG1        0.0624
     12 C           4.2283    2.2924    0.2727 C.ar    1  LIG1       -0.0534
     13 C           5.6120    2.2410    0.2678 C.ar    1  LIG1       -0.0504
     14 C           3.4613    1.1555   -0.0029 C.ar    1  LIG1       -0.0178
     15 C           6.2717    1.0423   -0.0130 C.ar    1  LIG1        0.0227
     16 H           6.1960    3.1259    0.4898 H       1  LIG1        0.0625
     17 C           4.1325   -0.0390   -0.2839 C.ar    1  LIG1       -0.0534
     18 C           5.5159   -0.0994   -0.2889 C.ar    1  LIG1       -0.0504
     19 H           3.5602   -0.9284   -0.5252 H       1  LIG1        0.0624
     20 H           3.7310    3.2248    0.5179 H       1  LIG1        0.0624
     21 H           6.0256   -1.0281   -0.5146 H       1  LIG1        0.0625
     22 C           7.7439    0.9830   -0.0183 C.ar    1  LIG1        0.2034
     23 N           8.3312   -0.1975   -0.2843 N.ar    1  LIG1       -0.1252
     24 C          10.3135    0.8678   -0.0305 C.ar    1  LIG1        0.2194
     25 N           8.4280    2.1055    0.2413 N.ar    1  LIG1       -0.1252
     26 N           9.6315   -0.2625   -0.2924 N.ar    1  LIG1       -0.1237
     27 N           9.7325    2.0492    0.2361 N.ar    1  LIG1       -0.1237
     28 C          11.7545    0.8239   -0.0325 C.ar    1  LIG1        0.0875
     29 C          12.6415   -0.2105   -0.2625 C.ar    1  LIG1       -0.0333
     30 C          13.9417    0.3207   -0.1348 C.ar    1  LIG1       -0.0437
     31 C          13.8114    1.6606    0.1686 C.ar    1  LIG1        0.0023
     32 N          12.4873    1.9550    0.2282 N.ar    1  LIG1       -0.3582
     33 H          12.0628    2.8475    0.4284 H       1  LIG1        0.1654
     34 H          14.5617    2.4164    0.3442 H       1  LIG1        0.0807
     35 H          12.3616   -1.2266   -0.4947 H       1  LIG1        0.0640
     36 H          14.8735   -0.2124   -0.2507 H       1  LIG1        0.0633
@<TRIPOS>BOND
     1    11     7    1
     2     8     6    1
     3    19    17    1
     4    21    18    1
     5     7     6   ar
     6     7     4   ar
     7    35    29    1
     8     6     3   ar
     9    26    23   ar
    10    26    24   ar
    11    18    17   ar
    12    18    15   ar
    13    23    22   ar
    14    17    14   ar
    15    29    30   ar
    16    29    28   ar
    17    36    30    1
    18    30    31   ar
    19    28    24    1
    20    28    32   ar
    21    24    27   ar
    22    22    15    1
    23    22    25   ar
    24    15    13   ar
    25    14     4    1
    26    14    12   ar
    27     4     2   ar
    28     3     9    1
    29     3     1   ar
    30    31    32   ar
    31    31    34    1
    32    32    33    1
    33    27    25   ar
    34    13    12   ar
    35    13    16    1
    36    12    20    1
    37     2     1   ar
    38     2     5    1
    39     1    10    1
