@<TRIPOS>MOLECULE
mol_data/opt/cam/geoms/mol2/44-84.out
 38 41 0 0 0
SMALL
GASTEIGER

@<TRIPOS>ATOM
      1 C          -0.1847    0.2002    0.5276 C.ar    1  LIG1       -0.0612
      2 C           1.2029    0.1526    0.5263 C.ar    1  LIG1       -0.0540
      3 C          -0.8472    1.3030    0.0013 C.ar    1  LIG1       -0.0617
      4 C           1.9551    1.2066   -0.0006 C.ar    1  LIG1       -0.0179
      5 H           1.7121   -0.7012    0.9612 H       1  LIG1        0.0624
      6 C          -0.1112    2.3578   -0.5260 C.ar    1  LIG1       -0.0612
      7 C           1.2763    2.3100   -0.5266 C.ar    1  LIG1       -0.0540
      8 H          -0.6193    3.2198   -0.9461 H       1  LIG1        0.0618
      9 H          -1.9316    1.3403    0.0020 H       1  LIG1        0.0618
     10 H          -0.7502   -0.6249    0.9485 H       1  LIG1        0.0618
     11 H           1.8424    3.1268   -0.9622 H       1  LIG1        0.0624
     12 C           4.1962    2.3033    0.2501 C.ar    1  LIG1       -0.0534
     13 C           5.5801    2.2605    0.2489 C.ar    1  LIG1       -0.0504
     14 C           3.4368    1.1557   -0.0016 C.ar    1  LIG1       -0.0178
     15 C           6.2467    1.0593   -0.0036 C.ar    1  LIG1        0.0227
     16 H           6.1589    3.1533    0.4517 H       1  LIG1        0.0625
     17 C           4.1154   -0.0412   -0.2543 C.ar    1  LIG1       -0.0534
     18 C           5.4990   -0.0932   -0.2550 C.ar    1  LIG1       -0.0504
     19 H           3.5488   -0.9389   -0.4770 H       1  LIG1        0.0624
     20 H           3.6928    3.2378    0.4736 H       1  LIG1        0.0624
     21 H           6.0149   -1.0237   -0.4586 H       1  LIG1        0.0625
     22 C           7.7186    1.0089   -0.0047 C.ar    1  LIG1        0.2034
     23 N           8.3151   -0.1692   -0.2420 N.ar    1  LIG1       -0.1252
     24 C          10.2952    0.9204   -0.0066 C.ar    1  LIG1        0.2034
     25 N           8.3948    2.1431    0.2317 N.ar    1  LIG1       -0.1252
     26 N           9.6191   -0.2135   -0.2433 N.ar    1  LIG1       -0.1252
     27 N           9.6989    2.0979    0.2311 N.ar    1  LIG1       -0.1252
     28 C          12.4302   -0.3378   -0.2466 C.ar    1  LIG1       -0.0509
     29 C          13.8166   -0.3818   -0.2470 C.ar    1  LIG1       -0.0611
     30 C          11.7694    0.8697   -0.0078 C.ar    1  LIG1        0.0226
     31 C          14.5533    0.7740   -0.0101 C.ar    1  LIG1       -0.0617
     32 H          14.3244   -1.3223   -0.4330 H       1  LIG1        0.0618
     33 C          12.5119    2.0290    0.2299 C.ar    1  LIG1       -0.0509
     34 C          13.8981    1.9777    0.2279 C.ar    1  LIG1       -0.0611
     35 H          11.9909    2.9605    0.4141 H       1  LIG1        0.0625
     36 H          15.6378    0.7368   -0.0110 H       1  LIG1        0.0618
     37 H          11.8462   -1.2314   -0.4299 H       1  LIG1        0.0625
     38 H          14.4695    2.8811    0.4130 H       1  LIG1        0.0618
@<TRIPOS>BOND
     1    11     7    1
     2     8     6    1
     3     7     6   ar
     4     7     4   ar
     5     6     3   ar
     6    19    17    1
     7    21    18    1
     8    32    29    1
     9    37    28    1
    10    18    17   ar
    11    18    15   ar
    12    17    14   ar
    13    29    28   ar
    14    29    31   ar
    15    28    30   ar
    16    26    23   ar
    17    26    24   ar
    18    23    22   ar
    19    36    31    1
    20    31    34   ar
    21    30    24    1
    22    30    33   ar
    23    24    27   ar
    24    22    15    1
    25    22    25   ar
    26    15    13   ar
    27    14     4    1
    28    14    12   ar
    29     4     2   ar
    30     3     9    1
    31     3     1   ar
    32    34    33   ar
    33    34    38    1
    34    33    35    1
    35    27    25   ar
    36    13    12   ar
    37    13    16    1
    38    12    20    1
    39     2     1   ar
    40     2     5    1
    41     1    10    1
