@<TRIPOS>MOLECULE
mol_data/opt/cam/geoms/mol2/44-8-.out
 28 30 0 0 0
SMALL
GASTEIGER

@<TRIPOS>ATOM
      1 C          -0.1051    0.1595    0.4364 C.ar    1  LIG1       -0.0612
      2 C           1.2825    0.1116    0.4340 C.ar    1  LIG1       -0.0540
      3 C          -0.7661    1.3032    0.0036 C.ar    1  LIG1       -0.0617
      4 C           2.0355    1.2067    0.0004 C.ar    1  LIG1       -0.0179
      5 H           1.7906   -0.7763    0.7957 H       1  LIG1        0.0624
      6 C          -0.0289    2.3988   -0.4308 C.ar    1  LIG1       -0.0612
      7 C           1.3587    2.3510   -0.4317 C.ar    1  LIG1       -0.0540
      8 H          -0.5361    3.2931   -0.7781 H       1  LIG1        0.0618
      9 H          -1.8504    1.3406    0.0048 H       1  LIG1        0.0618
     10 H          -0.6718   -0.6979    0.7848 H       1  LIG1        0.0618
     11 H           1.9259    3.2019   -0.7947 H       1  LIG1        0.0624
     12 C           4.2755    2.2762    0.3536 C.ar    1  LIG1       -0.0534
     13 C           5.6593    2.2331    0.3525 C.ar    1  LIG1       -0.0504
     14 C           3.5171    1.1556   -0.0013 C.ar    1  LIG1       -0.0178
     15 C           6.3258    1.0586   -0.0045 C.ar    1  LIG1        0.0227
     16 H           6.2377    3.1040    0.6357 H       1  LIG1        0.0625
     17 C           4.1956   -0.0147   -0.3578 C.ar    1  LIG1       -0.0534
     18 C           5.5791   -0.0671   -0.3598 C.ar    1  LIG1       -0.0504
     19 H           3.6292   -0.8888   -0.6606 H       1  LIG1        0.0624
     20 H           3.7714    3.1872    0.6577 H       1  LIG1        0.0624
     21 H           6.0954   -0.9758   -0.6443 H       1  LIG1        0.0625
     22 C           7.7980    1.0078   -0.0061 C.ar    1  LIG1        0.2033
     23 N           8.4694    2.1192    0.3364 N.ar    1  LIG1       -0.1258
     24 C          10.3477    0.9198   -0.0092 C.ar    1  LIG1        0.1605
     25 N           8.3904   -0.1472   -0.3503 N.ar    1  LIG1       -0.1258
     26 N           9.7785    2.0734    0.3351 N.ar    1  LIG1       -0.1339
     27 N           9.6994   -0.1919   -0.3523 N.ar    1  LIG1       -0.1339
     28 H          11.4310    0.8824   -0.0108 H       1  LIG1        0.1085
@<TRIPOS>BOND
     1    11     7    1
     2     8     6    1
     3    19    17    1
     4    21    18    1
     5     7     6   ar
     6     7     4   ar
     7     6     3   ar
     8    18    17   ar
     9    18    15   ar
    10    17    14   ar
    11    27    25   ar
    12    27    24   ar
    13    25    22   ar
    14    28    24    1
    15    24    26   ar
    16    22    15    1
    17    22    23   ar
    18    15    13   ar
    19    14     4    1
    20    14    12   ar
    21     4     2   ar
    22     3     9    1
    23     3     1   ar
    24    26    23   ar
    25    13    12   ar
    26    13    16    1
    27    12    20    1
    28     2     1   ar
    29     2     5    1
    30     1    10    1
