@<TRIPOS>MOLECULE
mol_data/opt/cam/geoms/mol2/441212-.out
 36 39 0 0 0
SMALL
GASTEIGER

@<TRIPOS>ATOM
      1 C          -0.1252    0.1348    0.6846 C.ar    1  LIG1       -0.0612
      2 C           1.2626    0.1419    0.6411 C.ar    1  LIG1       -0.0540
      3 C          -0.8491    1.1667    0.0985 C.ar    1  LIG1       -0.0617
      4 C           1.9554    1.1794    0.0098 C.ar    1  LIG1       -0.0179
      5 H           1.8197   -0.6546    1.1235 H       1  LIG1        0.0624
      6 C          -0.1730    2.2051   -0.5316 C.ar    1  LIG1       -0.0612
      7 C           1.2148    2.2106   -0.5760 C.ar    1  LIG1       -0.0540
      8 H          -0.7287    3.0117   -0.9990 H       1  LIG1        0.0618
      9 H          -1.9337    1.1618    0.1328 H       1  LIG1        0.0618
     10 H          -0.6429   -0.6766    1.1862 H       1  LIG1        0.0618
     11 H           1.7333    3.0121   -1.0919 H       1  LIG1        0.0624
     12 C           4.1585    0.0021   -0.2244 C.ar    1  LIG1       -0.0534
     13 C           5.5417    0.0043   -0.2666 C.ar    1  LIG1       -0.0505
     14 C           3.4370    1.1859   -0.0367 C.ar    1  LIG1       -0.0178
     15 C           6.2599    1.1961   -0.1230 C.ar    1  LIG1        0.0173
     16 H           6.0711   -0.9301   -0.4207 H       1  LIG1        0.0625
     17 C           4.1600    2.3733    0.1065 C.ar    1  LIG1       -0.0534
     18 C           5.5449    2.3826    0.0646 C.ar    1  LIG1       -0.0505
     19 H           3.6283    3.3035    0.2775 H       1  LIG1        0.0624
     20 H           3.6240   -0.9320   -0.3622 H       1  LIG1        0.0624
     21 H           6.0850    3.3140    0.1861 H       1  LIG1        0.0625
     22 C           7.7153    1.1962   -0.1680 C.ar    1  LIG1        0.1358
     23 C           8.6532    0.2219   -0.3502 C.ar    1  LIG1       -0.0151
     24 C           9.9258    0.8547   -0.2904 C.ar    1  LIG1       -0.0122
     25 C           9.6805    2.1771   -0.0749 C.ar    1  LIG1        0.1705
     26 O           8.3423    2.3970    0.0008 O.2     1  LIG1       -0.4517
     27 H           8.4620   -0.8283   -0.5102 H       1  LIG1        0.0656
     28 H          10.8984    0.3988   -0.3920 H       1  LIG1        0.0657
     29 C          10.5353    3.3241    0.0808 C.ar    1  LIG1        0.1697
     30 C          10.2917    4.6458    0.2997 C.ar    1  LIG1       -0.0128
     31 C          11.5706    5.2786    0.3615 C.ar    1  LIG1       -0.0232
     32 C          12.4875    4.2989    0.1765 C.ar    1  LIG1        0.0927
     33 O          11.8741    3.0995    0.0036 O.2     1  LIG1       -0.4598
     34 H          13.5649    4.2850    0.1410 H       1  LIG1        0.1029
     35 H           9.3202    5.1034    0.4031 H       1  LIG1        0.0656
     36 H          11.7748    6.3263    0.5228 H       1  LIG1        0.0649
@<TRIPOS>BOND
     1    11     7    1
     2     8     6    1
     3     7     6   ar
     4     7     4   ar
     5     6     3   ar
     6    27    23    1
     7    16    13    1
     8    28    24    1
     9    20    12    1
    10    23    24   ar
    11    23    22   ar
    12    24    25   ar
    13    13    12   ar
    14    13    15   ar
    15    12    14   ar
    16    22    15    1
    17    22    26   ar
    18    15    18   ar
    19    25    26   ar
    20    25    29    1
    21    14     4    1
    22    14    17   ar
    23    33    29   ar
    24    33    32   ar
    25     4     2   ar
    26    18    17   ar
    27    18    21    1
    28    29    30   ar
    29     3     9    1
    30     3     1   ar
    31    17    19    1
    32    34    32    1
    33    32    31   ar
    34    30    31   ar
    35    30    35    1
    36    31    36    1
    37     2     1   ar
    38     2     5    1
    39     1    10    1
