@<TRIPOS>MOLECULE
mol_data/opt/cam/geoms/mol2/4412-.out
 29 31 0 0 0
SMALL
GASTEIGER

@<TRIPOS>ATOM
      1 C          -0.1061    0.1609    0.4545 C.ar    1  LIG1       -0.0612
      2 C           1.2820    0.1289    0.4577 C.ar    1  LIG1       -0.0540
      3 C          -0.7793    1.2855   -0.0087 C.ar    1  LIG1       -0.0617
      4 C           2.0260    1.2191   -0.0037 C.ar    1  LIG1       -0.0179
      5 H           1.7991   -0.7431    0.8448 H       1  LIG1        0.0624
      6 C          -0.0521    2.3768   -0.4696 C.ar    1  LIG1       -0.0612
      7 C           1.3360    2.3432   -0.4677 C.ar    1  LIG1       -0.0540
      8 H          -0.5678    3.2567   -0.8409 H       1  LIG1        0.0618
      9 H          -1.8640    1.3111   -0.0106 H       1  LIG1        0.0618
     10 H          -0.6641   -0.6936    0.8239 H       1  LIG1        0.0618
     11 H           1.8950    3.1898   -0.8531 H       1  LIG1        0.0624
     12 C           4.2043    0.0158   -0.3231 C.ar    1  LIG1       -0.0534
     13 C           5.5894   -0.0204   -0.3215 C.ar    1  LIG1       -0.0505
     14 C           3.5081    1.1840   -0.0011 C.ar    1  LIG1       -0.0178
     15 C           6.3312    1.1184    0.0039 C.ar    1  LIG1        0.0173
     16 H           6.1091   -0.9348   -0.5827 H       1  LIG1        0.0625
     17 C           4.2565    2.3199    0.3243 C.ar    1  LIG1       -0.0534
     18 C           5.6405    2.2901    0.3274 C.ar    1  LIG1       -0.0505
     19 H           3.7437    3.2346    0.6030 H       1  LIG1        0.0624
     20 H           3.6507   -0.8744   -0.6033 H       1  LIG1        0.0624
     21 H           6.1915    3.1857    0.5946 H       1  LIG1        0.0625
     22 C           7.7895    1.0881    0.0065 C.ar    1  LIG1        0.1348
     23 C           8.7498    2.0240    0.2521 C.ar    1  LIG1       -0.0159
     24 C          10.0091    1.3708    0.0936 C.ar    1  LIG1       -0.0233
     25 C           9.7262    0.0882   -0.2366 C.ar    1  LIG1        0.0926
     26 O           8.3852   -0.1006   -0.2938 O.2     1  LIG1       -0.4629
     27 H          10.3343   -0.7753   -0.4534 H       1  LIG1        0.1029
     28 H           8.5854    3.0583    0.5134 H       1  LIG1        0.0655
     29 H          10.9914    1.8032    0.2106 H       1  LIG1        0.0649
@<TRIPOS>BOND
     1    11     7    1
     2     8     6    1
     3    20    12    1
     4    16    13    1
     5     6     7   ar
     6     6     3   ar
     7     7     4   ar
     8    27    25    1
     9    12    13   ar
    10    12    14   ar
    11    13    15   ar
    12    26    25   ar
    13    26    22   ar
    14    25    24   ar
    15     9     3    1
    16     3     1   ar
    17     4    14    1
    18     4     2   ar
    19    14    17   ar
    20    15    22    1
    21    15    18   ar
    22    22    23   ar
    23    24    29    1
    24    24    23   ar
    25    23    28    1
    26    17    18   ar
    27    17    19    1
    28    18    21    1
    29     1     2   ar
    30     1    10    1
    31     2     5    1
