@<TRIPOS>MOLECULE
mol_data/opt/cam/geoms/mol2/4413-13.out
 38 41 0 0 0
SMALL
GASTEIGER

@<TRIPOS>ATOM
      1 C          -0.2578    0.4275    0.5401 C.ar    1  LIG1       -0.0612
      2 C           1.1247    0.3753    0.6584 C.ar    1  LIG1       -0.0540
      3 C          -0.8542    1.3659   -0.2942 C.ar    1  LIG1       -0.0617
      4 C           1.9401    1.2580   -0.0564 C.ar    1  LIG1       -0.0179
      5 H           1.5801   -0.3433    1.3321 H       1  LIG1        0.0624
      6 C          -0.0556    2.2505   -1.0098 C.ar    1  LIG1       -0.0612
      7 C           1.3269    2.1959   -0.8927 C.ar    1  LIG1       -0.0540
      8 H          -0.5105    2.9821   -1.6700 H       1  LIG1        0.0618
      9 H          -1.9345    1.4077   -0.3860 H       1  LIG1        0.0618
     10 H          -0.8723   -0.2625    1.1096 H       1  LIG1        0.0618
     11 H           1.9430    2.8737   -1.4746 H       1  LIG1        0.0624
     12 C           4.0879   -0.0192    0.1703 C.ar    1  LIG1       -0.0534
     13 C           5.4680   -0.0717    0.2902 C.ar    1  LIG1       -0.0521
     14 C           3.4164    1.2016    0.0684 C.ar    1  LIG1       -0.0178
     15 C           6.2369    1.0970    0.2992 C.ar    1  LIG1       -0.0017
     16 H           5.9513   -1.0379    0.3994 H       1  LIG1        0.0624
     17 C           4.1859    2.3696    0.0878 C.ar    1  LIG1       -0.0534
     18 C           5.5654    2.3200    0.1930 C.ar    1  LIG1       -0.0521
     19 H           3.6916    3.3339    0.0301 H       1  LIG1        0.0624
     20 H           3.5209   -0.9441    0.1439 H       1  LIG1        0.0624
     21 H           6.1387    3.2409    0.1844 H       1  LIG1        0.0624
     22 C           7.6924    1.0566    0.4177 C.ar    1  LIG1        0.0469
     23 C           8.5873    1.9904    0.8980 C.ar    1  LIG1       -0.0358
     24 C           9.8869    1.4394    0.8002 C.ar    1  LIG1       -0.0344
     25 C           9.7650    0.1775    0.2543 C.ar    1  LIG1        0.0633
     26 N           8.4287   -0.0437    0.0418 N.ar    1  LIG1       -0.3530
     27 H           8.0697   -0.8226   -0.4858 H       1  LIG1        0.1659
     28 H           8.3249    2.9486    1.3221 H       1  LIG1        0.0639
     29 H          10.8071    1.8931    1.1397 H       1  LIG1        0.0639
     30 C          10.7578   -0.8216   -0.0870 C.ar    1  LIG1        0.0629
     31 C          10.6842   -2.1981   -0.1471 C.ar    1  LIG1       -0.0350
     32 C          11.9584   -2.6799   -0.5433 C.ar    1  LIG1       -0.0438
     33 C          12.7740   -1.5902   -0.7117 C.ar    1  LIG1        0.0022
     34 N          12.0393   -0.4698   -0.4306 N.ar    1  LIG1       -0.3595
     35 H          12.3524    0.4808   -0.5364 H       1  LIG1        0.1654
     36 H          13.8096   -1.5201   -1.0064 H       1  LIG1        0.0807
     37 H           9.8191   -2.7929    0.1094 H       1  LIG1        0.0639
     38 H          12.2463   -3.7122   -0.6771 H       1  LIG1        0.0633
@<TRIPOS>BOND
     1     8     6    1
     2    11     7    1
     3     6     7   ar
     4     6     3   ar
     5    36    33    1
     6     7     4   ar
     7    33    32   ar
     8    33    34   ar
     9    38    32    1
    10    32    31   ar
    11    35    34    1
    12    27    26    1
    13    34    30   ar
    14     9     3    1
    15     3     1   ar
    16    31    30   ar
    17    31    37    1
    18    30    25    1
    19     4    14    1
    20     4     2   ar
    21    19    17    1
    22    26    25   ar
    23    26    22   ar
    24    14    17   ar
    25    14    12   ar
    26    17    18   ar
    27    20    12    1
    28    12    13   ar
    29    21    18    1
    30    18    15   ar
    31    25    24   ar
    32    13    15   ar
    33    13    16    1
    34    15    22    1
    35    22    23   ar
    36     1     2   ar
    37     1    10    1
    38     2     5    1
    39    24    23   ar
    40    24    29    1
    41    23    28    1
