@<TRIPOS>MOLECULE
mol_data/opt/cam/geoms/mol2/4413-.out
 30 32 0 0 0
SMALL
GASTEIGER

@<TRIPOS>ATOM
      1 C          -0.1254    0.2284    0.5988 C.ar    1  LIG1       -0.0612
      2 C           1.2627    0.1997    0.6107 C.ar    1  LIG1       -0.0540
      3 C          -0.7986    1.2772   -0.0168 C.ar    1  LIG1       -0.0617
      4 C           2.0071    1.2168    0.0055 C.ar    1  LIG1       -0.0179
      5 H           1.7795   -0.6094    1.1168 H       1  LIG1        0.0624
      6 C          -0.0712    2.2961   -0.6211 C.ar    1  LIG1       -0.0612
      7 C           1.3170    2.2651   -0.6108 C.ar    1  LIG1       -0.0540
      8 H          -0.5868    3.1159   -1.1111 H       1  LIG1        0.0618
      9 H          -1.8834    1.3007   -0.0254 H       1  LIG1        0.0618
     10 H          -0.6836   -0.5679    1.0809 H       1  LIG1        0.0618
     11 H           1.8761    3.0517   -1.1070 H       1  LIG1        0.0624
     12 C           4.1880   -0.0146   -0.1392 C.ar    1  LIG1       -0.0534
     13 C           5.5741   -0.0451   -0.1241 C.ar    1  LIG1       -0.0521
     14 C           3.4895    1.1850    0.0167 C.ar    1  LIG1       -0.0178
     15 C           6.3207    1.1271    0.0325 C.ar    1  LIG1       -0.0017
     16 H           6.0807   -1.0015   -0.2140 H       1  LIG1        0.0624
     17 C           4.2374    2.3550    0.1844 C.ar    1  LIG1       -0.0534
     18 C           5.6218    2.3293    0.1847 C.ar    1  LIG1       -0.0521
     19 H           3.7232    3.2999    0.3274 H       1  LIG1        0.0624
     20 H           3.6370   -0.9380   -0.2850 H       1  LIG1        0.0624
     21 H           6.1773    3.2546    0.2954 H       1  LIG1        0.0624
     22 C           7.7833    1.1113    0.0417 C.ar    1  LIG1        0.0465
     23 C           8.6936    1.9579    0.6395 C.ar    1  LIG1       -0.0364
     24 C           9.9942    1.4796    0.3419 C.ar    1  LIG1       -0.0438
     25 C           9.8483    0.3564   -0.4323 C.ar    1  LIG1        0.0022
     26 N           8.5089    0.1340   -0.5989 N.ar    1  LIG1       -0.3607
     27 H           8.1094   -0.5681   -1.1990 H       1  LIG1        0.1653
     28 H          10.5829   -0.2971   -0.8773 H       1  LIG1        0.0807
     29 H           8.4443    2.8078    1.2580 H       1  LIG1        0.0639
     30 H          10.9314    1.9066    0.6673 H       1  LIG1        0.0633
@<TRIPOS>BOND
     1    27    26    1
     2     8     6    1
     3    11     7    1
     4    28    25    1
     5     6     7   ar
     6     6     3   ar
     7     7     4   ar
     8    26    25   ar
     9    26    22   ar
    10    25    24   ar
    11    20    12    1
    12    16    13    1
    13    12    13   ar
    14    12    14   ar
    15    13    15   ar
    16     9     3    1
    17     3     1   ar
    18     4    14    1
    19     4     2   ar
    20    14    17   ar
    21    15    22    1
    22    15    18   ar
    23    22    23   ar
    24    17    18   ar
    25    17    19    1
    26    18    21    1
    27    24    23   ar
    28    24    30    1
    29     1     2   ar
    30     1    10    1
    31     2     5    1
    32    23    29    1
