@<TRIPOS>MOLECULE
mol_data/opt/cam/geoms/mol2/444-.out
 32 34 0 0 0
SMALL
GASTEIGER

@<TRIPOS>ATOM
      1 C          -0.1414    0.3331    0.7538 C.ar    1  LIG1       -0.0612
      2 C           1.2469    0.3054    0.7553 C.ar    1  LIG1       -0.0540
      3 C          -0.8217    1.2791   -0.0043 C.ar    1  LIG1       -0.0617
      4 C           1.9836    1.2213   -0.0015 C.ar    1  LIG1       -0.0179
      5 H           1.7698   -0.4206    1.3695 H       1  LIG1        0.0624
      6 C          -0.1015    2.1962   -0.7610 C.ar    1  LIG1       -0.0612
      7 C           1.2867    2.1667   -0.7598 C.ar    1  LIG1       -0.0540
      8 H          -0.6228    2.9339   -1.3627 H       1  LIG1        0.0618
      9 H          -1.9065    1.3014   -0.0053 H       1  LIG1        0.0618
     10 H          -0.6938   -0.3825    1.3544 H       1  LIG1        0.0618
     11 H           1.8403    2.8704   -1.3729 H       1  LIG1        0.0624
     12 C           4.1636   -0.0202    0.0009 C.ar    1  LIG1       -0.0535
     13 C           5.5499   -0.0487    0.0029 C.ar    1  LIG1       -0.0535
     14 C           3.4665    1.1908   -0.0001 C.ar    1  LIG1       -0.0178
     15 C           6.2961    1.1327    0.0027 C.ar    1  LIG1       -0.0178
     16 H           6.0637   -1.0044    0.0199 H       1  LIG1        0.0624
     17 C           4.2128    2.3722    0.0004 C.ar    1  LIG1       -0.0535
     18 C           5.5989    2.3437    0.0009 C.ar    1  LIG1       -0.0535
     19 H           3.6989    3.3279    0.0155 H       1  LIG1        0.0624
     20 H           3.6111   -0.9541   -0.0153 H       1  LIG1        0.0624
     21 H           6.1516    3.2775   -0.0152 H       1  LIG1        0.0624
     22 C           8.5141    2.0185    0.7619 C.ar    1  LIG1       -0.0540
     23 C           9.9024    1.9908    0.7630 C.ar    1  LIG1       -0.0612
     24 C           7.7790    1.1022    0.0039 C.ar    1  LIG1       -0.0179
     25 C          10.5841    1.0445    0.0066 C.ar    1  LIG1       -0.0617
     26 H          10.4538    2.7066    1.3643 H       1  LIG1        0.0618
     27 C           8.4772    0.1564   -0.7526 C.ar    1  LIG1       -0.0540
     28 C           9.8655    0.1270   -0.7511 C.ar    1  LIG1       -0.0612
     29 H           7.9246   -0.5476   -1.3662 H       1  LIG1        0.0624
     30 H          11.6690    1.0222    0.0076 H       1  LIG1        0.0618
     31 H           7.9899    2.7446    1.3747 H       1  LIG1        0.0624
     32 H          10.3880   -0.6109   -1.3514 H       1  LIG1        0.0618
@<TRIPOS>BOND
     1    11     7    1
     2    29    27    1
     3     8     6    1
     4    32    28    1
     5     6     7   ar
     6     6     3   ar
     7     7     4   ar
     8    27    28   ar
     9    27    24   ar
    10    28    25   ar
    11    20    12    1
    12    21    18    1
    13     9     3    1
    14     3     1   ar
    15     4    14    1
    16     4     2   ar
    17    14    17   ar
    18    14    12   ar
    19    17    18   ar
    20    17    19    1
    21    12    13   ar
    22    18    15   ar
    23    15    13   ar
    24    15    24    1
    25    13    16    1
    26    24    22   ar
    27    25    30    1
    28    25    23   ar
    29     1     2   ar
    30     1    10    1
    31     2     5    1
    32    22    23   ar
    33    22    31    1
    34    23    26    1
