@<TRIPOS>MOLECULE
mol_data/opt/cam/geoms/mol2/444.out
 32 34 0 0 0
SMALL
GASTEIGER

@<TRIPOS>ATOM
      1 C          -0.1348    0.3147    0.7606 C.ar    1  LIG1       -0.0612
      2 C           1.2536    0.2958    0.7605 C.ar    1  LIG1       -0.0540
      3 C          -0.8220    1.2563    0.0032 C.ar    1  LIG1       -0.0617
      4 C           1.9836    1.2164    0.0027 C.ar    1  LIG1       -0.0179
      5 H           1.7819   -0.4268    1.3740 H       1  LIG1        0.0624
      6 C          -0.1086    2.1779   -0.7545 C.ar    1  LIG1       -0.0612
      7 C           1.2798    2.1573   -0.7549 C.ar    1  LIG1       -0.0540
      8 H          -0.6353    2.9122   -1.3555 H       1  LIG1        0.0618
      9 H          -1.9070    1.2717    0.0034 H       1  LIG1        0.0618
     10 H          -0.6820   -0.4044    1.3618 H       1  LIG1        0.0618
     11 H           1.8283    2.8645   -1.3686 H       1  LIG1        0.0624
     12 C           4.1714   -0.0113    0.0023 C.ar    1  LIG1       -0.0535
     13 C           5.5577   -0.0309    0.0027 C.ar    1  LIG1       -0.0535
     14 C           3.4665    1.1953    0.0024 C.ar    1  LIG1       -0.0178
     15 C           6.2965    1.1552    0.0019 C.ar    1  LIG1       -0.0178
     16 H           6.0776   -0.9833    0.0190 H       1  LIG1        0.0624
     17 C           4.2053    2.3814    0.0023 C.ar    1  LIG1       -0.0535
     18 C           5.5917    2.3617    0.0013 C.ar    1  LIG1       -0.0535
     19 H           3.6854    3.3338    0.0182 H       1  LIG1        0.0624
     20 H           3.6247   -0.9486   -0.0134 H       1  LIG1        0.0624
     21 H           6.1383    3.2990   -0.0151 H       1  LIG1        0.0624
     22 C           8.4830    0.1929   -0.7557 C.ar    1  LIG1       -0.0540
     23 C           9.8714    0.1724   -0.7558 C.ar    1  LIG1       -0.0612
     24 C           7.7795    1.1341    0.0016 C.ar    1  LIG1       -0.0179
     25 C          10.5850    1.0945    0.0011 C.ar    1  LIG1       -0.0617
     26 H          10.3980   -0.5622   -1.3566 H       1  LIG1        0.0618
     27 C           8.5096    2.0551    0.7587 C.ar    1  LIG1       -0.0540
     28 C           9.8980    2.0363    0.7583 C.ar    1  LIG1       -0.0612
     29 H           7.9814    2.7780    1.3720 H       1  LIG1        0.0624
     30 H          11.6700    1.0791    0.0009 H       1  LIG1        0.0618
     31 H           7.9344   -0.5148   -1.3688 H       1  LIG1        0.0624
     32 H          10.4454    2.7557    1.3590 H       1  LIG1        0.0618
@<TRIPOS>BOND
     1    31    22    1
     2    11     7    1
     3    26    23    1
     4     8     6    1
     5    23    22   ar
     6    23    25   ar
     7    22    24   ar
     8     7     6   ar
     9     7     4   ar
    10     6     3   ar
    11    21    18    1
    12    20    12    1
    13    30    25    1
    14    25    28   ar
    15    18    15   ar
    16    18    17   ar
    17    24    15    1
    18    24    27   ar
    19    15    13   ar
    20    17    14   ar
    21    17    19    1
    22    12    14   ar
    23    12    13   ar
    24    14     4    1
    25     4     2   ar
    26    13    16    1
    27     3     9    1
    28     3     1   ar
    29    28    27   ar
    30    28    32    1
    31    27    29    1
    32     2     1   ar
    33     2     5    1
    34     1    10    1
