@<TRIPOS>MOLECULE
mol_data/opt/cam/geoms/mol2/4445-.out
 39 42 0 0 0
SMALL
GASTEIGER

@<TRIPOS>ATOM
      1 C          -0.1962    0.4081    0.9235 C.ar    1  LIG1       -0.0612
      2 C           1.1923    0.4060    0.9066 C.ar    1  LIG1       -0.0540
      3 C          -0.9055    1.2144    0.0409 C.ar    1  LIG1       -0.0617
      4 C           1.8999    1.2083    0.0067 C.ar    1  LIG1       -0.0179
      5 H           1.7381   -0.2078    1.6158 H       1  LIG1        0.0624
      6 C          -0.2144    2.0176   -0.8589 C.ar    1  LIG1       -0.0612
      7 C           1.1740    2.0138   -0.8758 C.ar    1  LIG1       -0.0540
      8 H          -0.7587    2.6449   -1.5577 H       1  LIG1        0.0618
      9 H          -1.9905    1.2167    0.0540 H       1  LIG1        0.0618
     10 H          -0.7260   -0.2169    1.6353 H       1  LIG1        0.0618
     11 H           1.7051    2.6252   -1.5982 H       1  LIG1        0.0624
     12 C           4.1046    0.0222    0.1694 C.ar    1  LIG1       -0.0535
     13 C           5.4908    0.0192    0.1537 C.ar    1  LIG1       -0.0535
     14 C           3.3828    1.2051   -0.0113 C.ar    1  LIG1       -0.0178
     15 C           6.2131    1.1990   -0.0454 C.ar    1  LIG1       -0.0178
     16 H           6.0234   -0.9126    0.3141 H       1  LIG1        0.0624
     17 C           4.1051    2.3849   -0.2095 C.ar    1  LIG1       -0.0535
     18 C           5.4913    2.3820   -0.2271 C.ar    1  LIG1       -0.0535
     19 H           3.5724    3.3217   -0.3372 H       1  LIG1        0.0624
     20 H           3.5711   -0.9123    0.3097 H       1  LIG1        0.0624
     21 H           6.0238    3.3115   -0.4008 H       1  LIG1        0.0624
     22 C           8.4076    0.1469   -0.6508 C.ar    1  LIG1       -0.0534
     23 C           9.7933    0.1397   -0.6635 C.ar    1  LIG1       -0.0530
     24 C           7.6947    1.1954   -0.0632 C.ar    1  LIG1       -0.0178
     25 C          10.5237    1.1880   -0.0960 C.ar    1  LIG1       -0.0113
     26 H          10.3173   -0.6976   -1.1134 H       1  LIG1        0.0624
     27 C           8.4269    2.2423    0.5049 C.ar    1  LIG1       -0.0534
     28 C           9.8119    2.2438    0.4829 C.ar    1  LIG1       -0.0530
     29 H           7.9022    3.0635    0.9821 H       1  LIG1        0.0624
     30 H           7.8679   -0.6697   -1.1190 H       1  LIG1        0.0624
     31 H          10.3532    3.0806    0.9112 H       1  LIG1        0.0624
     32 C          11.9923    1.1932   -0.0943 C.ar    1  LIG1        0.0193
     33 C          12.8350    1.7639    0.8194 C.ar    1  LIG1       -0.0469
     34 C          14.2128    1.5793    0.5131 C.ar    1  LIG1       -0.0541
     35 C          14.4043    0.8691   -0.6309 C.ar    1  LIG1       -0.0237
     36 S          12.9071    0.4205   -1.3571 S.2     1  LIG1       -0.0967
     37 H          15.3383    0.5845   -1.0933 H       1  LIG1        0.0693
     38 H          12.4795    2.2782    1.7038 H       1  LIG1        0.0629
     39 H          15.0229    1.9540    1.1264 H       1  LIG1        0.0623
@<TRIPOS>BOND
     1    11     7    1
     2     8     6    1
     3    36    35   ar
     4    36    32   ar
     5    30    22    1
     6    26    23    1
     7    37    35    1
     8     7     6   ar
     9     7     4   ar
    10     6     3   ar
    11    23    22   ar
    12    23    25   ar
    13    22    24   ar
    14    35    34   ar
    15    21    18    1
    16    19    17    1
    17    18    17   ar
    18    18    15   ar
    19    17    14   ar
    20    25    32    1
    21    25    28   ar
    22    32    33   ar
    23    24    15    1
    24    24    27   ar
    25    15    13   ar
    26    14     4    1
    27    14    12   ar
    28     4     2   ar
    29     3     9    1
    30     3     1   ar
    31    13    12   ar
    32    13    16    1
    33    12    20    1
    34    28    27   ar
    35    28    31    1
    36    27    29    1
    37    34    33   ar
    38    34    39    1
    39    33    38    1
    40     2     1   ar
    41     2     5    1
    42     1    10    1
