@<TRIPOS>MOLECULE
mol_data/opt/cam/geoms/mol2/445-8-.out
 35 38 0 0 0
SMALL
GASTEIGER

@<TRIPOS>ATOM
      1 C          -0.2166    0.3769    0.5839 C.ar    1  LIG1       -0.0612
      2 C           1.1694    0.3345    0.6551 C.ar    1  LIG1       -0.0540
      3 C          -0.8478    1.3369   -0.1986 C.ar    1  LIG1       -0.0617
      4 C           1.9515    1.2503   -0.0549 C.ar    1  LIG1       -0.0179
      5 H           1.6531   -0.4026    1.2877 H       1  LIG1        0.0624
      6 C          -0.0819    2.2535   -0.9096 C.ar    1  LIG1       -0.0612
      7 C           1.3041    2.2102   -0.8384 C.ar    1  LIG1       -0.0540
      8 H          -0.5651    3.0014   -1.5299 H       1  LIG1        0.0618
      9 H          -1.9309    1.3703   -0.2543 H       1  LIG1        0.0618
     10 H          -0.8058   -0.3383    1.1486 H       1  LIG1        0.0618
     11 H           1.8942    2.9135   -1.4169 H       1  LIG1        0.0624
     12 C           4.1142   -0.0149    0.0575 C.ar    1  LIG1       -0.0534
     13 C           5.4969   -0.0604    0.1314 C.ar    1  LIG1       -0.0530
     14 C           3.4315    1.2040    0.0207 C.ar    1  LIG1       -0.0178
     15 C           6.2528    1.1154    0.1642 C.ar    1  LIG1       -0.0113
     16 H           5.9961   -1.0232    0.1744 H       1  LIG1        0.0624
     17 C           4.1899    2.3782    0.0549 C.ar    1  LIG1       -0.0534
     18 C           5.5726    2.3369    0.1193 C.ar    1  LIG1       -0.0530
     19 H           3.6866    3.3392    0.0432 H       1  LIG1        0.0624
     20 H           3.5538   -0.9426    0.0120 H       1  LIG1        0.0624
     21 H           6.1359    3.2639    0.1225 H       1  LIG1        0.0624
     22 C           7.7178    1.0867    0.2479 C.ar    1  LIG1        0.0200
     23 C           8.5456    2.0284    0.8088 C.ar    1  LIG1       -0.0462
     24 C           9.9146    1.6909    0.7205 C.ar    1  LIG1       -0.0432
     25 C          10.1234    0.4916    0.0919 C.ar    1  LIG1        0.0604
     26 S           8.6307   -0.2339   -0.4084 S.2     1  LIG1       -0.0850
     27 H           8.1775    2.9221    1.2963 H       1  LIG1        0.0629
     28 H          10.7284    2.2898    1.1079 H       1  LIG1        0.0630
     29 C          11.3950   -0.1547   -0.1640 C.ar    1  LIG1        0.2098
     30 N          12.5121    0.4742    0.2445 N.ar    1  LIG1       -0.1253
     31 C          13.6258   -1.2928   -0.6147 C.ar    1  LIG1        0.1605
     32 N          11.3788   -1.3413   -0.7935 N.ar    1  LIG1       -0.1253
     33 N          13.6565   -0.1152    0.0112 N.ar    1  LIG1       -0.1339
     34 N          12.5280   -1.9248   -1.0249 N.ar    1  LIG1       -0.1339
     35 H          14.5769   -1.7760   -0.8056 H       1  LIG1        0.1085
@<TRIPOS>BOND
     1     8     6    1
     2    11     7    1
     3    34    32   ar
     4    34    31   ar
     5     6     7   ar
     6     6     3   ar
     7     7     4   ar
     8    35    31    1
     9    32    29   ar
    10    31    33   ar
    11    26    25   ar
    12    26    22   ar
    13     9     3    1
    14     3     1   ar
    15    29    25    1
    16    29    30   ar
    17     4    14    1
    18     4     2   ar
    19    33    30   ar
    20    20    12    1
    21    14    17   ar
    22    14    12   ar
    23    19    17    1
    24    17    18   ar
    25    12    13   ar
    26    25    24   ar
    27    18    21    1
    28    18    15   ar
    29    13    15   ar
    30    13    16    1
    31    15    22    1
    32    22    23   ar
    33     1     2   ar
    34     1    10    1
    35     2     5    1
    36    24    23   ar
    37    24    28    1
    38    23    27    1
