@<TRIPOS>MOLECULE
mol_data/opt/cam/geoms/mol2/445-4-.out
 39 42 0 0 0
SMALL
GASTEIGER

@<TRIPOS>ATOM
      1 C          -0.2917    0.4183    0.5272 C.ar    1  LIG1       -0.0612
      2 C           1.0928    0.3617    0.6167 C.ar    1  LIG1       -0.0540
      3 C          -0.9040    1.4050   -0.2369 C.ar    1  LIG1       -0.0617
      4 C           1.8935    1.2890   -0.0568 C.ar    1  LIG1       -0.0179
      5 H           1.5612   -0.3965    1.2357 H       1  LIG1        0.0624
      6 C          -0.1198    2.3338   -0.9111 C.ar    1  LIG1       -0.0612
      7 C           1.2646    2.2755   -0.8223 C.ar    1  LIG1       -0.0540
      8 H          -0.5875    3.1034   -1.5169 H       1  LIG1        0.0618
      9 H          -1.9859    1.4497   -0.3066 H       1  LIG1        0.0618
     10 H          -0.8949   -0.3070    1.0639 H       1  LIG1        0.0618
     11 H           1.8692    2.9892   -1.3727 H       1  LIG1        0.0624
     12 C           4.0456    0.0038    0.0481 C.ar    1  LIG1       -0.0534
     13 C           5.4271   -0.0543    0.1404 C.ar    1  LIG1       -0.0530
     14 C           3.3719    1.2279    0.0379 C.ar    1  LIG1       -0.0178
     15 C           6.1932    1.1129    0.2171 C.ar    1  LIG1       -0.0113
     16 H           5.9189   -1.0216    0.1621 H       1  LIG1        0.0624
     17 C           4.1394    2.3940    0.1162 C.ar    1  LIG1       -0.0534
     18 C           5.5210    2.3398    0.1963 C.ar    1  LIG1       -0.0530
     19 H           3.6436    3.3591    0.1250 H       1  LIG1        0.0624
     20 H           3.4794   -0.9182   -0.0325 H       1  LIG1        0.0624
     21 H           6.0915    3.2616    0.2322 H       1  LIG1        0.0624
     22 C           7.6563    1.0708    0.3212 C.ar    1  LIG1        0.0199
     23 C           8.4905    1.9833    0.9067 C.ar    1  LIG1       -0.0463
     24 C           9.8626    1.6293    0.8281 C.ar    1  LIG1       -0.0463
     25 C          10.0852    0.4442    0.1827 C.ar    1  LIG1        0.0199
     26 S           8.5789   -0.2412   -0.3515 S.2     1  LIG1       -0.0883
     27 H           8.1288    2.8691    1.4143 H       1  LIG1        0.0629
     28 H          10.6589    2.2161    1.2695 H       1  LIG1        0.0629
     29 C          12.5342    0.5360   -0.2294 C.ar    1  LIG1       -0.0535
     30 C          13.7560   -0.0805   -0.4565 C.ar    1  LIG1       -0.0612
     31 C          11.3677   -0.2223   -0.0777 C.ar    1  LIG1       -0.0113
     32 C          13.8360   -1.4656   -0.5519 C.ar    1  LIG1       -0.0617
     33 H          14.6489    0.5253   -0.5720 H       1  LIG1        0.0618
     34 C          11.4610   -1.6145   -0.1749 C.ar    1  LIG1       -0.0535
     35 C          12.6825   -2.2287   -0.4141 C.ar    1  LIG1       -0.0612
     36 H          10.5708   -2.2213   -0.0437 H       1  LIG1        0.0624
     37 H          14.7910   -1.9466   -0.7358 H       1  LIG1        0.0618
     38 H          12.4744    1.6183   -0.1880 H       1  LIG1        0.0624
     39 H          12.7337   -3.3104   -0.4842 H       1  LIG1        0.0618
@<TRIPOS>BOND
     1     8     6    1
     2    11     7    1
     3     6     7   ar
     4     6     3   ar
     5     7     4   ar
     6    37    32    1
     7    33    30    1
     8    32    30   ar
     9    32    35   ar
    10    39    35    1
    11    30    29   ar
    12    35    34   ar
    13    26    25   ar
    14    26    22   ar
    15     9     3    1
    16     3     1   ar
    17    29    38    1
    18    29    31   ar
    19    34    31   ar
    20    34    36    1
    21    31    25    1
    22     4    14    1
    23     4     2   ar
    24    20    12    1
    25    14    12   ar
    26    14    17   ar
    27    12    13   ar
    28    17    19    1
    29    17    18   ar
    30    13    16    1
    31    13    15   ar
    32    25    24   ar
    33    18    15   ar
    34    18    21    1
    35    15    22    1
    36    22    23   ar
    37     1     2   ar
    38     1    10    1
    39     2     5    1
    40    24    23   ar
    41    24    28    1
    42    23    27    1
