@<TRIPOS>MOLECULE
mol_data/opt/cam/geoms/mol2/445.out
 29 31 0 0 0
SMALL
GASTEIGER

@<TRIPOS>ATOM
      1 C          -0.1332    0.2137    0.5521 C.ar    1  LIG1       -0.0612
      2 C           1.2546    0.1775    0.5773 C.ar    1  LIG1       -0.0540
      3 C          -0.7948    1.2841   -0.0386 C.ar    1  LIG1       -0.0617
      4 C           2.0093    1.2093    0.0114 C.ar    1  LIG1       -0.0179
      5 H           1.7623   -0.6494    1.0632 H       1  LIG1        0.0624
      6 C          -0.0566    2.3171   -0.6044 C.ar    1  LIG1       -0.0612
      7 C           1.3312    2.2793   -0.5801 C.ar    1  LIG1       -0.0540
      8 H          -0.5633    3.1536   -1.0750 H       1  LIG1        0.0618
      9 H          -1.8793    1.3130   -0.0578 H       1  LIG1        0.0618
     10 H          -0.7002   -0.5941    1.0038 H       1  LIG1        0.0618
     11 H           1.8993    3.0777   -1.0465 H       1  LIG1        0.0624
     12 C           4.1866   -0.0270   -0.1540 C.ar    1  LIG1       -0.0534
     13 C           5.5709   -0.0658   -0.1228 C.ar    1  LIG1       -0.0530
     14 C           3.4914    1.1706    0.0378 C.ar    1  LIG1       -0.0178
     15 C           6.3189    1.0973    0.0868 C.ar    1  LIG1       -0.0113
     16 H           6.0834   -1.0130   -0.2524 H       1  LIG1        0.0624
     17 C           4.2402    2.3296    0.2579 C.ar    1  LIG1       -0.0534
     18 C           5.6255    2.2961    0.2776 C.ar    1  LIG1       -0.0530
     19 H           3.7287    3.2708    0.4309 H       1  LIG1        0.0624
     20 H           3.6331   -0.9413   -0.3418 H       1  LIG1        0.0624
     21 H           6.1783    3.2169    0.4348 H       1  LIG1        0.0624
     22 C           7.7866    1.0442    0.0971 C.ar    1  LIG1        0.0193
     23 C           8.6061    0.1811   -0.5767 C.ar    1  LIG1       -0.0469
     24 C           9.9905    0.4097   -0.3371 C.ar    1  LIG1       -0.0541
     25 C          10.2101    1.4454    0.5167 C.ar    1  LIG1       -0.0237
     26 S           8.7316    2.1537    1.0480 S.2     1  LIG1       -0.0967
     27 H          11.1550    1.8336    0.8685 H       1  LIG1        0.0693
     28 H           8.2304   -0.5804   -1.2490 H       1  LIG1        0.0629
     29 H          10.7852   -0.1698   -0.7905 H       1  LIG1        0.0623
@<TRIPOS>BOND
     1    28    23    1
     2     8     6    1
     3    11     7    1
     4    29    24    1
     5     6     7   ar
     6     6     3   ar
     7     7     4   ar
     8    23    24   ar
     9    23    22   ar
    10    20    12    1
    11    24    25   ar
    12    16    13    1
    13    12    13   ar
    14    12    14   ar
    15    13    15   ar
    16     9     3    1
    17     3     1   ar
    18     4    14    1
    19     4     2   ar
    20    14    17   ar
    21    15    22    1
    22    15    18   ar
    23    22    26   ar
    24    17    18   ar
    25    17    19    1
    26    18    21    1
    27    25    27    1
    28    25    26   ar
    29     1     2   ar
    30     1    10    1
    31     2     5    1
