@<TRIPOS>MOLECULE
mol_data/opt/cam/geoms/mol2/448-8-.out
 34 37 0 0 0
SMALL
GASTEIGER

@<TRIPOS>ATOM
      1 C          -0.1293    0.1455    0.4573 C.ar    1  LIG1       -0.0612
      2 C           1.2588    0.1209    0.4577 C.ar    1  LIG1       -0.0540
      3 C          -0.8086    1.2674   -0.0033 C.ar    1  LIG1       -0.0617
      4 C           1.9936    1.2183   -0.0008 C.ar    1  LIG1       -0.0179
      5 H           1.7810   -0.7496    0.8410 H       1  LIG1        0.0624
      6 C          -0.0895    2.3648   -0.4628 C.ar    1  LIG1       -0.0612
      7 C           1.2985    2.3407   -0.4606 C.ar    1  LIG1       -0.0540
      8 H          -0.6114    3.2417   -0.8318 H       1  LIG1        0.0618
      9 H          -1.8934    1.2864   -0.0043 H       1  LIG1        0.0618
     10 H          -0.6822   -0.7127    0.8253 H       1  LIG1        0.0618
     11 H           1.8516    3.1922   -0.8431 H       1  LIG1        0.0624
     12 C           4.1742    0.0231   -0.3208 C.ar    1  LIG1       -0.0534
     13 C           5.5579   -0.0062   -0.3199 C.ar    1  LIG1       -0.0504
     14 C           3.4756    1.1923    0.0005 C.ar    1  LIG1       -0.0178
     15 C           6.2845    1.1432    0.0029 C.ar    1  LIG1        0.0227
     16 H           6.0900   -0.9140   -0.5768 H       1  LIG1        0.0625
     17 C           4.2142    2.3364    0.3231 C.ar    1  LIG1       -0.0534
     18 C           5.5980    2.3173    0.3245 C.ar    1  LIG1       -0.0504
     19 H           3.6939    3.2468    0.5997 H       1  LIG1        0.0624
     20 H           3.6230   -0.8687   -0.5981 H       1  LIG1        0.0624
     21 H           6.1611    3.2059    0.5825 H       1  LIG1        0.0625
     22 C           7.7531    1.1175    0.0041 C.ar    1  LIG1        0.2034
     23 N           8.4092    2.2489    0.3142 N.ar    1  LIG1       -0.1251
     24 C          10.3128    1.0728    0.0061 C.ar    1  LIG1        0.2435
     25 N           8.3698   -0.0360   -0.3053 N.ar    1  LIG1       -0.1251
     26 N           9.7144    2.2260    0.3157 N.ar    1  LIG1       -0.1218
     27 N           9.6750   -0.0587   -0.3046 N.ar    1  LIG1       -0.1218
     28 C          11.8012    1.0467    0.0077 C.ar    1  LIG1        0.2434
     29 N          12.4348    2.1818    0.3196 N.ar    1  LIG1       -0.1224
     30 C          14.3333    1.0024    0.0100 C.ar    1  LIG1        0.1605
     31 N          12.3953   -0.1100   -0.3026 N.ar    1  LIG1       -0.1224
     32 N          13.7465    2.1574    0.3202 N.ar    1  LIG1       -0.1338
     33 N          13.7070   -0.1315   -0.3010 N.ar    1  LIG1       -0.1338
     34 H          15.4173    0.9835    0.0108 H       1  LIG1        0.1085
@<TRIPOS>BOND
     1    11     7    1
     2     8     6    1
     3    20    12    1
     4    16    13    1
     5     6     7   ar
     6     6     3   ar
     7     7     4   ar
     8    12    13   ar
     9    12    14   ar
    10    13    15   ar
    11    25    27   ar
    12    25    22   ar
    13    27    24   ar
    14    31    33   ar
    15    31    28   ar
    16    33    30   ar
    17     9     3    1
    18     3     1   ar
    19     4    14    1
    20     4     2   ar
    21    14    17   ar
    22    15    22    1
    23    15    18   ar
    24    22    23   ar
    25    24    28    1
    26    24    26   ar
    27    28    29   ar
    28    30    34    1
    29    30    32   ar
    30    23    26   ar
    31    29    32   ar
    32    17    18   ar
    33    17    19    1
    34    18    21    1
    35     1     2   ar
    36     1    10    1
    37     2     5    1
