@<TRIPOS>MOLECULE
mol_data/opt/cam/geoms/mol2/448.out
 28 30 0 0 0
SMALL
GASTEIGER

@<TRIPOS>ATOM
      1 C          -0.0870    0.1343    0.4351 C.ar    1  LIG1       -0.0612
      2 C           1.3011    0.1099    0.4344 C.ar    1  LIG1       -0.0540
      3 C          -0.7667    1.2668    0.0015 C.ar    1  LIG1       -0.0617
      4 C           2.0360    1.2175    0.0016 C.ar    1  LIG1       -0.0179
      5 H           1.8239   -0.7694    0.7964 H       1  LIG1        0.0624
      6 C          -0.0477    2.3746   -0.4323 C.ar    1  LIG1       -0.0612
      7 C           1.3404    2.3502   -0.4315 C.ar    1  LIG1       -0.0540
      8 H          -0.5697    3.2601   -0.7802 H       1  LIG1        0.0618
      9 H          -1.8516    1.2858    0.0017 H       1  LIG1        0.0618
     10 H          -0.6398   -0.7323    0.7829 H       1  LIG1        0.0618
     11 H           1.8939    3.2104   -0.7940 H       1  LIG1        0.0624
     12 C           4.2169    0.0332   -0.3544 C.ar    1  LIG1       -0.0534
     13 C           5.6011    0.0045   -0.3550 C.ar    1  LIG1       -0.0504
     14 C           3.5181    1.1916    0.0015 C.ar    1  LIG1       -0.0178
     15 C           6.3280    1.1429    0.0014 C.ar    1  LIG1        0.0227
     16 H           6.1334   -0.8951   -0.6391 H       1  LIG1        0.0625
     17 C           4.2568    2.3250    0.3577 C.ar    1  LIG1       -0.0534
     18 C           5.6412    2.3056    0.3580 C.ar    1  LIG1       -0.0504
     19 H           3.7366    3.2270    0.6616 H       1  LIG1        0.0624
     20 H           3.6658   -0.8504   -0.6577 H       1  LIG1        0.0624
     21 H           6.2043    3.1862    0.6422 H       1  LIG1        0.0625
     22 C           7.8009    1.1172    0.0011 C.ar    1  LIG1        0.2033
     23 N           8.4133   -0.0273   -0.3431 N.ar    1  LIG1       -0.1258
     24 C          10.3517    1.0730    0.0005 C.ar    1  LIG1        0.1605
     25 N           8.4527    2.2399    0.3449 N.ar    1  LIG1       -0.1258
     26 N           9.7230   -0.0494   -0.3437 N.ar    1  LIG1       -0.1339
     27 N           9.7624    2.2166    0.3449 N.ar    1  LIG1       -0.1339
     28 H          11.4355    1.0543    0.0000 H       1  LIG1        0.1085
@<TRIPOS>BOND
     1    11     7    1
     2     8     6    1
     3    20    12    1
     4    16    13    1
     5     6     7   ar
     6     6     3   ar
     7     7     4   ar
     8    13    12   ar
     9    13    15   ar
    10    12    14   ar
    11    26    23   ar
    12    26    24   ar
    13    23    22   ar
    14    28    24    1
    15    24    27   ar
    16    22    15    1
    17    22    25   ar
    18    15    18   ar
    19    14     4    1
    20    14    17   ar
    21     3     9    1
    22     3     1   ar
    23     4     2   ar
    24    27    25   ar
    25    17    18   ar
    26    17    19    1
    27    18    21    1
    28     2     1   ar
    29     2     5    1
    30     1    10    1
