@<TRIPOS>MOLECULE
mol_data/opt/cam/geoms/mol2/4485.out
 35 38 0 0 0
SMALL
GASTEIGER

@<TRIPOS>ATOM
      1 C          -0.1516    0.1728    0.4768 C.ar    1  LIG1       -0.0612
      2 C           1.2364    0.1417    0.4838 C.ar    1  LIG1       -0.0540
      3 C          -0.8237    1.2857   -0.0152 C.ar    1  LIG1       -0.0617
      4 C           1.9793    1.2225   -0.0003 C.ar    1  LIG1       -0.0179
      5 H           1.7530   -0.7210    0.8918 H       1  LIG1        0.0624
      6 C          -0.0969    2.3672   -0.4996 C.ar    1  LIG1       -0.0612
      7 C           1.2911    2.3358   -0.4918 C.ar    1  LIG1       -0.0540
      8 H          -0.6126    3.2373   -0.8929 H       1  LIG1        0.0618
      9 H          -1.9085    1.3102   -0.0210 H       1  LIG1        0.0618
     10 H          -0.7101   -0.6730    0.8645 H       1  LIG1        0.0618
     11 H           1.8504    3.1742   -0.8939 H       1  LIG1        0.0624
     12 C           4.1555    0.0099   -0.2841 C.ar    1  LIG1       -0.0534
     13 C           5.5397   -0.0261   -0.2778 C.ar    1  LIG1       -0.0504
     14 C           3.4614    1.1889    0.0070 C.ar    1  LIG1       -0.0178
     15 C           6.2723    1.1252    0.0201 C.ar    1  LIG1        0.0227
     16 H           6.0675   -0.9426   -0.5118 H       1  LIG1        0.0625
     17 C           4.2056    2.3354    0.3050 C.ar    1  LIG1       -0.0534
     18 C           5.5898    2.3086    0.3116 C.ar    1  LIG1       -0.0504
     19 H           3.6898    3.2554    0.5584 H       1  LIG1        0.0624
     20 H           3.6009   -0.8859   -0.5424 H       1  LIG1        0.0624
     21 H           6.1565    3.2003    0.5506 H       1  LIG1        0.0625
     22 C           7.7445    1.0925    0.0265 C.ar    1  LIG1        0.2034
     23 N           8.3562   -0.0708   -0.2523 N.ar    1  LIG1       -0.1252
     24 C          10.3149    1.0316    0.0354 C.ar    1  LIG1        0.2099
     25 N           8.4053    2.2248    0.3100 N.ar    1  LIG1       -0.1252
     26 N           9.6593   -0.1056   -0.2492 N.ar    1  LIG1       -0.1247
     27 N           9.7097    2.1949    0.3152 N.ar    1  LIG1       -0.1247
     28 C          11.7666    0.9994    0.0404 C.ar    1  LIG1        0.0598
     29 C          12.5724   -0.0778   -0.2151 C.ar    1  LIG1       -0.0438
     30 C          13.9518    0.2404   -0.1258 C.ar    1  LIG1       -0.0540
     31 C          14.1620    1.5497    0.1949 C.ar    1  LIG1       -0.0236
     32 S          12.6940    2.4211    0.3948 S.2     1  LIG1       -0.0934
     33 H          15.1088    2.0543    0.3260 H       1  LIG1        0.0693
     34 H          12.1726   -1.0539   -0.4563 H       1  LIG1        0.0630
     35 H          14.7497   -0.4719   -0.2925 H       1  LIG1        0.0623
@<TRIPOS>BOND
     1    11     7    1
     2     8     6    1
     3    20    12    1
     4    16    13    1
     5     6     7   ar
     6     6     3   ar
     7     7     4   ar
     8    34    29    1
     9    35    30    1
    10    12    13   ar
    11    12    14   ar
    12    13    15   ar
    13    23    26   ar
    14    23    22   ar
    15    26    24   ar
    16    29    30   ar
    17    29    28   ar
    18    30    31   ar
    19     9     3    1
    20     3     1   ar
    21     4    14    1
    22     4     2   ar
    23    14    17   ar
    24    15    22    1
    25    15    18   ar
    26    22    25   ar
    27    24    28    1
    28    24    27   ar
    29    28    32   ar
    30    31    33    1
    31    31    32   ar
    32    17    18   ar
    33    17    19    1
    34    25    27   ar
    35    18    21    1
    36     1     2   ar
    37     1    10    1
    38     2     5    1
