@<TRIPOS>MOLECULE
mol_data/opt/cam/geoms/mol2/45-.out
 19 20 0 0 0
SMALL
GASTEIGER

@<TRIPOS>ATOM
      1 C          -0.0085    0.0627    0.0007 C.ar    1  LIG1       -0.0612
      2 C           1.3790    0.0441    0.0006 C.ar    1  LIG1       -0.0535
      3 C          -0.6944    1.2706    0.0001 C.ar    1  LIG1       -0.0617
      4 C           2.1171    1.2326   -0.0001 C.ar    1  LIG1       -0.0113
      5 H           1.8931   -0.9118    0.0011 H       1  LIG1        0.0624
      6 C           0.0253    2.4602   -0.0006 C.ar    1  LIG1       -0.0612
      7 C           1.4117    2.4421   -0.0008 C.ar    1  LIG1       -0.0535
      8 H          -0.4962    3.4120   -0.0011 H       1  LIG1        0.0618
      9 H          -1.7791    1.2857    0.0002 H       1  LIG1        0.0618
     10 H          -0.5552   -0.8747    0.0012 H       1  LIG1        0.0618
     11 H           1.9520    3.3819   -0.0014 H       1  LIG1        0.0624
     12 C           3.5881    1.2252   -0.0002 C.ar    1  LIG1        0.0193
     13 C           4.4486    2.2891    0.0005 C.ar    1  LIG1       -0.0469
     14 C           5.8215    1.9166    0.0001 C.ar    1  LIG1       -0.0541
     15 C           5.9978    0.5690   -0.0009 C.ar    1  LIG1       -0.0237
     16 S           4.4912   -0.2662   -0.0013 S.2     1  LIG1       -0.0967
     17 H           6.9241    0.0132   -0.0014 H       1  LIG1        0.0693
     18 H           4.1185    3.3200    0.0013 H       1  LIG1        0.0629
     19 H           6.6388    2.6272    0.0005 H       1  LIG1        0.0623
@<TRIPOS>BOND
     1    11     7    1
     2    17    15    1
     3    16    15   ar
     4    16    12   ar
     5     8     6    1
     6    15    14   ar
     7     7     6   ar
     8     7     4   ar
     9     6     3   ar
    10    12     4    1
    11    12    13   ar
    12     4     2   ar
    13    14    13   ar
    14    14    19    1
    15     3     9    1
    16     3     1   ar
    17    13    18    1
    18     2     1   ar
    19     2     5    1
    20     1    10    1
