@<TRIPOS>MOLECULE
mol_data/opt/cam/geoms/mol2/45-12.out
 26 28 0 0 0
SMALL
GASTEIGER

@<TRIPOS>ATOM
      1 C          -0.0832    0.0881    0.0009 C.ar    1  LIG1       -0.0612
      2 C           1.3043    0.0652    0.0010 C.ar    1  LIG1       -0.0535
      3 C          -0.7652    1.2984   -0.0001 C.ar    1  LIG1       -0.0617
      4 C           2.0459    1.2518   -0.0000 C.ar    1  LIG1       -0.0113
      5 H           1.8147   -0.8928    0.0019 H       1  LIG1        0.0624
      6 C          -0.0418    2.4861   -0.0011 C.ar    1  LIG1       -0.0612
      7 C           1.3445    2.4643   -0.0011 C.ar    1  LIG1       -0.0535
      8 H          -0.5606    3.4394   -0.0019 H       1  LIG1        0.0618
      9 H          -1.8499    1.3171   -0.0001 H       1  LIG1        0.0618
     10 H          -0.6328   -0.8475    0.0017 H       1  LIG1        0.0618
     11 H           1.8874    3.4025   -0.0020 H       1  LIG1        0.0624
     12 C           3.5149    1.2397   -0.0000 C.ar    1  LIG1        0.0200
     13 C           4.3812    2.2995    0.0006 C.ar    1  LIG1       -0.0462
     14 C           5.7488    1.9256    0.0004 C.ar    1  LIG1       -0.0434
     15 C           5.9313    0.5706   -0.0004 C.ar    1  LIG1        0.0550
     16 S           4.4080   -0.2596   -0.0009 S.2     1  LIG1       -0.0852
     17 H           4.0564    3.3320    0.0013 H       1  LIG1        0.0629
     18 H           6.5742    2.6253    0.0009 H       1  LIG1        0.0630
     19 C           7.1810   -0.1545   -0.0007 C.ar    1  LIG1        0.1413
     20 C           7.5075   -1.4780   -0.0012 C.ar    1  LIG1       -0.0154
     21 C           8.9337   -1.5416   -0.0014 C.ar    1  LIG1       -0.0233
     22 C           9.3673   -0.2585   -0.0009 C.ar    1  LIG1        0.0926
     23 O           8.3157    0.5989   -0.0005 O.2     1  LIG1       -0.4624
     24 H          10.3449    0.1961   -0.0009 H       1  LIG1        0.1029
     25 H           6.8155   -2.3070   -0.0015 H       1  LIG1        0.0655
     26 H           9.5494   -2.4282   -0.0018 H       1  LIG1        0.0649
@<TRIPOS>BOND
     1    11     7    1
     2     8     6    1
     3    26    21    1
     4    25    20    1
     5    21    20   ar
     6    21    22   ar
     7    20    19   ar
     8     7     6   ar
     9     7     4   ar
    10     6     3   ar
    11    22    24    1
    12    22    23   ar
    13    16    15   ar
    14    16    12   ar
    15    19    23   ar
    16    19    15    1
    17    15    14   ar
    18     9     3    1
    19     3     1   ar
    20     4    12    1
    21     4     2   ar
    22    12    13   ar
    23    14    13   ar
    24    14    18    1
    25    13    17    1
    26     1     2   ar
    27     1    10    1
    28     2     5    1
