@<TRIPOS>MOLECULE
mol_data/opt/cam/geoms/mol2/45-13-.out
 27 29 0 0 0
SMALL
GASTEIGER

@<TRIPOS>ATOM
      1 C          -0.1157    0.1123    0.0010 C.ar    1  LIG1       -0.0612
      2 C           1.2717    0.0807    0.0011 C.ar    1  LIG1       -0.0535
      3 C          -0.7906    1.3265   -0.0000 C.ar    1  LIG1       -0.0617
      4 C           2.0211    1.2624   -0.0000 C.ar    1  LIG1       -0.0113
      5 H           1.7764   -0.8803    0.0020 H       1  LIG1        0.0624
      6 C          -0.0594    2.5096   -0.0011 C.ar    1  LIG1       -0.0612
      7 C           1.3266    2.4792   -0.0011 C.ar    1  LIG1       -0.0535
      8 H          -0.5721    3.4661   -0.0020 H       1  LIG1        0.0618
      9 H          -1.8751    1.3518   -0.0001 H       1  LIG1        0.0618
     10 H          -0.6712   -0.8200    0.0019 H       1  LIG1        0.0618
     11 H           1.8754    3.4140   -0.0021 H       1  LIG1        0.0624
     12 C           3.4889    1.2425    0.0000 C.ar    1  LIG1        0.0200
     13 C           4.3651    2.2928    0.0009 C.ar    1  LIG1       -0.0463
     14 C           5.7307    1.9110    0.0006 C.ar    1  LIG1       -0.0449
     15 C           5.9158    0.5554   -0.0005 C.ar    1  LIG1        0.0360
     16 S           4.3786   -0.2600   -0.0011 S.2     1  LIG1       -0.0868
     17 H           4.0477    3.3279    0.0018 H       1  LIG1        0.0629
     18 H           6.5511    2.6174    0.0012 H       1  LIG1        0.0630
     19 C           7.1665   -0.1766   -0.0010 C.ar    1  LIG1        0.0531
     20 C           8.4691    0.2837   -0.0012 C.ar    1  LIG1       -0.0359
     21 C           9.3261   -0.8424   -0.0014 C.ar    1  LIG1       -0.0438
     22 C           8.5315   -1.9618   -0.0021 C.ar    1  LIG1        0.0022
     23 N           7.2279   -1.5508   -0.0015 N.ar    1  LIG1       -0.3603
     24 H           6.4305   -2.1655   -0.0015 H       1  LIG1        0.1653
     25 H           8.7856   -3.0105   -0.0027 H       1  LIG1        0.0807
     26 H           8.7662    1.3220   -0.0009 H       1  LIG1        0.0639
     27 H          10.4059   -0.8326   -0.0014 H       1  LIG1        0.0633
@<TRIPOS>BOND
     1    25    22    1
     2    11     7    1
     3    22    23   ar
     4    22    21   ar
     5     8     6    1
     6    23    24    1
     7    23    19   ar
     8    27    21    1
     9    21    20   ar
    10    20    19   ar
    11    20    26    1
    12    16    15   ar
    13    16    12   ar
    14     7     6   ar
    15     7     4   ar
    16     6     3   ar
    17    19    15    1
    18    15    14   ar
    19     9     3    1
    20     3     1   ar
    21     4    12    1
    22     4     2   ar
    23    12    13   ar
    24    14    13   ar
    25    14    18    1
    26    13    17    1
    27     1     2   ar
    28     1    10    1
    29     2     5    1
