@<TRIPOS>MOLECULE
mol_data/opt/cam/geoms/mol2/45-413-.out
 37 40 0 0 0
SMALL
GASTEIGER

@<TRIPOS>ATOM
      1 C          -0.2231    0.1571    0.0005 C.ar    1  LIG1       -0.0612
      2 C           1.1643    0.1289    0.0010 C.ar    1  LIG1       -0.0535
      3 C          -0.9006    1.3700   -0.0012 C.ar    1  LIG1       -0.0617
      4 C           1.9104    1.3127   -0.0003 C.ar    1  LIG1       -0.0113
      5 H           1.6720   -0.8304    0.0025 H       1  LIG1        0.0624
      6 C          -0.1727    2.5550   -0.0025 C.ar    1  LIG1       -0.0612
      7 C           1.2135    2.5278   -0.0020 C.ar    1  LIG1       -0.0535
      8 H          -0.6879    3.5102   -0.0039 H       1  LIG1        0.0618
      9 H          -1.9852    1.3928   -0.0016 H       1  LIG1        0.0618
     10 H          -0.7764   -0.7764    0.0015 H       1  LIG1        0.0618
     11 H           1.7600    3.4640   -0.0032 H       1  LIG1        0.0624
     12 C           3.3795    1.2957    0.0003 C.ar    1  LIG1        0.0199
     13 C           4.2481    2.3530    0.0009 C.ar    1  LIG1       -0.0463
     14 C           5.6133    1.9728    0.0013 C.ar    1  LIG1       -0.0463
     15 C           5.8089    0.6180    0.0010 C.ar    1  LIG1        0.0199
     16 S           4.2716   -0.1998    0.0001 S.2     1  LIG1       -0.0883
     17 H           3.9283    3.3872    0.0012 H       1  LIG1        0.0629
     18 H           6.4223    2.6919    0.0020 H       1  LIG1        0.0629
     19 C           7.1076   -1.5238    0.0028 C.ar    1  LIG1       -0.0529
     20 C           8.3074   -2.2158    0.0030 C.ar    1  LIG1       -0.0520
     21 C           7.0722   -0.1266    0.0012 C.ar    1  LIG1       -0.0113
     22 C           9.5360   -1.5477    0.0018 C.ar    1  LIG1       -0.0017
     23 H           8.2667   -3.3006    0.0045 H       1  LIG1        0.0624
     24 C           8.3030    0.5439   -0.0000 C.ar    1  LIG1       -0.0529
     25 C           9.4992   -0.1468    0.0003 C.ar    1  LIG1       -0.0520
     26 H           8.3279    1.6278   -0.0014 H       1  LIG1        0.0624
     27 H           6.1812   -2.0894    0.0039 H       1  LIG1        0.0624
     28 H          10.4283    0.4118   -0.0009 H       1  LIG1        0.0624
     29 C          10.8151   -2.2545    0.0020 C.ar    1  LIG1        0.0465
     30 C          12.1106   -1.7733    0.0029 C.ar    1  LIG1       -0.0364
     31 C          12.9913   -2.8808    0.0031 C.ar    1  LIG1       -0.0438
     32 C          12.2178   -4.0145    0.0016 C.ar    1  LIG1        0.0022
     33 N          10.9077   -3.6275    0.0013 N.ar    1  LIG1       -0.3607
     34 H          10.1265   -4.2601    0.0003 H       1  LIG1        0.1653
     35 H          12.4915   -5.0584    0.0010 H       1  LIG1        0.0807
     36 H          12.3966   -0.7321    0.0038 H       1  LIG1        0.0639
     37 H          14.0708   -2.8497    0.0039 H       1  LIG1        0.0633
@<TRIPOS>BOND
     1     8     6    1
     2    11     7    1
     3     6     7   ar
     4     6     3   ar
     5     7     4   ar
     6     9     3    1
     7    26    24    1
     8     3     1   ar
     9    28    25    1
    10     4    12    1
    11     4     2   ar
    12    24    25   ar
    13    24    21   ar
    14    16    12   ar
    15    16    15   ar
    16    25    22   ar
    17    12    13   ar
    18    34    33    1
    19     1     2   ar
    20     1    10    1
    21    13    17    1
    22    13    14   ar
    23    15    21    1
    24    15    14   ar
    25    35    32    1
    26     2     5    1
    27    21    19   ar
    28    14    18    1
    29    33    32   ar
    30    33    29   ar
    31    32    31   ar
    32    22    29    1
    33    22    20   ar
    34    29    30   ar
    35    19    20   ar
    36    19    27    1
    37    30    31   ar
    38    30    36    1
    39    20    23    1
    40    31    37    1
