@<TRIPOS>MOLECULE
mol_data/opt/cam/geoms/mol2/45-48-.out
 35 38 0 0 0
SMALL
GASTEIGER

@<TRIPOS>ATOM
      1 C          -0.1891    0.1301    0.0002 C.ar    1  LIG1       -0.0612
      2 C           1.1982    0.1057    0.0008 C.ar    1  LIG1       -0.0535
      3 C          -0.8694    1.3415   -0.0014 C.ar    1  LIG1       -0.0617
      4 C           1.9402    1.2920   -0.0003 C.ar    1  LIG1       -0.0113
      5 H           1.7083   -0.8524    0.0022 H       1  LIG1        0.0624
      6 C          -0.1454    2.5288   -0.0024 C.ar    1  LIG1       -0.0612
      7 C           1.2409    2.5054   -0.0019 C.ar    1  LIG1       -0.0535
      8 H          -0.6634    3.4823   -0.0037 H       1  LIG1        0.0618
      9 H          -1.9540    1.3612   -0.0018 H       1  LIG1        0.0618
     10 H          -0.7400   -0.8047    0.0011 H       1  LIG1        0.0618
     11 H           1.7847    3.4432   -0.0029 H       1  LIG1        0.0624
     12 C           3.4099    1.2792    0.0003 C.ar    1  LIG1        0.0199
     13 C           4.2745    2.3414    0.0011 C.ar    1  LIG1       -0.0463
     14 C           5.6394    1.9655    0.0015 C.ar    1  LIG1       -0.0463
     15 C           5.8384    0.6106    0.0010 C.ar    1  LIG1        0.0199
     16 S           4.3044   -0.2121    0.0000 S.2     1  LIG1       -0.0883
     17 H           3.9508    3.3741    0.0015 H       1  LIG1        0.0629
     18 H           6.4460    2.6874    0.0022 H       1  LIG1        0.0629
     19 C           7.1376   -1.5282    0.0023 C.ar    1  LIG1       -0.0529
     20 C           8.3363   -2.2183    0.0026 C.ar    1  LIG1       -0.0503
     21 C           7.1046   -0.1276    0.0013 C.ar    1  LIG1       -0.0113
     22 C           9.5490   -1.5263    0.0018 C.ar    1  LIG1        0.0227
     23 H           8.3448   -3.3014    0.0034 H       1  LIG1        0.0625
     24 C           8.3294    0.5554    0.0005 C.ar    1  LIG1       -0.0529
     25 C           9.5302   -0.1288    0.0007 C.ar    1  LIG1       -0.0503
     26 H           8.3451    1.6388   -0.0005 H       1  LIG1        0.0624
     27 H           6.2106   -2.0918    0.0030 H       1  LIG1        0.0624
     28 H          10.4687    0.4120    0.0001 H       1  LIG1        0.0625
     29 C          10.8266   -2.2563    0.0020 C.ar    1  LIG1        0.2033
     30 N          11.9633   -1.5409    0.0015 N.ar    1  LIG1       -0.1258
     31 C          13.0414   -3.5217    0.0030 C.ar    1  LIG1        0.1605
     32 N          10.7876   -3.5989    0.0031 N.ar    1  LIG1       -0.1258
     33 N          13.1000   -2.1912    0.0018 N.ar    1  LIG1       -0.1339
     34 N          11.9248   -4.2479    0.0035 N.ar    1  LIG1       -0.1339
     35 H          13.9825   -4.0595    0.0029 H       1  LIG1        0.1085
@<TRIPOS>BOND
     1     8     6    1
     2    11     7    1
     3     6     7   ar
     4     6     3   ar
     5     7     4   ar
     6     9     3    1
     7     3     1   ar
     8    26    24    1
     9     4    12    1
    10     4     2   ar
    11    16    12   ar
    12    16    15   ar
    13    28    25    1
    14     1     2   ar
    15     1    10    1
    16    12    13   ar
    17    24    25   ar
    18    24    21   ar
    19    25    22   ar
    20     2     5    1
    21    15    21    1
    22    15    14   ar
    23    13    14   ar
    24    13    17    1
    25    21    19   ar
    26    30    33   ar
    27    30    29   ar
    28    14    18    1
    29    22    29    1
    30    22    20   ar
    31    33    31   ar
    32    29    32   ar
    33    19    20   ar
    34    19    27    1
    35    20    23    1
    36    35    31    1
    37    31    34   ar
    38    32    34   ar
