@<TRIPOS>MOLECULE
mol_data/opt/cam/geoms/mol2/45-5.out
 26 28 0 0 0
SMALL
GASTEIGER

@<TRIPOS>ATOM
      1 C          -0.1198    0.1176    0.0008 C.ar    1  LIG1       -0.0612
      2 C           1.2673    0.0797    0.0009 C.ar    1  LIG1       -0.0535
      3 C          -0.7886    1.3353   -0.0001 C.ar    1  LIG1       -0.0617
      4 C           2.0215    1.2583   -0.0000 C.ar    1  LIG1       -0.0113
      5 H           1.7676   -0.8836    0.0017 H       1  LIG1        0.0624
      6 C          -0.0525    2.5152   -0.0010 C.ar    1  LIG1       -0.0612
      7 C           1.3334    2.4783   -0.0010 C.ar    1  LIG1       -0.0535
      8 H          -0.5610    3.4739   -0.0018 H       1  LIG1        0.0618
      9 H          -1.8730    1.3657   -0.0001 H       1  LIG1        0.0618
     10 H          -0.6796   -0.8119    0.0016 H       1  LIG1        0.0618
     11 H           1.8864    3.4107   -0.0019 H       1  LIG1        0.0624
     12 C           3.4904    1.2303   -0.0000 C.ar    1  LIG1        0.0199
     13 C           4.3667    2.2813    0.0007 C.ar    1  LIG1       -0.0463
     14 C           5.7294    1.8915    0.0005 C.ar    1  LIG1       -0.0458
     15 C           5.9074    0.5349   -0.0004 C.ar    1  LIG1        0.0265
     16 S           4.3688   -0.2757   -0.0011 S.2     1  LIG1       -0.0877
     17 H           4.0542    3.3174    0.0015 H       1  LIG1        0.0629
     18 H           6.5521    2.5967    0.0011 H       1  LIG1        0.0629
     19 C           7.1475   -0.2206   -0.0009 C.ar    1  LIG1        0.0259
     20 C           7.3234   -1.5783   -0.0016 C.ar    1  LIG1       -0.0464
     21 C           8.6911   -1.9700   -0.0020 C.ar    1  LIG1       -0.0541
     22 C           9.5407   -0.9085   -0.0016 C.ar    1  LIG1       -0.0237
     23 S           8.6886    0.5909   -0.0005 S.2     1  LIG1       -0.0961
     24 H          10.6209   -0.9149   -0.0019 H       1  LIG1        0.0693
     25 H           6.4983   -2.2805   -0.0018 H       1  LIG1        0.0629
     26 H           9.0221   -3.0009   -0.0026 H       1  LIG1        0.0623
@<TRIPOS>BOND
     1    26    21    1
     2    21    22   ar
     3    21    20   ar
     4    11     7    1
     5    24    22    1
     6    25    20    1
     7     8     6    1
     8    22    23   ar
     9    20    19   ar
    10    16    15   ar
    11    16    12   ar
    12     7     6   ar
    13     7     4   ar
    14     6     3   ar
    15    19    23   ar
    16    19    15    1
    17    15    14   ar
    18     9     3    1
    19     3     1   ar
    20     4    12    1
    21     4     2   ar
    22    12    13   ar
    23    14    13   ar
    24    14    18    1
    25    13    17    1
    26     1     2   ar
    27     1    10    1
    28     2     5    1
