@<TRIPOS>MOLECULE
mol_data/opt/cam/geoms/mol2/45-5-.out
 26 28 0 0 0
SMALL
GASTEIGER

@<TRIPOS>ATOM
      1 C          -0.1011    0.0994    0.0007 C.ar    1  LIG1       -0.0612
      2 C           1.2863    0.0748    0.0008 C.ar    1  LIG1       -0.0535
      3 C          -0.7818    1.3106   -0.0003 C.ar    1  LIG1       -0.0617
      4 C           2.0287    1.2609   -0.0000 C.ar    1  LIG1       -0.0113
      5 H           1.7960   -0.8835    0.0017 H       1  LIG1        0.0624
      6 C          -0.0574    2.4976   -0.0012 C.ar    1  LIG1       -0.0612
      7 C           1.3288    2.4741   -0.0011 C.ar    1  LIG1       -0.0535
      8 H          -0.5753    3.4513   -0.0020 H       1  LIG1        0.0618
      9 H          -1.8665    1.3302   -0.0004 H       1  LIG1        0.0618
     10 H          -0.6518   -0.8356    0.0014 H       1  LIG1        0.0618
     11 H           1.8729    3.4118   -0.0019 H       1  LIG1        0.0624
     12 C           3.4976    1.2480    0.0001 C.ar    1  LIG1        0.0199
     13 C           4.3644    2.3077    0.0010 C.ar    1  LIG1       -0.0463
     14 C           5.7301    1.9322    0.0009 C.ar    1  LIG1       -0.0458
     15 C           5.9223    0.5763   -0.0001 C.ar    1  LIG1        0.0265
     16 S           4.3915   -0.2470   -0.0009 S.2     1  LIG1       -0.0877
     17 H           4.0410    3.3407    0.0018 H       1  LIG1        0.0629
     18 H           6.5447    2.6455    0.0016 H       1  LIG1        0.0629
     19 C           7.1877   -0.1407   -0.0004 C.ar    1  LIG1        0.0259
     20 C           8.4489    0.3952   -0.0008 C.ar    1  LIG1       -0.0464
     21 C           9.4781   -0.5853   -0.0009 C.ar    1  LIG1       -0.0541
     22 C           8.9937   -1.8564   -0.0007 C.ar    1  LIG1       -0.0237
     23 S           7.2707   -1.8792   -0.0005 S.2     1  LIG1       -0.0961
     24 H           9.5457   -2.7849   -0.0007 H       1  LIG1        0.0693
     25 H           8.6373    1.4614   -0.0009 H       1  LIG1        0.0629
     26 H          10.5348   -0.3487   -0.0012 H       1  LIG1        0.0623
@<TRIPOS>BOND
     1     8     6    1
     2    11     7    1
     3     6     7   ar
     4     6     3   ar
     5    26    21    1
     6     7     4   ar
     7    16    15   ar
     8    16    12   ar
     9    21    20   ar
    10    21    22   ar
    11    25    20    1
    12    20    19   ar
    13    24    22    1
    14    22    23   ar
    15    23    19   ar
    16    19    15    1
    17     9     3    1
    18     3     1   ar
    19    15    14   ar
    20     4    12    1
    21     4     2   ar
    22    12    13   ar
    23     1     2   ar
    24     1    10    1
    25     2     5    1
    26    14    13   ar
    27    14    18    1
    28    13    17    1
