@<TRIPOS>MOLECULE
mol_data/opt/cam/geoms/mol2/45-8.out
 25 27 0 0 0
SMALL
GASTEIGER

@<TRIPOS>ATOM
      1 C          -0.0769    0.0935    0.0010 C.ar    1  LIG1       -0.0612
      2 C           1.3099    0.0609    0.0010 C.ar    1  LIG1       -0.0535
      3 C          -0.7494    1.3096   -0.0001 C.ar    1  LIG1       -0.0617
      4 C           2.0578    1.2436   -0.0000 C.ar    1  LIG1       -0.0113
      5 H           1.8138   -0.9004    0.0020 H       1  LIG1        0.0624
      6 C          -0.0195    2.4930   -0.0012 C.ar    1  LIG1       -0.0612
      7 C           1.3667    2.4614   -0.0012 C.ar    1  LIG1       -0.0535
      8 H          -0.5323    3.4492   -0.0021 H       1  LIG1        0.0618
      9 H          -1.8339    1.3354   -0.0001 H       1  LIG1        0.0618
     10 H          -0.6336   -0.8377    0.0018 H       1  LIG1        0.0618
     11 H           1.9157    3.3959   -0.0022 H       1  LIG1        0.0624
     12 C           3.5283    1.2204   -0.0000 C.ar    1  LIG1        0.0200
     13 C           4.3932    2.2888    0.0007 C.ar    1  LIG1       -0.0462
     14 C           5.7537    1.9113    0.0005 C.ar    1  LIG1       -0.0432
     15 C           5.9245    0.5527   -0.0003 C.ar    1  LIG1        0.0604
     16 S           4.4048   -0.2789   -0.0010 S.2     1  LIG1       -0.0850
     17 H           4.0688    3.3208    0.0015 H       1  LIG1        0.0629
     18 H           6.5886    2.5999    0.0011 H       1  LIG1        0.0630
     19 C           7.1776   -0.1751   -0.0007 C.ar    1  LIG1        0.2098
     20 N           7.1226   -1.5172   -0.0016 N.ar    1  LIG1       -0.1253
     21 C           9.3763   -1.4552   -0.0016 C.ar    1  LIG1        0.1605
     22 N           8.3175    0.5395   -0.0002 N.ar    1  LIG1       -0.1253
     23 N           8.2554   -2.1739   -0.0020 N.ar    1  LIG1       -0.1339
     24 N           9.4454   -0.1231   -0.0006 N.ar    1  LIG1       -0.1339
     25 H          10.3139   -1.9988   -0.0016 H       1  LIG1        0.1085
@<TRIPOS>BOND
     1    11     7    1
     2     8     6    1
     3    23    21   ar
     4    23    20   ar
     5    25    21    1
     6    21    24   ar
     7    20    19   ar
     8     6     7   ar
     9     6     3   ar
    10     7     4   ar
    11    16    15   ar
    12    16    12   ar
    13    19    15    1
    14    19    22   ar
    15    24    22   ar
    16    15    14   ar
    17     9     3    1
    18     3     1   ar
    19     4    12    1
    20     4     2   ar
    21    12    13   ar
    22    14    13   ar
    23    14    18    1
    24    13    17    1
    25     1     2   ar
    26     1    10    1
    27     2     5    1
