@<TRIPOS>MOLECULE
mol_data/opt/cam/geoms/mol2/45.out
 19 20 0 0 0
SMALL
GASTEIGER

@<TRIPOS>ATOM
      1 C          -0.0272    0.0718    0.2205 C.ar    1  LIG1       -0.0612
      2 C           1.3595    0.0295    0.2452 C.ar    1  LIG1       -0.0535
      3 C          -0.6884    1.2759    0.0046 C.ar    1  LIG1       -0.0617
      4 C           2.1140    1.1896    0.0393 C.ar    1  LIG1       -0.0113
      5 H           1.8685   -0.9073    0.4454 H       1  LIG1        0.0624
      6 C           0.0504    2.4368   -0.1907 C.ar    1  LIG1       -0.0612
      7 C           1.4378    2.3942   -0.1782 C.ar    1  LIG1       -0.0535
      8 H          -0.4552    3.3815   -0.3629 H       1  LIG1        0.0618
      9 H          -1.7728    1.3092   -0.0086 H       1  LIG1        0.0618
     10 H          -0.5944   -0.8390    0.3831 H       1  LIG1        0.0618
     11 H           2.0052    3.3021   -0.3566 H       1  LIG1        0.0624
     12 C           3.5826    1.1248    0.0482 C.ar    1  LIG1        0.0193
     13 C           4.3846    0.0812   -0.3226 C.ar    1  LIG1       -0.0469
     14 C           5.7744    0.3572   -0.1850 C.ar    1  LIG1       -0.0541
     15 C           6.0151    1.6091    0.2889 C.ar    1  LIG1       -0.0237
     16 S           4.5503    2.4686    0.5821 S.2     1  LIG1       -0.0967
     17 H           6.9682    2.0778    0.4865 H       1  LIG1        0.0693
     18 H           3.9920   -0.8507   -0.7104 H       1  LIG1        0.0629
     19 H           6.5576   -0.3469   -0.4378 H       1  LIG1        0.0623
@<TRIPOS>BOND
     1    18    13    1
     2    19    14    1
     3     8     6    1
     4    11     7    1
     5    13    14   ar
     6    13    12   ar
     7     6     7   ar
     8     6     3   ar
     9    14    15   ar
    10     7     4   ar
    11     9     3    1
    12     3     1   ar
    13     4    12    1
    14     4     2   ar
    15    12    16   ar
    16     1     2   ar
    17     1    10    1
    18     2     5    1
    19    15    17    1
    20    15    16   ar
