@<TRIPOS>MOLECULE
mol_data/opt/cam/geoms/mol2/45124-.out
 36 39 0 0 0
SMALL
GASTEIGER

@<TRIPOS>ATOM
      1 C          -0.1291    0.0085    0.5401 C.ar    1  LIG1       -0.0612
      2 C           1.2577    0.0034    0.5080 C.ar    1  LIG1       -0.0535
      3 C          -0.8385    1.1023    0.0560 C.ar    1  LIG1       -0.0617
      4 C           1.9649    1.0880   -0.0237 C.ar    1  LIG1       -0.0113
      5 H           1.8042   -0.8397    0.9169 H       1  LIG1        0.0624
      6 C          -0.1470    2.1898   -0.4645 C.ar    1  LIG1       -0.0612
      7 C           1.2402    2.1819   -0.5086 C.ar    1  LIG1       -0.0535
      8 H          -0.6901    3.0476   -0.8477 H       1  LIG1        0.0618
      9 H          -1.9229    1.1078    0.0872 H       1  LIG1        0.0618
     10 H          -0.6586   -0.8420    0.9573 H       1  LIG1        0.0618
     11 H           1.7683    3.0257   -0.9411 H       1  LIG1        0.0624
     12 C           3.4322    1.0595   -0.0696 C.ar    1  LIG1        0.0200
     13 C           4.2542   -0.0304   -0.1703 C.ar    1  LIG1       -0.0462
     14 C           5.6325    0.2982   -0.1904 C.ar    1  LIG1       -0.0434
     15 C           5.8633    1.6456   -0.1045 C.ar    1  LIG1        0.0550
     16 S           4.3696    2.5230    0.0106 S.2     1  LIG1       -0.0852
     17 H           3.8799   -1.0428   -0.2577 H       1  LIG1        0.0629
     18 H           6.4260   -0.4340   -0.2760 H       1  LIG1        0.0630
     19 C           7.1323    2.3322   -0.0970 C.ar    1  LIG1        0.1422
     20 C           8.4287    1.9096   -0.1511 C.ar    1  LIG1       -0.0147
     21 C           9.2351    3.0794   -0.1052 C.ar    1  LIG1       -0.0152
     22 C           8.3862    4.1447   -0.0251 C.ar    1  LIG1        0.1357
     23 O           7.1006    3.6901   -0.0201 O.2     1  LIG1       -0.4543
     24 H           8.7652    0.8860   -0.2150 H       1  LIG1        0.0656
     25 H          10.3134    3.1201   -0.1290 H       1  LIG1        0.0656
     26 C           7.4905    6.4560    0.1209 C.ar    1  LIG1       -0.0511
     27 C           7.6883    7.8277    0.1927 C.ar    1  LIG1       -0.0611
     28 C           8.5836    5.5868    0.0508 C.ar    1  LIG1        0.0173
     29 C           8.9747    8.3544    0.1958 C.ar    1  LIG1       -0.0617
     30 H           6.8299    8.4895    0.2468 H       1  LIG1        0.0618
     31 C           9.8753    6.1245    0.0546 C.ar    1  LIG1       -0.0511
     32 C          10.0670    7.4955    0.1264 C.ar    1  LIG1       -0.0611
     33 H          10.7347    5.4645    0.0014 H       1  LIG1        0.0625
     34 H           9.1263    9.4272    0.2520 H       1  LIG1        0.0618
     35 H           6.4868    6.0476    0.1188 H       1  LIG1        0.0625
     36 H          11.0755    7.8964    0.1284 H       1  LIG1        0.0618
@<TRIPOS>BOND
     1    11     7    1
     2     8     6    1
     3     7     6   ar
     4     7     4   ar
     5     6     3   ar
     6    18    14    1
     7    17    13    1
     8    24    20    1
     9    14    13   ar
    10    14    15   ar
    11    13    12   ar
    12    20    21   ar
    13    20    19   ar
    14    25    21    1
    15    21    22   ar
    16    15    19    1
    17    15    16   ar
    18    19    23   ar
    19    12     4    1
    20    12    16   ar
    21    22    23   ar
    22    22    28    1
    23     4     2   ar
    24    33    31    1
    25    28    31   ar
    26    28    26   ar
    27    31    32   ar
    28     3     9    1
    29     3     1   ar
    30    35    26    1
    31    26    27   ar
    32    32    36    1
    33    32    29   ar
    34    27    29   ar
    35    27    30    1
    36    29    34    1
    37     2     1   ar
    38     2     5    1
    39     1    10    1
