@<TRIPOS>MOLECULE
mol_data/opt/cam/geoms/mol2/4513-13.out
 35 38 0 0 0
SMALL
GASTEIGER

@<TRIPOS>ATOM
      1 C          -0.2172    0.0536    0.0022 C.ar    1  LIG1       -0.0612
      2 C           1.1679   -0.0033    0.0016 C.ar    1  LIG1       -0.0535
      3 C          -0.8722    1.2805    0.0011 C.ar    1  LIG1       -0.0617
      4 C           1.9377    1.1672   -0.0002 C.ar    1  LIG1       -0.0113
      5 H           1.6566   -0.9711    0.0026 H       1  LIG1        0.0624
      6 C          -0.1222    2.4498   -0.0006 C.ar    1  LIG1       -0.0612
      7 C           1.2644    2.3940   -0.0013 C.ar    1  LIG1       -0.0535
      8 H          -0.6176    3.4153   -0.0015 H       1  LIG1        0.0618
      9 H          -1.9562    1.3235    0.0016 H       1  LIG1        0.0618
     10 H          -0.7893   -0.8687    0.0036 H       1  LIG1        0.0618
     11 H           1.8289    3.3210   -0.0028 H       1  LIG1        0.0624
     12 C           3.4045    1.0960   -0.0009 C.ar    1  LIG1        0.0200
     13 C           4.2091   -0.0100   -0.0021 C.ar    1  LIG1       -0.0463
     14 C           5.5958    0.2873   -0.0025 C.ar    1  LIG1       -0.0449
     15 C           5.8643    1.6307   -0.0015 C.ar    1  LIG1        0.0361
     16 S           4.3843    2.5405   -0.0001 S.2     1  LIG1       -0.0868
     17 H           3.8282   -1.0233   -0.0030 H       1  LIG1        0.0629
     18 H           6.3608   -0.4804   -0.0036 H       1  LIG1        0.0630
     19 C           7.1430    2.3062   -0.0015 C.ar    1  LIG1        0.0536
     20 C           7.4630    3.6496   -0.0016 C.ar    1  LIG1       -0.0353
     21 C           8.8704    3.7590   -0.0015 C.ar    1  LIG1       -0.0344
     22 C           9.3927    2.4789   -0.0015 C.ar    1  LIG1        0.0633
     23 N           8.3315    1.6132   -0.0015 N.ar    1  LIG1       -0.3526
     24 H           8.4161    0.6109   -0.0010 H       1  LIG1        0.1660
     25 H           6.7533    4.4641   -0.0018 H       1  LIG1        0.0639
     26 H           9.4370    4.6793   -0.0017 H       1  LIG1        0.0639
     27 C          10.7597    2.0029   -0.0014 C.ar    1  LIG1        0.0629
     28 C          11.2824    0.7249   -0.0026 C.ar    1  LIG1       -0.0350
     29 C          12.6958    0.8357   -0.0021 C.ar    1  LIG1       -0.0438
     30 C          13.0006    2.1726   -0.0001 C.ar    1  LIG1        0.0022
     31 N          11.8234    2.8706    0.0001 N.ar    1  LIG1       -0.3595
     32 H          11.7421    3.8733    0.0013 H       1  LIG1        0.1654
     33 H          13.9517    2.6820    0.0011 H       1  LIG1        0.0807
     34 H          10.7151   -0.1953   -0.0040 H       1  LIG1        0.0639
     35 H          13.4073    0.0234   -0.0029 H       1  LIG1        0.0633
@<TRIPOS>BOND
     1    34    28    1
     2    18    14    1
     3    17    13    1
     4    35    29    1
     5    11     7    1
     6    28    29   ar
     7    28    27   ar
     8    14    13   ar
     9    14    15   ar
    10    13    12   ar
    11    29    30   ar
    12    25    20    1
    13    26    21    1
    14    20    21   ar
    15    20    19   ar
    16    21    22   ar
    17    19    15    1
    18    19    23   ar
    19     8     6    1
    20    22    23   ar
    21    22    27    1
    22    15    16   ar
    23    23    24    1
    24    27    31   ar
    25     7     6   ar
    26     7     4   ar
    27    12     4    1
    28    12    16   ar
    29     6     3   ar
    30     4     2   ar
    31    30    31   ar
    32    30    33    1
    33    31    32    1
    34     3     9    1
    35     3     1   ar
    36     2     1   ar
    37     2     5    1
    38     1    10    1
