@<TRIPOS>MOLECULE
mol_data/opt/cam/geoms/mol2/4513-.out
 27 29 0 0 0
SMALL
GASTEIGER

@<TRIPOS>ATOM
      1 C          -0.1236    0.0399    0.0022 C.ar    1  LIG1       -0.0612
      2 C           1.2619   -0.0110    0.0017 C.ar    1  LIG1       -0.0535
      3 C          -0.7839    1.2638    0.0009 C.ar    1  LIG1       -0.0617
      4 C           2.0265    1.1628   -0.0004 C.ar    1  LIG1       -0.0113
      5 H           1.7548   -0.9766    0.0029 H       1  LIG1        0.0624
      6 C          -0.0389    2.4364   -0.0010 C.ar    1  LIG1       -0.0612
      7 C           1.3479    2.3866   -0.0017 C.ar    1  LIG1       -0.0535
      8 H          -0.5386    3.3997   -0.0021 H       1  LIG1        0.0618
      9 H          -1.8681    1.3022    0.0014 H       1  LIG1        0.0618
     10 H          -0.6917   -0.8849    0.0038 H       1  LIG1        0.0618
     11 H           1.9081    3.3163   -0.0034 H       1  LIG1        0.0624
     12 C           3.4939    1.0986   -0.0011 C.ar    1  LIG1        0.0200
     13 C           4.3036   -0.0036   -0.0029 C.ar    1  LIG1       -0.0463
     14 C           5.6892    0.3012   -0.0030 C.ar    1  LIG1       -0.0449
     15 C           5.9508    1.6452   -0.0013 C.ar    1  LIG1        0.0360
     16 S           4.4670    2.5473    0.0004 S.2     1  LIG1       -0.0868
     17 H           3.9277   -1.0188   -0.0043 H       1  LIG1        0.0629
     18 H           6.4581   -0.4627   -0.0045 H       1  LIG1        0.0630
     19 C           7.2282    2.3290   -0.0009 C.ar    1  LIG1        0.0531
     20 C           7.5404    3.6740   -0.0006 C.ar    1  LIG1       -0.0359
     21 C           8.9512    3.7917    0.0001 C.ar    1  LIG1       -0.0438
     22 C           9.4668    2.5198   -0.0006 C.ar    1  LIG1        0.0022
     23 N           8.4193    1.6415   -0.0009 N.ar    1  LIG1       -0.3603
     24 H           8.5054    0.6395   -0.0009 H       1  LIG1        0.1653
     25 H          10.4877    2.1701   -0.0007 H       1  LIG1        0.0807
     26 H           6.8247    4.4835   -0.0006 H       1  LIG1        0.0639
     27 H           9.5237    4.7072    0.0006 H       1  LIG1        0.0633
@<TRIPOS>BOND
     1    18    14    1
     2    17    13    1
     3    11     7    1
     4    14    13   ar
     5    14    15   ar
     6    13    12   ar
     7     8     6    1
     8     7     6   ar
     9     7     4   ar
    10    15    19    1
    11    15    16   ar
    12    12     4    1
    13    12    16   ar
    14     6     3   ar
    15    23    24    1
    16    23    19   ar
    17    23    22   ar
    18    19    20   ar
    19    25    22    1
    20    22    21   ar
    21    26    20    1
    22    20    21   ar
    23     4     2   ar
    24    21    27    1
    25     3     9    1
    26     3     1   ar
    27     2     1   ar
    28     2     5    1
    29     1    10    1
