@<TRIPOS>MOLECULE
mol_data/opt/cam/geoms/mol2/455-.out
 26 28 0 0 0
SMALL
GASTEIGER

@<TRIPOS>ATOM
      1 C          -0.1143    0.0182    0.0015 C.ar    1  LIG1       -0.0612
      2 C           1.2717   -0.0166    0.0011 C.ar    1  LIG1       -0.0535
      3 C          -0.7884    1.2345    0.0006 C.ar    1  LIG1       -0.0617
      4 C           2.0220    1.1662   -0.0003 C.ar    1  LIG1       -0.0113
      5 H           1.7757   -0.9764    0.0021 H       1  LIG1        0.0624
      6 C          -0.0575    2.4160   -0.0008 C.ar    1  LIG1       -0.0612
      7 C           1.3297    2.3822   -0.0013 C.ar    1  LIG1       -0.0535
      8 H          -0.5685    3.3732   -0.0016 H       1  LIG1        0.0618
      9 H          -1.8729    1.2603    0.0009 H       1  LIG1        0.0618
     10 H          -0.6716   -0.9130    0.0027 H       1  LIG1        0.0618
     11 H           1.8791    3.3183   -0.0025 H       1  LIG1        0.0624
     12 C           3.4903    1.1182   -0.0008 C.ar    1  LIG1        0.0199
     13 C           4.3112    0.0233   -0.0024 C.ar    1  LIG1       -0.0463
     14 C           5.6922    0.3421   -0.0024 C.ar    1  LIG1       -0.0458
     15 C           5.9401    1.6877   -0.0009 C.ar    1  LIG1        0.0265
     16 S           4.4454    2.5768    0.0008 S.2     1  LIG1       -0.0877
     17 H           3.9455   -0.9953   -0.0037 H       1  LIG1        0.0629
     18 H           6.4773   -0.4047   -0.0037 H       1  LIG1        0.0629
     19 C           7.2175    2.3781   -0.0004 C.ar    1  LIG1        0.0259
     20 C           7.4634    3.7248    0.0001 C.ar    1  LIG1       -0.0464
     21 C           8.8495    4.0453    0.0005 C.ar    1  LIG1       -0.0541
     22 C           9.6431    2.9413    0.0003 C.ar    1  LIG1       -0.0237
     23 S           8.7146    1.4880   -0.0008 S.2     1  LIG1       -0.0961
     24 H          10.7222    2.8919    0.0006 H       1  LIG1        0.0693
     25 H           6.6757    4.4688    0.0002 H       1  LIG1        0.0629
     26 H           9.2334    5.0578    0.0010 H       1  LIG1        0.0623
@<TRIPOS>BOND
     1    18    14    1
     2    17    13    1
     3    11     7    1
     4    14    13   ar
     5    14    15   ar
     6    13    12   ar
     7     8     6    1
     8     7     6   ar
     9     7     4   ar
    10    15    19    1
    11    15    16   ar
    12     6     3   ar
    13    12     4    1
    14    12    16   ar
    15    23    19   ar
    16    23    22   ar
    17    19    20   ar
    18     4     2   ar
    19    20    25    1
    20    20    21   ar
    21    22    21   ar
    22    22    24    1
    23    21    26    1
    24     3     9    1
    25     3     1   ar
    26     2     1   ar
    27     2     5    1
    28     1    10    1
