@<TRIPOS>MOLECULE
mol_data/opt/cam/geoms/mol2/455.out
 26 28 0 0 0
SMALL
GASTEIGER

@<TRIPOS>ATOM
      1 C          -0.0683    0.0282    0.3711 C.ar    1  LIG1       -0.0612
      2 C           1.3160    0.0061    0.2811 C.ar    1  LIG1       -0.0535
      3 C          -0.7645    1.2176    0.1849 C.ar    1  LIG1       -0.0617
      4 C           2.0319    1.1722   -0.0121 C.ar    1  LIG1       -0.0113
      5 H           1.8544   -0.9186    0.4590 H       1  LIG1        0.0624
      6 C          -0.0633    2.3843   -0.0962 C.ar    1  LIG1       -0.0612
      7 C           1.3208    2.3622   -0.1982 C.ar    1  LIG1       -0.0535
      8 H          -0.5966    3.3174   -0.2460 H       1  LIG1        0.0618
      9 H          -1.8465    1.2352    0.2616 H       1  LIG1        0.0618
     10 H          -0.6053   -0.8866    0.6002 H       1  LIG1        0.0618
     11 H           1.8562    3.2740   -0.4430 H       1  LIG1        0.0624
     12 C           3.4957    1.1288   -0.1233 C.ar    1  LIG1        0.0199
     13 C           4.2843    0.0840   -0.5206 C.ar    1  LIG1       -0.0463
     14 C           5.6700    0.3888   -0.5277 C.ar    1  LIG1       -0.0458
     15 C           5.9452    1.6674   -0.1260 C.ar    1  LIG1        0.0265
     16 S           4.4772    2.5078    0.2771 S.2     1  LIG1       -0.0877
     17 H           3.8791   -0.8679   -0.8410 H       1  LIG1        0.0629
     18 H           6.4402   -0.3002   -0.8518 H       1  LIG1        0.0629
     19 C           7.2532    2.2920    0.0002 C.ar    1  LIG1        0.0259
     20 C           8.4343    1.6845    0.3303 C.ar    1  LIG1       -0.0464
     21 C           9.5415    2.5779    0.3404 C.ar    1  LIG1       -0.0541
     22 C           9.1894    3.8542    0.0274 C.ar    1  LIG1       -0.0237
     23 S           7.5033    3.9870   -0.3041 S.2     1  LIG1       -0.0961
     24 H           9.8221    4.7283   -0.0268 H       1  LIG1        0.0693
     25 H           8.4991    0.6336    0.5832 H       1  LIG1        0.0629
     26 H          10.5539    2.2808    0.5841 H       1  LIG1        0.0623
@<TRIPOS>BOND
     1    18    14    1
     2    17    13    1
     3    14    13   ar
     4    14    15   ar
     5    13    12   ar
     6    11     7    1
     7    23    19   ar
     8    23    22   ar
     9     8     6    1
    10     7     6   ar
    11     7     4   ar
    12    15    19    1
    13    15    16   ar
    14    12     4    1
    15    12    16   ar
    16     6     3   ar
    17    24    22    1
    18     4     2   ar
    19    19    20   ar
    20    22    21   ar
    21     3     9    1
    22     3     1   ar
    23     2     1   ar
    24     2     5    1
    25    20    21   ar
    26    20    25    1
    27    21    26    1
    28     1    10    1
