@<TRIPOS>MOLECULE
mol_data/opt/cam/geoms/mol2/4554-.out
 36 39 0 0 0
SMALL
GASTEIGER

@<TRIPOS>ATOM
      1 C          -0.1406   -0.1359    0.4514 C.ar    1  LIG1       -0.0612
      2 C           1.2349   -0.1213    0.2713 C.ar    1  LIG1       -0.0535
      3 C          -0.8611    1.0536    0.4498 C.ar    1  LIG1       -0.0617
      4 C           1.9168    1.0843    0.0706 C.ar    1  LIG1       -0.0113
      5 H           1.7943   -1.0501    0.3054 H       1  LIG1        0.0624
      6 C          -0.1931    2.2580    0.2623 C.ar    1  LIG1       -0.0612
      7 C           1.1814    2.2740    0.0703 C.ar    1  LIG1       -0.0535
      8 H          -0.7457    3.1919    0.2566 H       1  LIG1        0.0618
      9 H          -1.9359    1.0417    0.5968 H       1  LIG1        0.0618
     10 H          -0.6510   -1.0810    0.6061 H       1  LIG1        0.0618
     11 H           1.6892    3.2180   -0.1001 H       1  LIG1        0.0624
     12 C           3.3702    1.0815   -0.1391 C.ar    1  LIG1        0.0199
     13 C           4.1425    0.1041   -0.7047 C.ar    1  LIG1       -0.0463
     14 C           5.5208    0.4337   -0.7671 C.ar    1  LIG1       -0.0458
     15 C           5.8081    1.6634   -0.2390 C.ar    1  LIG1        0.0265
     16 S           4.3605    2.4240    0.3532 S.2     1  LIG1       -0.0877
     17 H           3.7276   -0.8122   -1.1061 H       1  LIG1        0.0629
     18 H           6.2745   -0.1994   -1.2186 H       1  LIG1        0.0629
     19 C           7.1135    2.2930   -0.1277 C.ar    1  LIG1        0.0265
     20 C           8.3257    1.6731    0.0140 C.ar    1  LIG1       -0.0458
     21 C           9.4164    2.5785    0.0661 C.ar    1  LIG1       -0.0463
     22 C           9.0441    3.8918   -0.0243 C.ar    1  LIG1        0.0199
     23 S           7.3172    4.0192   -0.1906 S.2     1  LIG1       -0.0877
     24 H           8.4269    0.5979    0.0944 H       1  LIG1        0.0629
     25 H          10.4497    2.2661    0.1535 H       1  LIG1        0.0629
     26 C           9.5432    6.2607   -0.6551 C.ar    1  LIG1       -0.0535
     27 C          10.3686    7.3760   -0.6182 C.ar    1  LIG1       -0.0612
     28 C           9.9014    5.0839    0.0107 C.ar    1  LIG1       -0.0113
     29 C          11.5718    7.3351    0.0764 C.ar    1  LIG1       -0.0617
     30 H          10.0730    8.2787   -1.1429 H       1  LIG1        0.0618
     31 C          11.1100    5.0584    0.7157 C.ar    1  LIG1       -0.0535
     32 C          11.9391    6.1703    0.7414 C.ar    1  LIG1       -0.0612
     33 H          11.3884    4.1645    1.2636 H       1  LIG1        0.0624
     34 H          12.2181    8.2061    0.1022 H       1  LIG1        0.0618
     35 H           8.6181    6.2962   -1.2219 H       1  LIG1        0.0624
     36 H          12.8719    6.1307    1.2947 H       1  LIG1        0.0618
@<TRIPOS>BOND
     1    35    26    1
     2    18    14    1
     3    30    27    1
     4    17    13    1
     5    14    13   ar
     6    14    15   ar
     7    13    12   ar
     8    26    27   ar
     9    26    28   ar
    10    27    29   ar
    11    15    19    1
    12    15    16   ar
    13    23    19   ar
    14    23    22   ar
    15    12     4    1
    16    12    16   ar
    17    19    20   ar
    18    11     7    1
    19    22    28    1
    20    22    21   ar
    21    28    31   ar
    22    20    21   ar
    23    20    24    1
    24    21    25    1
    25     7     4   ar
    26     7     6   ar
    27     4     2   ar
    28    29    34    1
    29    29    32   ar
    30     8     6    1
    31     6     3   ar
    32     2     5    1
    33     2     1   ar
    34     3     1   ar
    35     3     9    1
    36     1    10    1
    37    31    32   ar
    38    31    33    1
    39    32    36    1
