@<TRIPOS>MOLECULE
mol_data/opt/cam/geoms/mol2/4555-.out
 33 36 0 0 0
SMALL
GASTEIGER

@<TRIPOS>ATOM
      1 C          -0.1448   -0.0788    0.3417 C.ar    1  LIG1       -0.0612
      2 C           1.2409   -0.0782    0.2767 C.ar    1  LIG1       -0.0535
      3 C          -0.8586    1.0924    0.1117 C.ar    1  LIG1       -0.0617
      4 C           1.9413    1.0927   -0.0348 C.ar    1  LIG1       -0.0113
      5 H           1.7921   -0.9882    0.4885 H       1  LIG1        0.0624
      6 C          -0.1732    2.2639   -0.1878 C.ar    1  LIG1       -0.0612
      7 C           1.2126    2.2642   -0.2648 C.ar    1  LIG1       -0.0535
      8 H          -0.7201    3.1829   -0.3718 H       1  LIG1        0.0618
      9 H          -1.9420    1.0923    0.1686 H       1  LIG1        0.0618
     10 H          -0.6696   -0.9968    0.5855 H       1  LIG1        0.0618
     11 H           1.7360    3.1790   -0.5245 H       1  LIG1        0.0624
     12 C           3.4071    1.0731   -0.1203 C.ar    1  LIG1        0.0199
     13 C           4.2217    0.0318   -0.4730 C.ar    1  LIG1       -0.0463
     14 C           5.6009    0.3619   -0.4678 C.ar    1  LIG1       -0.0458
     15 C           5.8461    1.6577   -0.1005 C.ar    1  LIG1        0.0265
     16 S           4.3562    2.4819    0.2536 S.2     1  LIG1       -0.0877
     17 H           3.8396   -0.9368   -0.7708 H       1  LIG1        0.0629
     18 H           6.3881   -0.3221   -0.7598 H       1  LIG1        0.0629
     19 C           7.1385    2.3093    0.0250 C.ar    1  LIG1        0.0265
     20 C           8.3343    1.7291    0.3533 C.ar    1  LIG1       -0.0458
     21 C           9.4161    2.6451    0.3778 C.ar    1  LIG1       -0.0458
     22 C           9.0491    3.9288    0.0756 C.ar    1  LIG1        0.0265
     23 S           7.3480    4.0102   -0.2785 S.2     1  LIG1       -0.0872
     24 H           8.4253    0.6798    0.6046 H       1  LIG1        0.0629
     25 H          10.4299    2.3714    0.6444 H       1  LIG1        0.0629
     26 C           9.8749    5.1228    0.0223 C.ar    1  LIG1        0.0259
     27 C           9.4961    6.4312    0.1569 C.ar    1  LIG1       -0.0464
     28 C          10.5824    7.3440    0.0515 C.ar    1  LIG1       -0.0541
     29 C          11.7730    6.7213   -0.1597 C.ar    1  LIG1       -0.0237
     30 S          11.5900    5.0090   -0.2503 S.2     1  LIG1       -0.0961
     31 H          12.7507    7.1672   -0.2702 H       1  LIG1        0.0693
     32 H           8.4724    6.7302    0.3472 H       1  LIG1        0.0629
     33 H          10.4773    8.4181    0.1389 H       1  LIG1        0.0623
@<TRIPOS>BOND
     1    17    13    1
     2    18    14    1
     3    11     7    1
     4    13    14   ar
     5    13    12   ar
     6    14    15   ar
     7     8     6    1
     8    23    19   ar
     9    23    22   ar
    10    31    29    1
    11     7     6   ar
    12     7     4   ar
    13    30    29   ar
    14    30    26   ar
    15     6     3   ar
    16    29    28   ar
    17    12     4    1
    18    12    16   ar
    19    15    19    1
    20    15    16   ar
    21     4     2   ar
    22    26    22    1
    23    26    27   ar
    24    19    20   ar
    25    28    33    1
    26    28    27   ar
    27    22    21   ar
    28     3     9    1
    29     3     1   ar
    30    27    32    1
    31     2     1   ar
    32     2     5    1
    33     1    10    1
    34    20    21   ar
    35    20    24    1
    36    21    25    1
