@<TRIPOS>MOLECULE
mol_data/opt/cam/geoms/mol2/4558.out
 32 35 0 0 0
SMALL
GASTEIGER

@<TRIPOS>ATOM
      1 C          -0.1136   -0.0439    0.3913 C.ar    1  LIG1       -0.0612
      2 C           1.2708   -0.0471    0.3027 C.ar    1  LIG1       -0.0535
      3 C          -0.8268    1.1322    0.1856 C.ar    1  LIG1       -0.0617
      4 C           1.9687    1.1254   -0.0077 C.ar    1  LIG1       -0.0113
      5 H           1.8225   -0.9610    0.4953 H       1  LIG1        0.0624
      6 C          -0.1433    2.3050   -0.1132 C.ar    1  LIG1       -0.0612
      7 C           1.2410    2.3020   -0.2132 C.ar    1  LIG1       -0.0535
      8 H          -0.6904    3.2273   -0.2783 H       1  LIG1        0.0618
      9 H          -1.9090    1.1347    0.2607 H       1  LIG1        0.0618
     10 H          -0.6375   -0.9627    0.6341 H       1  LIG1        0.0618
     11 H           1.7628    3.2178   -0.4725 H       1  LIG1        0.0624
     12 C           3.4329    1.1025   -0.1173 C.ar    1  LIG1        0.0199
     13 C           4.2378    0.0633   -0.5000 C.ar    1  LIG1       -0.0463
     14 C           5.6173    0.3870   -0.5037 C.ar    1  LIG1       -0.0458
     15 C           5.8716    1.6761   -0.1166 C.ar    1  LIG1        0.0265
     16 S           4.3903    2.5002    0.2689 S.2     1  LIG1       -0.0877
     17 H           3.8475   -0.8982   -0.8095 H       1  LIG1        0.0629
     18 H           6.3971   -0.2964   -0.8163 H       1  LIG1        0.0629
     19 C           7.1687    2.3197   -0.0051 C.ar    1  LIG1        0.0266
     20 C           8.3755    1.7054    0.2339 C.ar    1  LIG1       -0.0457
     21 C           9.4584    2.6100    0.2665 C.ar    1  LIG1       -0.0432
     22 C           9.0714    3.9086    0.0614 C.ar    1  LIG1        0.0604
     23 S           7.3610    4.0332   -0.1957 S.2     1  LIG1       -0.0845
     24 H           8.4694    0.6409    0.4063 H       1  LIG1        0.0629
     25 H          10.4900    2.3370    0.4464 H       1  LIG1        0.0630
     26 C           9.9178    5.0842    0.0449 C.ar    1  LIG1        0.2098
     27 N          11.2367    4.9111    0.2454 N.ar    1  LIG1       -0.1253
     28 C          11.3999    7.1520    0.0154 C.ar    1  LIG1        0.1605
     29 N           9.3318    6.2736   -0.1713 N.ar    1  LIG1       -0.1253
     30 N          11.9946    5.9774    0.2295 N.ar    1  LIG1       -0.1339
     31 N          10.0964    7.3363   -0.1860 N.ar    1  LIG1       -0.1339
     32 H          12.0326    8.0317    0.0038 H       1  LIG1        0.1085
@<TRIPOS>BOND
     1    18    14    1
     2    17    13    1
     3    14    13   ar
     4    14    15   ar
     5    13    12   ar
     6    11     7    1
     7     8     6    1
     8     7     6   ar
     9     7     4   ar
    10    23    19   ar
    11    23    22   ar
    12    31    29   ar
    13    31    28   ar
    14    29    26   ar
    15    12     4    1
    16    12    16   ar
    17    15    19    1
    18    15    16   ar
    19     6     3   ar
    20     4     2   ar
    21    19    20   ar
    22    32    28    1
    23    28    30   ar
    24    26    22    1
    25    26    27   ar
    26    22    21   ar
    27     3     9    1
    28     3     1   ar
    29    30    27   ar
    30    20    21   ar
    31    20    24    1
    32    21    25    1
    33     2     1   ar
    34     2     5    1
    35     1    10    1
