@<TRIPOS>MOLECULE
mol_data/opt/cam/geoms/mol2/458-.out
 25 27 0 0 0
SMALL
GASTEIGER

@<TRIPOS>ATOM
      1 C          -0.0470    0.0712    0.4106 C.ar    1  LIG1       -0.0612
      2 C           1.3389    0.0475    0.3556 C.ar    1  LIG1       -0.0535
      3 C          -0.7402    1.2385    0.1094 C.ar    1  LIG1       -0.0617
      4 C           2.0573    1.1901   -0.0133 C.ar    1  LIG1       -0.0113
      5 H           1.8746   -0.8575    0.6212 H       1  LIG1        0.0624
      6 C          -0.0363    2.3818   -0.2503 C.ar    1  LIG1       -0.0612
      7 C           1.3497    2.3582   -0.3148 C.ar    1  LIG1       -0.0535
      8 H          -0.5685    3.2963   -0.4904 H       1  LIG1        0.0618
      9 H          -1.8239    1.2572    0.1572 H       1  LIG1        0.0618
     10 H          -0.5877   -0.8236    0.7010 H       1  LIG1        0.0618
     11 H           1.8885    3.2493   -0.6205 H       1  LIG1        0.0624
     12 C           3.5243    1.1455   -0.0818 C.ar    1  LIG1        0.0200
     13 C           4.3185    0.0635   -0.3719 C.ar    1  LIG1       -0.0462
     14 C           5.6989    0.3644   -0.3540 C.ar    1  LIG1       -0.0432
     15 C           5.9491    1.6766   -0.0499 C.ar    1  LIG1        0.0604
     16 S           4.4823    2.5573    0.2275 S.2     1  LIG1       -0.0850
     17 H           3.9189   -0.9118   -0.6191 H       1  LIG1        0.0629
     18 H           6.4916   -0.3417   -0.5638 H       1  LIG1        0.0630
     19 C           7.2429    2.3222    0.0502 C.ar    1  LIG1        0.2098
     20 N           7.2680    3.6302    0.3546 N.ar    1  LIG1       -0.1253
     21 C           9.5125    3.4589    0.2268 C.ar    1  LIG1        0.1605
     22 N           8.3376    1.5708   -0.1673 N.ar    1  LIG1       -0.1253
     23 N           8.4372    4.2130    0.4456 N.ar    1  LIG1       -0.1339
     24 N           9.5021    2.1598   -0.0760 N.ar    1  LIG1       -0.1339
     25 H          10.4800    3.9413    0.3015 H       1  LIG1        0.1085
@<TRIPOS>BOND
     1    11     7    1
     2    17    13    1
     3    18    14    1
     4     8     6    1
     5    13    14   ar
     6    13    12   ar
     7    14    15   ar
     8     7     6   ar
     9     7     4   ar
    10     6     3   ar
    11    22    24   ar
    12    22    19   ar
    13    12     4    1
    14    12    16   ar
    15    24    21   ar
    16    15    19    1
    17    15    16   ar
    18     4     2   ar
    19    19    20   ar
    20     3     9    1
    21     3     1   ar
    22    21    25    1
    23    21    23   ar
    24    20    23   ar
    25     2     1   ar
    26     2     5    1
    27     1    10    1
