@<TRIPOS>MOLECULE
mol_data/opt/cam/geoms/mol2/458.out
 25 27 0 0 0
SMALL
GASTEIGER

@<TRIPOS>ATOM
      1 C          -0.0471    0.0714    0.4102 C.ar    1  LIG1       -0.0612
      2 C           1.3389    0.0477    0.3558 C.ar    1  LIG1       -0.0535
      3 C          -0.7402    1.2384    0.1078 C.ar    1  LIG1       -0.0617
      4 C           2.0573    1.1900   -0.0137 C.ar    1  LIG1       -0.0113
      5 H           1.8745   -0.8571    0.6224 H       1  LIG1        0.0624
      6 C          -0.0362    2.3815   -0.2525 C.ar    1  LIG1       -0.0612
      7 C           1.3499    2.3579   -0.3164 C.ar    1  LIG1       -0.0535
      8 H          -0.5684    3.2958   -0.4935 H       1  LIG1        0.0618
      9 H          -1.8239    1.2571    0.1550 H       1  LIG1        0.0618
     10 H          -0.5880   -0.8231    0.7010 H       1  LIG1        0.0618
     11 H           1.8888    3.2487   -0.6227 H       1  LIG1        0.0624
     12 C           3.5244    1.1455   -0.0816 C.ar    1  LIG1        0.0200
     13 C           4.3186    0.0632   -0.3707 C.ar    1  LIG1       -0.0462
     14 C           5.6990    0.3642   -0.3524 C.ar    1  LIG1       -0.0432
     15 C           5.9491    1.6764   -0.0489 C.ar    1  LIG1        0.0604
     16 S           4.4822    2.5572    0.2277 S.2     1  LIG1       -0.0850
     17 H           3.9190   -0.9122   -0.6176 H       1  LIG1        0.0629
     18 H           6.4918   -0.3420   -0.5619 H       1  LIG1        0.0630
     19 C           7.2429    2.3221    0.0514 C.ar    1  LIG1        0.2098
     20 N           8.3376    1.5710   -0.1661 N.ar    1  LIG1       -0.1253
     21 C           9.5123    3.4595    0.2272 C.ar    1  LIG1        0.1605
     22 N           7.2677    3.6304    0.3553 N.ar    1  LIG1       -0.1253
     23 N           9.5021    2.1604   -0.0752 N.ar    1  LIG1       -0.1339
     24 N           8.4368    4.2135    0.4458 N.ar    1  LIG1       -0.1339
     25 H          10.4797    3.9422    0.3015 H       1  LIG1        0.1085
@<TRIPOS>BOND
     1    11     7    1
     2    17    13    1
     3    18    14    1
     4     8     6    1
     5    13    14   ar
     6    13    12   ar
     7    14    15   ar
     8     7     6   ar
     9     7     4   ar
    10     6     3   ar
    11    20    23   ar
    12    20    19   ar
    13    12     4    1
    14    12    16   ar
    15    23    21   ar
    16    15    19    1
    17    15    16   ar
    18     4     2   ar
    19    19    22   ar
    20     3     9    1
    21     3     1   ar
    22    21    25    1
    23    21    24   ar
    24    22    24   ar
    25     2     1   ar
    26     2     5    1
    27     1    10    1
