@<TRIPOS>MOLECULE
mol_data/opt/cam/geoms/mol2/48-.out
 18 19 0 0 0
SMALL
GASTEIGER

@<TRIPOS>ATOM
      1 C           0.0147    0.0553    0.0004 C.ar    1  LIG1       -0.0611
      2 C           1.4013    0.0188    0.0002 C.ar    1  LIG1       -0.0509
      3 C          -0.6525    1.2758    0.0002 C.ar    1  LIG1       -0.0617
      4 C           2.1311    1.2101   -0.0002 C.ar    1  LIG1        0.0226
      5 H           1.9317   -0.9255    0.0003 H       1  LIG1        0.0625
      6 C           0.0715    2.4635   -0.0002 C.ar    1  LIG1       -0.0611
      7 C           1.4583    2.4346   -0.0004 C.ar    1  LIG1       -0.0509
      8 H          -0.4462    3.4169   -0.0003 H       1  LIG1        0.0618
      9 H          -1.7374    1.3015    0.0004 H       1  LIG1        0.0618
     10 H          -0.5475   -0.8725    0.0007 H       1  LIG1        0.0618
     11 H           2.0327    3.3529   -0.0007 H       1  LIG1        0.0625
     12 C           3.6061    1.1753   -0.0004 C.ar    1  LIG1        0.2033
     13 N           4.2658    2.3444   -0.0007 N.ar    1  LIG1       -0.1258
     14 C           6.1563    1.1151   -0.0008 C.ar    1  LIG1        0.1605
     15 N           4.2099   -0.0236   -0.0004 N.ar    1  LIG1       -0.1258
     16 N           5.5754    2.3134   -0.0009 N.ar    1  LIG1       -0.1339
     17 N           5.5195   -0.0544   -0.0006 N.ar    1  LIG1       -0.1339
     18 H           7.2400    1.0895   -0.0010 H       1  LIG1        0.1085
@<TRIPOS>BOND
     1    18    14    1
     2    16    14   ar
     3    16    13   ar
     4    14    17   ar
     5    13    12   ar
     6    11     7    1
     7    17    15   ar
     8    12    15   ar
     9    12     4    1
    10     7     4   ar
    11     7     6   ar
    12     8     6    1
    13     4     2   ar
    14     6     3   ar
    15     2     5    1
    16     2     1   ar
    17     3     9    1
    18     3     1   ar
    19     1    10    1
