@<TRIPOS>MOLECULE
mol_data/opt/cam/geoms/mol2/48-1212-.out
 32 35 0 0 0
SMALL
GASTEIGER

@<TRIPOS>ATOM
      1 C          -0.0511   -0.0457    0.0002 C.ar    1  LIG1       -0.0611
      2 C           1.3360   -0.0348    0.0000 C.ar    1  LIG1       -0.0509
      3 C          -0.7604    1.1509    0.0001 C.ar    1  LIG1       -0.0617
      4 C           2.0258    1.1804   -0.0002 C.ar    1  LIG1        0.0226
      5 H           1.8983   -0.9606    0.0001 H       1  LIG1        0.0625
      6 C          -0.0765    2.3622   -0.0001 C.ar    1  LIG1       -0.0611
      7 C           1.3104    2.3807   -0.0003 C.ar    1  LIG1       -0.0509
      8 H          -0.6263    3.2976   -0.0002 H       1  LIG1        0.0618
      9 H          -1.8455    1.1394    0.0002 H       1  LIG1        0.0618
     10 H          -0.5809   -0.9925    0.0004 H       1  LIG1        0.0618
     11 H           1.8534    3.3179   -0.0005 H       1  LIG1        0.0625
     12 C           3.5004    1.1972   -0.0003 C.ar    1  LIG1        0.2034
     13 N           4.1233    2.3839   -0.0005 N.ar    1  LIG1       -0.1251
     14 C           6.0665    1.2261   -0.0006 C.ar    1  LIG1        0.2381
     15 N           4.1493    0.0200   -0.0003 N.ar    1  LIG1       -0.1251
     16 N           5.4298    2.4062   -0.0006 N.ar    1  LIG1       -0.1220
     17 N           5.4511    0.0307   -0.0005 N.ar    1  LIG1       -0.1220
     18 C           7.5122    1.2065   -0.0007 C.ar    1  LIG1        0.1761
     19 C           8.4064    0.1747   -0.0007 C.ar    1  LIG1       -0.0119
     20 C           9.6960    0.7628   -0.0009 C.ar    1  LIG1       -0.0121
     21 C           9.4937    2.1155   -0.0010 C.ar    1  LIG1        0.1707
     22 O           8.1714    2.3969   -0.0008 O.2     1  LIG1       -0.4485
     23 H           8.1510   -0.8736   -0.0006 H       1  LIG1        0.0657
     24 H          10.6530    0.2652   -0.0010 H       1  LIG1        0.0657
     25 C          10.3904    3.2398   -0.0011 C.ar    1  LIG1        0.1697
     26 C          10.1913    4.5870   -0.0012 C.ar    1  LIG1       -0.0128
     27 C          11.4908    5.1765   -0.0014 C.ar    1  LIG1       -0.0232
     28 C          12.3736    4.1477   -0.0013 C.ar    1  LIG1        0.0927
     29 O          11.7210    2.9587   -0.0013 O.2     1  LIG1       -0.4598
     30 H          13.4503    4.0926   -0.0014 H       1  LIG1        0.1029
     31 H           9.2341    5.0854   -0.0011 H       1  LIG1        0.0656
     32 H          11.7316    6.2287   -0.0015 H       1  LIG1        0.0649
@<TRIPOS>BOND
     1    32    27    1
     2    30    28    1
     3    27    28   ar
     4    27    26   ar
     5    28    29   ar
     6    29    25   ar
     7    26    25   ar
     8    26    31    1
     9    25    21    1
    10    24    20    1
    11    21    20   ar
    12    21    22   ar
    13    20    19   ar
    14    22    18   ar
    15    18    19   ar
    16    18    14    1
    17    19    23    1
    18    16    14   ar
    19    16    13   ar
    20    14    17   ar
    21    13    12   ar
    22    17    15   ar
    23    11     7    1
    24    12    15   ar
    25    12     4    1
    26     7     4   ar
    27     7     6   ar
    28     8     6    1
    29     4     2   ar
    30     6     3   ar
    31     2     5    1
    32     2     1   ar
    33     3     1   ar
    34     3     9    1
    35     1    10    1
