@<TRIPOS>MOLECULE
mol_data/opt/cam/geoms/mol2/48-1212.out
 32 35 0 0 0
SMALL
GASTEIGER

@<TRIPOS>ATOM
      1 C          -0.0597   -0.0939    0.0002 C.ar    1  LIG1       -0.0611
      2 C           1.3272   -0.0646    0.0001 C.ar    1  LIG1       -0.0509
      3 C          -0.7846    1.0933    0.0001 C.ar    1  LIG1       -0.0617
      4 C           2.0009    1.1595   -0.0002 C.ar    1  LIG1        0.0226
      5 H           1.9016   -0.9830    0.0001 H       1  LIG1        0.0625
      6 C          -0.1167    2.3135   -0.0001 C.ar    1  LIG1       -0.0611
      7 C           1.2699    2.3503   -0.0003 C.ar    1  LIG1       -0.0509
      8 H          -0.6787    3.2416   -0.0002 H       1  LIG1        0.0618
      9 H          -1.8695    1.0675    0.0002 H       1  LIG1        0.0618
     10 H          -0.5770   -1.0476    0.0004 H       1  LIG1        0.0618
     11 H           1.8006    3.2945   -0.0005 H       1  LIG1        0.0625
     12 C           3.4752    1.1957   -0.0003 C.ar    1  LIG1        0.2034
     13 N           4.0821    2.3907   -0.0005 N.ar    1  LIG1       -0.1251
     14 C           6.0404    1.2595   -0.0006 C.ar    1  LIG1        0.2381
     15 N           4.1396    0.0274   -0.0003 N.ar    1  LIG1       -0.1251
     16 N           5.3881    2.4309   -0.0006 N.ar    1  LIG1       -0.1220
     17 N           5.4413    0.0561   -0.0005 N.ar    1  LIG1       -0.1220
     18 C           7.4868    1.2565   -0.0007 C.ar    1  LIG1        0.1761
     19 C           8.3883    0.2309   -0.0007 C.ar    1  LIG1       -0.0119
     20 C           9.6713    0.8300   -0.0010 C.ar    1  LIG1       -0.0121
     21 C           9.4597    2.1833   -0.0010 C.ar    1  LIG1        0.1707
     22 O           8.1356    2.4509   -0.0009 O.2     1  LIG1       -0.4485
     23 H           8.1417   -0.8195   -0.0006 H       1  LIG1        0.0657
     24 H          10.6287    0.3318   -0.0010 H       1  LIG1        0.0657
     25 C          10.3665    3.3041   -0.0012 C.ar    1  LIG1        0.1697
     26 C          11.7281    3.3848   -0.0013 C.ar    1  LIG1       -0.0128
     27 C          12.0429    4.7752   -0.0014 C.ar    1  LIG1       -0.0232
     28 C          10.8547    5.4292   -0.0015 C.ar    1  LIG1        0.0927
     29 O           9.8258    4.5495   -0.0012 O.2     1  LIG1       -0.4598
     30 H          10.5806    6.4719   -0.0016 H       1  LIG1        0.1029
     31 H          12.4192    2.5554   -0.0013 H       1  LIG1        0.0656
     32 H          13.0244    5.2243   -0.0015 H       1  LIG1        0.0649
@<TRIPOS>BOND
     1    30    28    1
     2    32    27    1
     3    28    27   ar
     4    28    29   ar
     5    27    26   ar
     6    26    31    1
     7    26    25   ar
     8    29    25   ar
     9    25    21    1
    10    24    20    1
    11    21    20   ar
    12    21    22   ar
    13    20    19   ar
    14    22    18   ar
    15    18    19   ar
    16    18    14    1
    17    19    23    1
    18    16    14   ar
    19    16    13   ar
    20    14    17   ar
    21    13    12   ar
    22    11     7    1
    23    17    15   ar
    24    12    15   ar
    25    12     4    1
    26     7     4   ar
    27     7     6   ar
    28     8     6    1
    29     4     2   ar
    30     6     3   ar
    31     2     5    1
    32     2     1   ar
    33     3     1   ar
    34     3     9    1
    35     1    10    1
