@<TRIPOS>MOLECULE
mol_data/opt/cam/geoms/mol2/48-13.out
 26 28 0 0 0
SMALL
GASTEIGER

@<TRIPOS>ATOM
      1 C          -0.0403    0.0740    0.0002 C.ar    1  LIG1       -0.0611
      2 C           1.3461    0.0245    0.0001 C.ar    1  LIG1       -0.0509
      3 C          -0.6972    1.2999    0.0000 C.ar    1  LIG1       -0.0617
      4 C           2.0884    1.2081   -0.0002 C.ar    1  LIG1        0.0226
      5 H           1.8675   -0.9248    0.0002 H       1  LIG1        0.0625
      6 C           0.0390    2.4800   -0.0003 C.ar    1  LIG1       -0.0611
      7 C           1.4255    2.4380   -0.0003 C.ar    1  LIG1       -0.0509
      8 H          -0.4694    3.4385   -0.0004 H       1  LIG1        0.0618
      9 H          -1.7818    1.3357    0.0001 H       1  LIG1        0.0618
     10 H          -0.6106   -0.8490    0.0004 H       1  LIG1        0.0618
     11 H           2.0079    3.3512   -0.0006 H       1  LIG1        0.0625
     12 C           3.5631    1.1594   -0.0003 C.ar    1  LIG1        0.2034
     13 N           4.2388    2.3161   -0.0005 N.ar    1  LIG1       -0.1252
     14 C           6.1334    1.0627   -0.0004 C.ar    1  LIG1        0.2194
     15 N           4.1589   -0.0460   -0.0001 N.ar    1  LIG1       -0.1252
     16 N           5.5438    2.2696   -0.0006 N.ar    1  LIG1       -0.1237
     17 N           5.4599   -0.1023   -0.0002 N.ar    1  LIG1       -0.1237
     18 C           7.5748    1.0300   -0.0005 C.ar    1  LIG1        0.0875
     19 C           8.4693   -0.0233   -0.0004 C.ar    1  LIG1       -0.0333
     20 C           9.7656    0.5324   -0.0006 C.ar    1  LIG1       -0.0437
     21 C           9.6254    1.9051   -0.0008 C.ar    1  LIG1        0.0023
     22 N           8.2992    2.1959   -0.0007 N.ar    1  LIG1       -0.3582
     23 H           7.8682    3.1076   -0.0008 H       1  LIG1        0.1654
     24 H          10.3701    2.6864   -0.0009 H       1  LIG1        0.0807
     25 H           8.1969   -1.0676   -0.0002 H       1  LIG1        0.0640
     26 H          10.7013   -0.0064   -0.0006 H       1  LIG1        0.0633
@<TRIPOS>BOND
     1    24    21    1
     2    23    22    1
     3    21    22   ar
     4    21    20   ar
     5    22    18   ar
     6    26    20    1
     7    20    19   ar
     8    16    13   ar
     9    16    14   ar
    10    11     7    1
    11    18    14    1
    12    18    19   ar
    13    13    12   ar
    14    14    17   ar
    15    19    25    1
    16     8     6    1
    17     7     6   ar
    18     7     4   ar
    19    12     4    1
    20    12    15   ar
    21     6     3   ar
    22    17    15   ar
    23     4     2   ar
    24     3     9    1
    25     3     1   ar
    26     2     1   ar
    27     2     5    1
    28     1    10    1
