@<TRIPOS>MOLECULE
mol_data/opt/cam/geoms/mol2/48-12.out
 25 27 0 0 0
SMALL
GASTEIGER

@<TRIPOS>ATOM
      1 C           0.0016    0.0271    0.0003 C.ar    1  LIG1       -0.0611
      2 C           1.3887    0.0145    0.0002 C.ar    1  LIG1       -0.0509
      3 C          -0.6871    1.2357    0.0002 C.ar    1  LIG1       -0.0617
      4 C           2.0989    1.2177   -0.0002 C.ar    1  LIG1        0.0226
      5 H           1.9350   -0.9208    0.0003 H       1  LIG1        0.0625
      6 C           0.0172    2.4352   -0.0002 C.ar    1  LIG1       -0.0611
      7 C           1.4043    2.4301   -0.0003 C.ar    1  LIG1       -0.0509
      8 H          -0.5165    3.3798   -0.0003 H       1  LIG1        0.0618
      9 H          -1.7723    1.2427    0.0003 H       1  LIG1        0.0618
     10 H          -0.5443   -0.9105    0.0006 H       1  LIG1        0.0618
     11 H           1.9631    3.3581   -0.0006 H       1  LIG1        0.0625
     12 C           3.5737    1.2090   -0.0004 C.ar    1  LIG1        0.2034
     13 N           4.2169    2.3849   -0.0006 N.ar    1  LIG1       -0.1251
     14 C           6.1395    1.1941   -0.0007 C.ar    1  LIG1        0.2381
     15 N           4.2020    0.0212   -0.0003 N.ar    1  LIG1       -0.1251
     16 N           5.5239    2.3841   -0.0008 N.ar    1  LIG1       -0.1220
     17 N           5.5046    0.0104   -0.0005 N.ar    1  LIG1       -0.1220
     18 C           7.5885    1.1487   -0.0009 C.ar    1  LIG1        0.1751
     19 C           8.4586    0.0988   -0.0008 C.ar    1  LIG1       -0.0126
     20 C           9.7627    0.6679   -0.0010 C.ar    1  LIG1       -0.0232
     21 C           9.5820    2.0147   -0.0013 C.ar    1  LIG1        0.0927
     22 O           8.2689    2.3241   -0.0011 O.2     1  LIG1       -0.4597
     23 H          10.2619    2.8519   -0.0015 H       1  LIG1        0.1029
     24 H           8.1832   -0.9443   -0.0006 H       1  LIG1        0.0656
     25 H          10.7073    0.1457   -0.0011 H       1  LIG1        0.0649
@<TRIPOS>BOND
     1    23    21    1
     2    21    22   ar
     3    21    20   ar
     4    22    18   ar
     5    25    20    1
     6    20    19   ar
     7    18    19   ar
     8    18    14    1
     9    19    24    1
    10    16    14   ar
    11    16    13   ar
    12    14    17   ar
    13    13    12   ar
    14    11     7    1
    15    17    15   ar
    16    12    15   ar
    17    12     4    1
    18     7     4   ar
    19     7     6   ar
    20     8     6    1
    21     4     2   ar
    22     6     3   ar
    23     2     5    1
    24     2     1   ar
    25     3     9    1
    26     3     1   ar
    27     1    10    1
