@<TRIPOS>MOLECULE
mol_data/opt/cam/geoms/mol2/48-1213.out
 33 36 0 0 0
SMALL
GASTEIGER

@<TRIPOS>ATOM
      1 C          -0.0612   -0.0344   -0.0000 C.ar    1  LIG1       -0.0611
      2 C           1.3260   -0.0327   -0.0001 C.ar    1  LIG1       -0.0509
      3 C          -0.7625    1.1667    0.0000 C.ar    1  LIG1       -0.0617
      4 C           2.0241    1.1776   -0.0002 C.ar    1  LIG1        0.0226
      5 H           1.8820   -0.9623   -0.0001 H       1  LIG1        0.0625
      6 C          -0.0704    2.3733   -0.0001 C.ar    1  LIG1       -0.0611
      7 C           1.3166    2.3825   -0.0002 C.ar    1  LIG1       -0.0509
      8 H          -0.6139    3.3123   -0.0001 H       1  LIG1        0.0618
      9 H          -1.8477    1.1625    0.0001 H       1  LIG1        0.0618
     10 H          -0.5972   -0.9776    0.0001 H       1  LIG1        0.0618
     11 H           1.8657    3.3162   -0.0003 H       1  LIG1        0.0625
     12 C           3.4990    1.1841   -0.0003 C.ar    1  LIG1        0.2034
     13 N           4.1309    2.3656   -0.0004 N.ar    1  LIG1       -0.1251
     14 C           6.0669    1.1927   -0.0005 C.ar    1  LIG1        0.2381
     15 N           4.1396    0.0018   -0.0004 N.ar    1  LIG1       -0.1251
     16 N           5.4380    2.3782   -0.0005 N.ar    1  LIG1       -0.1220
     17 N           5.4410    0.0013   -0.0005 N.ar    1  LIG1       -0.1220
     18 C           7.5094    1.1665   -0.0007 C.ar    1  LIG1        0.1760
     19 C           8.4078    0.1389   -0.0007 C.ar    1  LIG1       -0.0120
     20 C           9.6965    0.7281   -0.0008 C.ar    1  LIG1       -0.0137
     21 C           9.5000    2.0835   -0.0008 C.ar    1  LIG1        0.1519
     22 O           8.1722    2.3583   -0.0007 O.2     1  LIG1       -0.4501
     23 H           8.1556   -0.9103   -0.0007 H       1  LIG1        0.0657
     24 H          10.6494    0.2219   -0.0009 H       1  LIG1        0.0656
     25 C          10.3745    3.2263   -0.0009 C.ar    1  LIG1        0.0821
     26 C          11.7515    3.3324   -0.0011 C.ar    1  LIG1       -0.0334
     27 C          12.0675    4.7105   -0.0010 C.ar    1  LIG1       -0.0437
     28 C          10.8800    5.4052   -0.0009 C.ar    1  LIG1        0.0023
     29 N           9.8615    4.4996   -0.0008 N.ar    1  LIG1       -0.3583
     30 H           8.8746    4.7041   -0.0007 H       1  LIG1        0.1654
     31 H          10.6842    6.4664   -0.0009 H       1  LIG1        0.0807
     32 H          12.4468    2.5059   -0.0012 H       1  LIG1        0.0640
     33 H          13.0552    5.1467   -0.0011 H       1  LIG1        0.0633
@<TRIPOS>BOND
     1    32    26    1
     2    33    27    1
     3    26    27   ar
     4    26    25   ar
     5    27    28   ar
     6    24    20    1
     7    28    31    1
     8    28    29   ar
     9    25    21    1
    10    25    29   ar
    11    20    21   ar
    12    20    19   ar
    13    21    22   ar
    14    29    30    1
    15    19    23    1
    16    19    18   ar
    17    22    18   ar
    18    18    14    1
    19    14    17   ar
    20    14    16   ar
    21    17    15   ar
    22    16    13   ar
    23    15    12   ar
    24    13    12   ar
    25    12     4    1
    26    11     7    1
    27     4     7   ar
    28     4     2   ar
    29     7     6   ar
    30     5     2    1
    31     2     1   ar
    32     6     8    1
    33     6     3   ar
    34     1     3   ar
    35     1    10    1
    36     3     9    1
