@<TRIPOS>MOLECULE
mol_data/opt/cam/geoms/mol2/48-12-.out
 25 27 0 0 0
SMALL
GASTEIGER

@<TRIPOS>ATOM
      1 C          -0.0432    0.0920    0.0003 C.ar    1  LIG1       -0.0611
      2 C           1.3423    0.0257    0.0002 C.ar    1  LIG1       -0.0509
      3 C          -0.6848    1.3263    0.0001 C.ar    1  LIG1       -0.0617
      4 C           2.0984    1.2007   -0.0002 C.ar    1  LIG1        0.0226
      5 H           1.8526   -0.9298    0.0003 H       1  LIG1        0.0625
      6 C           0.0652    2.4977   -0.0002 C.ar    1  LIG1       -0.0611
      7 C           1.4511    2.4389   -0.0003 C.ar    1  LIG1       -0.0509
      8 H          -0.4317    3.4622   -0.0003 H       1  LIG1        0.0618
      9 H          -1.7689    1.3751    0.0003 H       1  LIG1        0.0618
     10 H          -0.6249   -0.8238    0.0006 H       1  LIG1        0.0618
     11 H           2.0449    3.3449   -0.0006 H       1  LIG1        0.0625
     12 C           3.5717    1.1335   -0.0003 C.ar    1  LIG1        0.2034
     13 N           4.2603    2.2874   -0.0006 N.ar    1  LIG1       -0.1251
     14 C           6.1349    1.0163   -0.0006 C.ar    1  LIG1        0.2381
     15 N           4.1535   -0.0740   -0.0002 N.ar    1  LIG1       -0.1251
     16 N           5.5618    2.2311   -0.0007 N.ar    1  LIG1       -0.1220
     17 N           5.4588   -0.1405   -0.0004 N.ar    1  LIG1       -0.1220
     18 C           7.5843    0.9869   -0.0008 C.ar    1  LIG1        0.1751
     19 C           8.5073    1.9906   -0.0011 C.ar    1  LIG1       -0.0126
     20 C           9.7804    1.3551   -0.0011 C.ar    1  LIG1       -0.0232
     21 C           9.5306    0.0194   -0.0009 C.ar    1  LIG1        0.0927
     22 O           8.2032   -0.2220   -0.0008 O.2     1  LIG1       -0.4597
     23 H          10.1664   -0.8517   -0.0008 H       1  LIG1        0.1029
     24 H           8.2860    3.0465   -0.0012 H       1  LIG1        0.0656
     25 H          10.7506    1.8278   -0.0013 H       1  LIG1        0.0649
@<TRIPOS>BOND
     1    25    20    1
     2    24    19    1
     3    20    19   ar
     4    20    21   ar
     5    19    18   ar
     6    21    23    1
     7    21    22   ar
     8    18    22   ar
     9    18    14    1
    10    16    14   ar
    11    16    13   ar
    12    14    17   ar
    13    11     7    1
    14    13    12   ar
    15    17    15   ar
    16    12    15   ar
    17    12     4    1
    18     7     6   ar
    19     7     4   ar
    20     8     6    1
    21     6     3   ar
    22     4     2   ar
    23     3     9    1
    24     3     1   ar
    25     2     5    1
    26     2     1   ar
    27     1    10    1
