@<TRIPOS>MOLECULE
mol_data/opt/cam/geoms/mol2/48-4.out
 28 30 0 0 0
SMALL
GASTEIGER

@<TRIPOS>ATOM
      1 C          -0.0550    0.0514    0.0001 C.ar    1  LIG1       -0.0611
      2 C           1.3316    0.0165    0.0002 C.ar    1  LIG1       -0.0509
      3 C          -0.7242    1.2708   -0.0003 C.ar    1  LIG1       -0.0617
      4 C           2.0608    1.2082   -0.0001 C.ar    1  LIG1        0.0226
      5 H           1.8633   -0.9273    0.0005 H       1  LIG1        0.0625
      6 C          -0.0009    2.4590   -0.0006 C.ar    1  LIG1       -0.0611
      7 C           1.3859    2.4316   -0.0005 C.ar    1  LIG1       -0.0509
      8 H          -0.5195    3.4119   -0.0009 H       1  LIG1        0.0618
      9 H          -1.8091    1.2952   -0.0004 H       1  LIG1        0.0618
     10 H          -0.6159   -0.8773    0.0003 H       1  LIG1        0.0618
     11 H           1.9594    3.3504   -0.0007 H       1  LIG1        0.0625
     12 C           3.5354    1.1751   -0.0000 C.ar    1  LIG1        0.2034
     13 N           4.1983    2.3409   -0.0003 N.ar    1  LIG1       -0.1252
     14 C           6.1128    1.1172    0.0001 C.ar    1  LIG1        0.2034
     15 N           4.1453   -0.0193    0.0003 N.ar    1  LIG1       -0.1252
     16 N           5.5029    2.3116   -0.0002 N.ar    1  LIG1       -0.1252
     17 N           5.4499   -0.0487    0.0003 N.ar    1  LIG1       -0.1252
     18 C           8.2623   -0.1393    0.0006 C.ar    1  LIG1       -0.0509
     19 C           9.6491   -0.1668    0.0007 C.ar    1  LIG1       -0.0611
     20 C           7.5874    1.0840    0.0002 C.ar    1  LIG1        0.0226
     21 C          10.3724    1.0214    0.0004 C.ar    1  LIG1       -0.0617
     22 H          10.1677   -1.1197    0.0010 H       1  LIG1        0.0618
     23 C           8.3166    2.2758   -0.0000 C.ar    1  LIG1       -0.0509
     24 C           9.7033    2.2408    0.0001 C.ar    1  LIG1       -0.0611
     25 H           7.7850    3.2195   -0.0003 H       1  LIG1        0.0625
     26 H          11.4573    0.9970    0.0005 H       1  LIG1        0.0618
     27 H           7.6888   -1.0582    0.0008 H       1  LIG1        0.0625
     28 H          10.2642    3.1695   -0.0001 H       1  LIG1        0.0618
@<TRIPOS>BOND
     1     8     6    1
     2    11     7    1
     3     6     7   ar
     4     6     3   ar
     5     7     4   ar
     6     9     3    1
     7    25    23    1
     8     3     1   ar
     9    13    16   ar
    10    13    12   ar
    11    16    14   ar
    12    28    24    1
    13     4    12    1
    14     4     2   ar
    15    12    15   ar
    16    23    24   ar
    17    23    20   ar
    18    24    21   ar
    19     1     2   ar
    20     1    10    1
    21    14    20    1
    22    14    17   ar
    23     2     5    1
    24    20    18   ar
    25    15    17   ar
    26    21    26    1
    27    21    19   ar
    28    18    19   ar
    29    18    27    1
    30    19    22    1
