@<TRIPOS>MOLECULE
mol_data/opt/cam/geoms/mol2/48-44-.out
 38 41 0 0 0
SMALL
GASTEIGER

@<TRIPOS>ATOM
      1 C          -0.1464    0.0811    0.2382 C.ar    1  LIG1       -0.0611
      2 C           1.2403    0.0457    0.2392 C.ar    1  LIG1       -0.0509
      3 C          -0.8155    1.2769   -0.0006 C.ar    1  LIG1       -0.0617
      4 C           1.9694    1.2132   -0.0002 C.ar    1  LIG1        0.0226
      5 H           1.7721   -0.8796    0.4240 H       1  LIG1        0.0625
      6 C          -0.0923    2.4408   -0.2392 C.ar    1  LIG1       -0.0611
      7 C           1.2945    2.4128   -0.2398 C.ar    1  LIG1       -0.0509
      8 H          -0.6110    3.3753   -0.4259 H       1  LIG1        0.0618
      9 H          -1.9004    1.3017   -0.0008 H       1  LIG1        0.0618
     10 H          -0.7073   -0.8287    0.4246 H       1  LIG1        0.0618
     11 H           1.8681    3.3128   -0.4245 H       1  LIG1        0.0625
     12 C           3.4440    1.1795    0.0001 C.ar    1  LIG1        0.2034
     13 N           4.1069    2.3208   -0.2381 N.ar    1  LIG1       -0.1252
     14 C           6.0215    1.1205    0.0002 C.ar    1  LIG1        0.2034
     15 N           4.0540    0.0090    0.2382 N.ar    1  LIG1       -0.1252
     16 N           5.4114    2.2914   -0.2376 N.ar    1  LIG1       -0.1252
     17 N           5.3585   -0.0213    0.2379 N.ar    1  LIG1       -0.1252
     18 C           8.1743   -0.1065    0.2531 C.ar    1  LIG1       -0.0504
     19 C           9.5587   -0.1335    0.2536 C.ar    1  LIG1       -0.0534
     20 C           7.4939    1.0869    0.0006 C.ar    1  LIG1        0.0227
     21 C          10.3046    1.0227    0.0013 C.ar    1  LIG1       -0.0178
     22 H          10.0730   -1.0621    0.4768 H       1  LIG1        0.0624
     23 C           8.2283    2.2479   -0.2516 C.ar    1  LIG1       -0.0504
     24 C           9.6124    2.2117   -0.2513 C.ar    1  LIG1       -0.0534
     25 H           7.7015    3.1722   -0.4553 H       1  LIG1        0.0625
     26 H           7.6058   -1.0058    0.4566 H       1  LIG1        0.0625
     27 H          10.1687    3.1159   -0.4742 H       1  LIG1        0.0624
     28 C          12.5267    2.0514    0.5289 C.ar    1  LIG1       -0.0540
     29 C          13.9148    2.0198    0.5296 C.ar    1  LIG1       -0.0612
     30 C          11.7868    0.9888    0.0017 C.ar    1  LIG1       -0.0179
     31 C          14.5897    0.9249    0.0025 C.ar    1  LIG1       -0.0617
     32 H          14.4711    2.8510    0.9509 H       1  LIG1        0.0618
     33 C          12.4778   -0.1063   -0.5251 C.ar    1  LIG1       -0.0540
     34 C          13.8658   -0.1381   -0.5251 C.ar    1  LIG1       -0.0612
     35 H          11.9208   -0.9295   -0.9606 H       1  LIG1        0.0624
     36 H          15.6745    0.9001    0.0027 H       1  LIG1        0.0618
     37 H          12.0077    2.8991    0.9641 H       1  LIG1        0.0624
     38 H          14.3839   -0.9938   -0.9460 H       1  LIG1        0.0618
@<TRIPOS>BOND
     1    35    33    1
     2    38    34    1
     3    34    33   ar
     4    34    31   ar
     5    33    30   ar
     6    27    24    1
     7    25    23    1
     8     8     6    1
     9    11     7    1
    10    23    24   ar
    11    23    20   ar
    12    24    21   ar
    13     7     6   ar
    14     7     4   ar
    15     6     3   ar
    16    13    16   ar
    17    13    12   ar
    18    16    14   ar
    19     9     3    1
    20     3     1   ar
    21     4    12    1
    22     4     2   ar
    23    12    15   ar
    24    14    20    1
    25    14    17   ar
    26    20    18   ar
    27    21    30    1
    28    21    19   ar
    29    30    28   ar
    30    31    36    1
    31    31    29   ar
    32    17    15   ar
    33     1     2   ar
    34     1    10    1
    35     2     5    1
    36    18    19   ar
    37    18    26    1
    38    19    22    1
    39    28    29   ar
    40    28    37    1
    41    29    32    1
