@<TRIPOS>MOLECULE
mol_data/opt/cam/geoms/mol2/48-513.out
 33 36 0 0 0
SMALL
GASTEIGER

@<TRIPOS>ATOM
      1 C          -0.1153    0.0536   -0.0004 C.ar    1  LIG1       -0.0611
      2 C           1.2710    0.0027   -0.0006 C.ar    1  LIG1       -0.0509
      3 C          -0.7708    1.2803    0.0001 C.ar    1  LIG1       -0.0617
      4 C           2.0141    1.1859   -0.0002 C.ar    1  LIG1        0.0226
      5 H           1.7915   -0.9472   -0.0009 H       1  LIG1        0.0625
      6 C          -0.0338    2.4599    0.0004 C.ar    1  LIG1       -0.0611
      7 C           1.3526    2.4166    0.0003 C.ar    1  LIG1       -0.0509
      8 H          -0.5413    3.4188    0.0008 H       1  LIG1        0.0618
      9 H          -1.8554    1.3169    0.0002 H       1  LIG1        0.0618
     10 H          -0.6866   -0.8687   -0.0007 H       1  LIG1        0.0618
     11 H           1.9365    3.3289    0.0006 H       1  LIG1        0.0625
     12 C           3.4882    1.1367   -0.0003 C.ar    1  LIG1        0.2034
     13 N           4.1640    2.2946    0.0001 N.ar    1  LIG1       -0.1252
     14 C           6.0590    1.0460   -0.0006 C.ar    1  LIG1        0.2099
     15 N           4.0848   -0.0672   -0.0009 N.ar    1  LIG1       -0.1252
     16 N           5.4677    2.2514   -0.0001 N.ar    1  LIG1       -0.1247
     17 N           5.3866   -0.1191   -0.0010 N.ar    1  LIG1       -0.1247
     18 C           7.5040    0.9989   -0.0007 C.ar    1  LIG1        0.0604
     19 C           8.3094   -0.1092   -0.0013 C.ar    1  LIG1       -0.0432
     20 C           9.6852    0.2054   -0.0013 C.ar    1  LIG1       -0.0448
     21 C           9.9303    1.5588   -0.0008 C.ar    1  LIG1        0.0361
     22 S           8.4448    2.4596   -0.0002 S.2     1  LIG1       -0.0836
     23 H           7.9045   -1.1129   -0.0016 H       1  LIG1        0.0630
     24 H          10.4729   -0.5367   -0.0018 H       1  LIG1        0.0630
     25 C          11.2163    2.2205   -0.0008 C.ar    1  LIG1        0.0531
     26 C          12.4924    1.6882   -0.0001 C.ar    1  LIG1       -0.0359
     27 C          13.4095    2.7633   -0.0003 C.ar    1  LIG1       -0.0438
     28 C          12.6768    3.9257   -0.0013 C.ar    1  LIG1        0.0022
     29 N          11.3540    3.5899   -0.0015 N.ar    1  LIG1       -0.3603
     30 H          10.5932    4.2499   -0.0023 H       1  LIG1        0.1653
     31 H          12.9899    4.9583   -0.0017 H       1  LIG1        0.0807
     32 H          12.7315    0.6350    0.0007 H       1  LIG1        0.0639
     33 H          14.4870    2.6942    0.0001 H       1  LIG1        0.0633
@<TRIPOS>BOND
     1    30    29    1
     2    24    20    1
     3    31    28    1
     4    23    19    1
     5    29    28   ar
     6    29    25   ar
     7    20    19   ar
     8    20    21   ar
     9    19    18   ar
    10    28    27   ar
    11    17    15   ar
    12    17    14   ar
    13     5     2    1
    14    15    12   ar
    15    21    25    1
    16    21    22   ar
    17    25    26   ar
    18    18    14    1
    19    18    22   ar
    20    10     1    1
    21    14    16   ar
    22     2     1   ar
    23     2     4   ar
    24     1     3   ar
    25    12     4    1
    26    12    13   ar
    27    27    26   ar
    28    27    33    1
    29     4     7   ar
    30    26    32    1
    31    16    13   ar
    32     3     9    1
    33     3     6   ar
    34     7     6   ar
    35     7    11    1
    36     6     8    1
