@<TRIPOS>MOLECULE
mol_data/opt/cam/geoms/mol2/48-5-8-.out
 31 34 0 0 0
SMALL
GASTEIGER

@<TRIPOS>ATOM
      1 C          -0.0717    0.0700    0.0002 C.ar    1  LIG1       -0.0611
      2 C           1.3147    0.0358    0.0000 C.ar    1  LIG1       -0.0509
      3 C          -0.7413    1.2894    0.0001 C.ar    1  LIG1       -0.0617
      4 C           2.0429    1.2286   -0.0001 C.ar    1  LIG1        0.0226
      5 H           1.8465   -0.9078    0.0001 H       1  LIG1        0.0625
      6 C          -0.0191    2.4783   -0.0001 C.ar    1  LIG1       -0.0611
      7 C           1.3676    2.4521   -0.0002 C.ar    1  LIG1       -0.0509
      8 H          -0.5385    3.4307   -0.0002 H       1  LIG1        0.0618
      9 H          -1.8262    1.3131    0.0002 H       1  LIG1        0.0618
     10 H          -0.6321   -0.8589    0.0003 H       1  LIG1        0.0618
     11 H           1.9399    3.3717   -0.0004 H       1  LIG1        0.0625
     12 C           3.5161    1.1957   -0.0003 C.ar    1  LIG1        0.2034
     13 N           4.1789    2.3644   -0.0004 N.ar    1  LIG1       -0.1252
     14 C           6.0841    1.1412   -0.0005 C.ar    1  LIG1        0.2099
     15 N           4.1260    0.0002   -0.0003 N.ar    1  LIG1       -0.1252
     16 N           5.4826    2.3402   -0.0005 N.ar    1  LIG1       -0.1247
     17 N           5.4297   -0.0279   -0.0004 N.ar    1  LIG1       -0.1247
     18 C           7.5386    1.1076   -0.0006 C.ar    1  LIG1        0.0605
     19 C           8.3844    2.1882   -0.0007 C.ar    1  LIG1       -0.0431
     20 C           9.7425    1.8059   -0.0008 C.ar    1  LIG1       -0.0431
     21 C           9.9010    0.4429   -0.0008 C.ar    1  LIG1        0.0605
     22 S           8.3890   -0.3980   -0.0006 S.2     1  LIG1       -0.0818
     23 H           8.0242    3.2083   -0.0006 H       1  LIG1        0.0630
     24 H          10.5818    2.4886   -0.0009 H       1  LIG1        0.0630
     25 C          11.1596   -0.2854   -0.0010 C.ar    1  LIG1        0.2099
     26 N          12.2958    0.4310   -0.0010 N.ar    1  LIG1       -0.1253
     27 C          13.3577   -1.5616   -0.0009 C.ar    1  LIG1        0.1605
     28 N          11.1045   -1.6259   -0.0009 N.ar    1  LIG1       -0.1253
     29 N          13.4257   -0.2297   -0.0011 N.ar    1  LIG1       -0.1339
     30 N          12.2375   -2.2822   -0.0009 N.ar    1  LIG1       -0.1339
     31 H          14.2957   -2.1043   -0.0012 H       1  LIG1        0.1085
@<TRIPOS>BOND
     1    31    27    1
     2    29    26   ar
     3    29    27   ar
     4    26    25   ar
     5    25    28   ar
     6    25    21    1
     7    27    30   ar
     8    30    28   ar
     9    24    20    1
    10    21    20   ar
    11    21    22   ar
    12    20    19   ar
    13    19    23    1
    14    19    18   ar
    15    22    18   ar
    16    18    14    1
    17    14    16   ar
    18    14    17   ar
    19    16    13   ar
    20    17    15   ar
    21    11     7    1
    22    13    12   ar
    23    15    12   ar
    24    12     4    1
    25     7     4   ar
    26     7     6   ar
    27     8     6    1
    28     4     2   ar
    29     6     3   ar
    30     2     5    1
    31     2     1   ar
    32     3     1   ar
    33     3     9    1
    34     1    10    1
