@<TRIPOS>MOLECULE
mol_data/opt/cam/geoms/mol2/48-88.out
 30 33 0 0 0
SMALL
GASTEIGER

@<TRIPOS>ATOM
      1 C          -0.0494    0.0612    0.0003 C.ar    1  LIG1       -0.0611
      2 C           1.3364    0.0198    0.0002 C.ar    1  LIG1       -0.0509
      3 C          -0.7120    1.2846    0.0001 C.ar    1  LIG1       -0.0617
      4 C           2.0695    1.2104   -0.0002 C.ar    1  LIG1        0.0226
      5 H           1.8639   -0.9262    0.0004 H       1  LIG1        0.0625
      6 C           0.0149    2.4710   -0.0003 C.ar    1  LIG1       -0.0611
      7 C           1.4010    2.4384   -0.0004 C.ar    1  LIG1       -0.0509
      8 H          -0.5006    3.4253   -0.0005 H       1  LIG1        0.0618
      9 H          -1.7967    1.3136    0.0002 H       1  LIG1        0.0618
     10 H          -0.6151   -0.8643    0.0006 H       1  LIG1        0.0618
     11 H           1.9781    3.3549   -0.0007 H       1  LIG1        0.0625
     12 C           3.5395    1.1712   -0.0003 C.ar    1  LIG1        0.2034
     13 N           4.2073    2.3376   -0.0006 N.ar    1  LIG1       -0.1251
     14 C           6.0976    1.1029   -0.0006 C.ar    1  LIG1        0.2435
     15 N           4.1442   -0.0292   -0.0002 N.ar    1  LIG1       -0.1251
     16 N           5.5120    2.3031   -0.0007 N.ar    1  LIG1       -0.1218
     17 N           5.4488   -0.0644   -0.0003 N.ar    1  LIG1       -0.1218
     18 C           7.5838    1.0632   -0.0007 C.ar    1  LIG1        0.2435
     19 N           8.1695   -0.1388   -0.0007 N.ar    1  LIG1       -0.1217
     20 C          10.1242    0.9954   -0.0010 C.ar    1  LIG1        0.2435
     21 N           8.2328    2.2323   -0.0009 N.ar    1  LIG1       -0.1217
     22 N           9.4771   -0.1730   -0.0009 N.ar    1  LIG1       -0.1217
     23 N           9.5404    2.1967   -0.0011 N.ar    1  LIG1       -0.1217
     24 C          11.6143    0.9556   -0.0011 C.ar    1  LIG1        0.2434
     25 N          12.1941   -0.2478   -0.0013 N.ar    1  LIG1       -0.1224
     26 C          14.1433    0.8881   -0.0016 C.ar    1  LIG1        0.1605
     27 N          12.2575    2.1264   -0.0012 N.ar    1  LIG1       -0.1224
     28 N          13.5055   -0.2817   -0.0015 N.ar    1  LIG1       -0.1338
     29 N          13.5689    2.0903   -0.0014 N.ar    1  LIG1       -0.1338
     30 H          15.2272    0.8592   -0.0015 H       1  LIG1        0.1085
@<TRIPOS>BOND
     1    26    28   ar
     2    26    30    1
     3    26    29   ar
     4    28    25   ar
     5    29    27   ar
     6    25    24   ar
     7    27    24   ar
     8    24    20    1
     9    23    20   ar
    10    23    21   ar
    11    20    22   ar
    12    21    18   ar
    13    22    19   ar
    14    16    13   ar
    15    16    14   ar
    16    18    19   ar
    17    18    14    1
    18    11     7    1
    19    13    12   ar
    20    14    17   ar
    21     8     6    1
    22     7     6   ar
    23     7     4   ar
    24    12     4    1
    25    12    15   ar
    26    17    15   ar
    27     6     3   ar
    28     4     2   ar
    29     3     9    1
    30     3     1   ar
    31     2     1   ar
    32     2     5    1
    33     1    10    1
