@<TRIPOS>MOLECULE
mol_data/opt/cam/geoms/mol2/4813-.out
 26 28 0 0 0
SMALL
GASTEIGER

@<TRIPOS>ATOM
      1 C          -0.0240    0.0465    0.0004 C.ar    1  LIG1       -0.0611
      2 C           1.3628    0.0170    0.0001 C.ar    1  LIG1       -0.0509
      3 C          -0.6983    1.2631    0.0003 C.ar    1  LIG1       -0.0617
      4 C           2.0883    1.2110   -0.0002 C.ar    1  LIG1        0.0226
      5 H           1.8974   -0.9251    0.0001 H       1  LIG1        0.0625
      6 C           0.0209    2.4534    0.0000 C.ar    1  LIG1       -0.0611
      7 C           1.4080    2.4313   -0.0002 C.ar    1  LIG1       -0.0509
      8 H          -0.5010    3.4046   -0.0000 H       1  LIG1        0.0618
      9 H          -1.7833    1.2833    0.0005 H       1  LIG1        0.0618
     10 H          -0.5811   -0.8845    0.0006 H       1  LIG1        0.0618
     11 H           1.9777    3.3525   -0.0005 H       1  LIG1        0.0625
     12 C           3.5635    1.1836   -0.0004 C.ar    1  LIG1        0.2034
     13 N           4.1787   -0.0065   -0.0004 N.ar    1  LIG1       -0.1252
     14 C           6.1354    1.1476   -0.0009 C.ar    1  LIG1        0.2194
     15 N           4.2207    2.3566   -0.0007 N.ar    1  LIG1       -0.1252
     16 N           5.4843   -0.0274   -0.0007 N.ar    1  LIG1       -0.1237
     17 N           5.5229    2.3457   -0.0009 N.ar    1  LIG1       -0.1237
     18 C           7.5765    1.1058   -0.0012 C.ar    1  LIG1        0.0875
     19 C           8.5242    2.1115   -0.0014 C.ar    1  LIG1       -0.0333
     20 C           9.7901    1.4897   -0.0016 C.ar    1  LIG1       -0.0437
     21 C           9.5792    0.1260   -0.0014 C.ar    1  LIG1        0.0023
     22 N           8.2398   -0.0960   -0.0012 N.ar    1  LIG1       -0.3582
     23 H           7.7623   -0.9842   -0.0010 H       1  LIG1        0.1654
     24 H          10.2827   -0.6926   -0.0015 H       1  LIG1        0.0807
     25 H           8.3061    3.1685   -0.0015 H       1  LIG1        0.0640
     26 H          10.7523    1.9795   -0.0018 H       1  LIG1        0.0633
@<TRIPOS>BOND
     1    26    20    1
     2    20    19   ar
     3    20    21   ar
     4    25    19    1
     5    24    21    1
     6    19    18   ar
     7    21    22   ar
     8    22    18   ar
     9    22    23    1
    10    18    14    1
    11    17    14   ar
    12    17    15   ar
    13    14    16   ar
    14    15    12   ar
    15    16    13   ar
    16    11     7    1
    17    12    13   ar
    18    12     4    1
    19     7     4   ar
    20     7     6   ar
    21     4     2   ar
    22     8     6    1
    23     6     3   ar
    24     2     5    1
    25     2     1   ar
    26     3     1   ar
    27     3     9    1
    28     1    10    1
