@<TRIPOS>MOLECULE
mol_data/opt/cam/geoms/mol2/4813-12-.out
 33 36 0 0 0
SMALL
GASTEIGER

@<TRIPOS>ATOM
      1 C          -0.0440    0.0498    0.0003 C.ar    1  LIG1       -0.0611
      2 C           1.3429    0.0262   -0.0000 C.ar    1  LIG1       -0.0509
      3 C          -0.7236    1.2636    0.0005 C.ar    1  LIG1       -0.0617
      4 C           2.0634    1.2233   -0.0001 C.ar    1  LIG1        0.0226
      5 H           1.8816   -0.9136   -0.0002 H       1  LIG1        0.0625
      6 C          -0.0094    2.4571    0.0004 C.ar    1  LIG1       -0.0611
      7 C           1.3779    2.4408    0.0000 C.ar    1  LIG1       -0.0509
      8 H          -0.5352    3.4062    0.0005 H       1  LIG1        0.0618
      9 H          -1.8087    1.2792    0.0007 H       1  LIG1        0.0618
     10 H          -0.5972   -0.8836    0.0004 H       1  LIG1        0.0618
     11 H           1.9437    3.3644   -0.0000 H       1  LIG1        0.0625
     12 C           3.5385    1.2017   -0.0005 C.ar    1  LIG1        0.2034
     13 N           4.1581    0.0137   -0.0007 N.ar    1  LIG1       -0.1252
     14 C           6.1098    1.1746   -0.0010 C.ar    1  LIG1        0.2194
     15 N           4.1912    2.3774   -0.0005 N.ar    1  LIG1       -0.1252
     16 N           5.4632   -0.0035   -0.0010 N.ar    1  LIG1       -0.1237
     17 N           5.4929    2.3710   -0.0008 N.ar    1  LIG1       -0.1237
     18 C           7.5492    1.1401   -0.0014 C.ar    1  LIG1        0.0880
     19 C           8.4905    2.1555   -0.0016 C.ar    1  LIG1       -0.0325
     20 C           9.7582    1.5500   -0.0017 C.ar    1  LIG1       -0.0327
     21 C           9.5629    0.1746   -0.0020 C.ar    1  LIG1        0.0826
     22 N           8.2219   -0.0543   -0.0018 N.ar    1  LIG1       -0.3492
     23 H           7.7726   -0.9580   -0.0018 H       1  LIG1        0.1661
     24 H           8.2629    3.2104   -0.0015 H       1  LIG1        0.0640
     25 H          10.7161    2.0484   -0.0018 H       1  LIG1        0.0640
     26 C          10.5065   -0.9170   -0.0023 C.ar    1  LIG1        0.1509
     27 C          11.8661   -0.9931   -0.0024 C.ar    1  LIG1       -0.0144
     28 C          12.1898   -2.3843   -0.0030 C.ar    1  LIG1       -0.0233
     29 C          11.0102   -3.0494   -0.0028 C.ar    1  LIG1        0.0926
     30 O           9.9728   -2.1716   -0.0026 O.2     1  LIG1       -0.4615
     31 H          10.7436   -4.0938   -0.0029 H       1  LIG1        0.1029
     32 H          12.5523   -0.1600   -0.0023 H       1  LIG1        0.0656
     33 H          13.1748   -2.8258   -0.0033 H       1  LIG1        0.0649
@<TRIPOS>BOND
     1    33    28    1
     2    28    29   ar
     3    28    27   ar
     4    31    29    1
     5    29    30   ar
     6    30    26   ar
     7    27    26   ar
     8    27    32    1
     9    26    21    1
    10    21    22   ar
    11    21    20   ar
    12    23    22    1
    13    22    18   ar
    14    25    20    1
    15    20    19   ar
    16    19    24    1
    17    19    18   ar
    18    18    14    1
    19    14    16   ar
    20    14    17   ar
    21    16    13   ar
    22    17    15   ar
    23    13    12   ar
    24    15    12   ar
    25    12     4    1
    26     5     2    1
    27     4     2   ar
    28     4     7   ar
    29    11     7    1
    30     2     1   ar
    31     7     6   ar
    32     1    10    1
    33     1     3   ar
    34     6     3   ar
    35     6     8    1
    36     3     9    1
