@<TRIPOS>MOLECULE
mol_data/opt/cam/geoms/mol2/485-.out
 25 27 0 0 0
SMALL
GASTEIGER

@<TRIPOS>ATOM
      1 C          -0.0285    0.0513    0.0002 C.ar    1  LIG1       -0.0611
      2 C           1.3582    0.0213    0.0001 C.ar    1  LIG1       -0.0509
      3 C          -0.7022    1.2683    0.0001 C.ar    1  LIG1       -0.0617
      4 C           2.0832    1.2157   -0.0002 C.ar    1  LIG1        0.0226
      5 H           1.8929   -0.9208    0.0001 H       1  LIG1        0.0625
      6 C           0.0168    2.4591   -0.0002 C.ar    1  LIG1       -0.0611
      7 C           1.4038    2.4366   -0.0003 C.ar    1  LIG1       -0.0509
      8 H          -0.5051    3.4102   -0.0003 H       1  LIG1        0.0618
      9 H          -1.7872    1.2887    0.0001 H       1  LIG1        0.0618
     10 H          -0.5860   -0.8794    0.0004 H       1  LIG1        0.0618
     11 H           1.9737    3.3577   -0.0005 H       1  LIG1        0.0625
     12 C           3.5578    1.1875   -0.0003 C.ar    1  LIG1        0.2034
     13 N           4.1715   -0.0048   -0.0002 N.ar    1  LIG1       -0.1252
     14 C           6.1283    1.1423   -0.0005 C.ar    1  LIG1        0.2099
     15 N           4.2162    2.3579   -0.0004 N.ar    1  LIG1       -0.1252
     16 N           5.4759   -0.0292   -0.0003 N.ar    1  LIG1       -0.1247
     17 N           5.5198    2.3395   -0.0005 N.ar    1  LIG1       -0.1247
     18 C           7.5801    1.1146   -0.0006 C.ar    1  LIG1        0.0598
     19 C           8.4295    2.1885   -0.0007 C.ar    1  LIG1       -0.0438
     20 C           9.7947    1.8033   -0.0007 C.ar    1  LIG1       -0.0540
     21 C           9.9506    0.4479   -0.0005 C.ar    1  LIG1       -0.0236
     22 S           8.4481   -0.3867   -0.0006 S.2     1  LIG1       -0.0934
     23 H          10.8757   -0.1111   -0.0005 H       1  LIG1        0.0693
     24 H           8.0701    3.2091   -0.0008 H       1  LIG1        0.0630
     25 H          10.6213    2.5023   -0.0008 H       1  LIG1        0.0623
@<TRIPOS>BOND
     1    25    20    1
     2    24    19    1
     3    19    20   ar
     4    19    18   ar
     5    20    21   ar
     6    22    18   ar
     7    22    21   ar
     8    18    14    1
     9    21    23    1
    10    17    14   ar
    11    17    15   ar
    12    14    16   ar
    13    11     7    1
    14    15    12   ar
    15    16    13   ar
    16     7     6   ar
    17     7     4   ar
    18    12    13   ar
    19    12     4    1
    20     8     6    1
    21     6     3   ar
    22     4     2   ar
    23     3     9    1
    24     3     1   ar
    25     2     5    1
    26     2     1   ar
    27     1    10    1
