@<TRIPOS>MOLECULE
mol_data/opt/cam/geoms/mol2/485.out
 25 27 0 0 0
SMALL
GASTEIGER

@<TRIPOS>ATOM
      1 C          -0.0454    0.0686    0.0003 C.ar    1  LIG1       -0.0611
      2 C           1.3409    0.0196    0.0000 C.ar    1  LIG1       -0.0509
      3 C          -0.7020    1.2949    0.0003 C.ar    1  LIG1       -0.0617
      4 C           2.0824    1.2038   -0.0002 C.ar    1  LIG1        0.0226
      5 H           1.8625   -0.9297    0.0000 H       1  LIG1        0.0625
      6 C           0.0335    2.4755    0.0000 C.ar    1  LIG1       -0.0611
      7 C           1.4199    2.4340   -0.0002 C.ar    1  LIG1       -0.0509
      8 H          -0.4753    3.4338    0.0000 H       1  LIG1        0.0618
      9 H          -1.7867    1.3304    0.0005 H       1  LIG1        0.0618
     10 H          -0.6157   -0.8543    0.0004 H       1  LIG1        0.0618
     11 H           2.0025    3.3472   -0.0004 H       1  LIG1        0.0625
     12 C           3.5564    1.1559   -0.0005 C.ar    1  LIG1        0.2034
     13 N           4.1536   -0.0470   -0.0006 N.ar    1  LIG1       -0.1252
     14 C           6.1259    1.0685   -0.0009 C.ar    1  LIG1        0.2099
     15 N           4.2309    2.3149   -0.0006 N.ar    1  LIG1       -0.1252
     16 N           5.4564   -0.0958   -0.0008 N.ar    1  LIG1       -0.1247
     17 N           5.5347    2.2720   -0.0008 N.ar    1  LIG1       -0.1247
     18 C           7.5771    1.0212   -0.0011 C.ar    1  LIG1        0.0598
     19 C           8.3700   -0.0951   -0.0013 C.ar    1  LIG1       -0.0438
     20 C           9.7532    0.2191   -0.0016 C.ar    1  LIG1       -0.0540
     21 C           9.9789    1.5647   -0.0017 C.ar    1  LIG1       -0.0236
     22 S           8.5214    2.4757   -0.0012 S.2     1  LIG1       -0.0934
     23 H          10.9316    2.0752   -0.0019 H       1  LIG1        0.0693
     24 H           7.9584   -1.0959   -0.0012 H       1  LIG1        0.0630
     25 H          10.5426   -0.5216   -0.0017 H       1  LIG1        0.0623
@<TRIPOS>BOND
     1    23    21    1
     2    25    20    1
     3    21    20   ar
     4    21    22   ar
     5    20    19   ar
     6    19    24    1
     7    19    18   ar
     8    22    18   ar
     9    18    14    1
    10    14    17   ar
    11    14    16   ar
    12    17    15   ar
    13    16    13   ar
    14    15    12   ar
    15    13    12   ar
    16    12     4    1
    17    11     7    1
    18     4     7   ar
    19     4     2   ar
    20     7     6   ar
    21     5     2    1
    22     2     1   ar
    23     6     8    1
    24     6     3   ar
    25     1     3   ar
    26     1    10    1
    27     3     9    1
