@<TRIPOS>MOLECULE
mol_data/opt/cam/geoms/mol2/488-12-.out
 31 34 0 0 0
SMALL
GASTEIGER

@<TRIPOS>ATOM
      1 C          -0.0622    0.0986    0.0003 C.ar    1  LIG1       -0.0611
      2 C           1.3233    0.0397    0.0001 C.ar    1  LIG1       -0.0509
      3 C          -0.7095    1.3300    0.0001 C.ar    1  LIG1       -0.0617
      4 C           2.0717    1.2202   -0.0002 C.ar    1  LIG1        0.0226
      5 H           1.8390   -0.9128    0.0003 H       1  LIG1        0.0625
      6 C           0.0328    2.5065   -0.0002 C.ar    1  LIG1       -0.0611
      7 C           1.4187    2.4560   -0.0004 C.ar    1  LIG1       -0.0509
      8 H          -0.4701    3.4677   -0.0004 H       1  LIG1        0.0618
      9 H          -1.7939    1.3728    0.0002 H       1  LIG1        0.0618
     10 H          -0.6394   -0.8199    0.0005 H       1  LIG1        0.0618
     11 H           2.0079    3.3648   -0.0006 H       1  LIG1        0.0625
     12 C           3.5429    1.1620   -0.0003 C.ar    1  LIG1        0.2034
     13 N           4.1315   -0.0451   -0.0002 N.ar    1  LIG1       -0.1251
     14 C           6.1023    1.0603   -0.0006 C.ar    1  LIG1        0.2435
     15 N           4.2251    2.3185   -0.0006 N.ar    1  LIG1       -0.1251
     16 N           5.4358   -0.0982   -0.0004 N.ar    1  LIG1       -0.1218
     17 N           5.5298    2.2679   -0.0007 N.ar    1  LIG1       -0.1218
     18 C           7.5866    1.0015   -0.0007 C.ar    1  LIG1        0.2435
     19 N           8.2517    2.1639   -0.0009 N.ar    1  LIG1       -0.1217
     20 C          10.1336    0.9005   -0.0009 C.ar    1  LIG1        0.2381
     21 N           8.1589   -0.2053   -0.0007 N.ar    1  LIG1       -0.1217
     22 N           9.5538    2.1145   -0.0010 N.ar    1  LIG1       -0.1219
     23 N           9.4653   -0.2631   -0.0008 N.ar    1  LIG1       -0.1219
     24 C          11.5793    0.8805   -0.0011 C.ar    1  LIG1        0.1751
     25 C          12.4952    1.8926   -0.0013 C.ar    1  LIG1       -0.0126
     26 C          13.7717    1.2680   -0.0014 C.ar    1  LIG1       -0.0232
     27 C          13.5317   -0.0707   -0.0013 C.ar    1  LIG1        0.0927
     28 O          12.2084   -0.3236   -0.0011 O.2     1  LIG1       -0.4597
     29 H          14.1755   -0.9361   -0.0012 H       1  LIG1        0.1029
     30 H          12.2648    2.9467   -0.0014 H       1  LIG1        0.0656
     31 H          14.7383    1.7480   -0.0016 H       1  LIG1        0.0649
@<TRIPOS>BOND
     1    31    26    1
     2    26    25   ar
     3    26    27   ar
     4    30    25    1
     5    25    24   ar
     6    27    29    1
     7    27    28   ar
     8    28    24   ar
     9    24    20    1
    10    22    20   ar
    11    22    19   ar
    12    20    23   ar
    13    19    18   ar
    14    23    21   ar
    15    18    21   ar
    16    18    14    1
    17    17    14   ar
    18    17    15   ar
    19    11     7    1
    20    14    16   ar
    21    15    12   ar
    22     7     6   ar
    23     7     4   ar
    24    16    13   ar
    25     8     6    1
    26    12    13   ar
    27    12     4    1
    28     6     3   ar
    29     4     2   ar
    30     3     9    1
    31     3     1   ar
    32     2     5    1
    33     2     1   ar
    34     1    10    1
