@<TRIPOS>MOLECULE
mol_data/opt/cam/geoms/mol2/488.out
 24 26 0 0 0
SMALL
GASTEIGER

@<TRIPOS>ATOM
      1 C          -0.0218    0.0582    0.0004 C.ar    1  LIG1       -0.0611
      2 C           1.3643    0.0183    0.0002 C.ar    1  LIG1       -0.0509
      3 C          -0.6857    1.2808    0.0002 C.ar    1  LIG1       -0.0617
      4 C           2.0962    1.2094   -0.0002 C.ar    1  LIG1        0.0226
      5 H           1.8928   -0.9271    0.0003 H       1  LIG1        0.0625
      6 C           0.0401    2.4677   -0.0002 C.ar    1  LIG1       -0.0611
      7 C           1.4264    2.4364   -0.0004 C.ar    1  LIG1       -0.0509
      8 H          -0.4762    3.4217   -0.0004 H       1  LIG1        0.0618
      9 H          -1.7705    1.3087    0.0003 H       1  LIG1        0.0618
     10 H          -0.5864   -0.8680    0.0007 H       1  LIG1        0.0618
     11 H           2.0028    3.3534   -0.0007 H       1  LIG1        0.0625
     12 C           3.5671    1.1716   -0.0004 C.ar    1  LIG1        0.2034
     13 N           4.1726   -0.0277   -0.0002 N.ar    1  LIG1       -0.1251
     14 C           6.1260    1.1058   -0.0007 C.ar    1  LIG1        0.2435
     15 N           4.2334    2.3382   -0.0006 N.ar    1  LIG1       -0.1251
     16 N           5.4777   -0.0617   -0.0004 N.ar    1  LIG1       -0.1218
     17 N           5.5385    2.3050   -0.0008 N.ar    1  LIG1       -0.1218
     18 C           7.6144    1.0676   -0.0008 C.ar    1  LIG1        0.2434
     19 N           8.1974   -0.1353   -0.0009 N.ar    1  LIG1       -0.1224
     20 C          10.1459    1.0025   -0.0013 C.ar    1  LIG1        0.1605
     21 N           8.2585    2.2389   -0.0010 N.ar    1  LIG1       -0.1224
     22 N           9.5089   -0.1675   -0.0011 N.ar    1  LIG1       -0.1338
     23 N           9.5699    2.2037   -0.0012 N.ar    1  LIG1       -0.1338
     24 H          11.2298    0.9746   -0.0012 H       1  LIG1        0.1085
@<TRIPOS>BOND
     1    20    24    1
     2    20    23   ar
     3    20    22   ar
     4    23    21   ar
     5    22    19   ar
     6    21    18   ar
     7    19    18   ar
     8    18    14    1
     9    17    14   ar
    10    17    15   ar
    11    11     7    1
    12    14    16   ar
    13    15    12   ar
    14     7     6   ar
    15     7     4   ar
    16    16    13   ar
    17     8     6    1
    18    12    13   ar
    19    12     4    1
    20     6     3   ar
    21     4     2   ar
    22     3     9    1
    23     3     1   ar
    24     2     5    1
    25     2     1   ar
    26     1    10    1
