@<TRIPOS>MOLECULE
mol_data/opt/cam/geoms/mol2/4aa.out
 12 12 0 0 0
SMALL
GASTEIGER

@<TRIPOS>ATOM
      1 C           0.0733    0.0534    0.0005 C.ar    1  LIG1       -0.0618
      2 C           1.4638    0.0263    0.0001 C.ar    1  LIG1       -0.0618
      3 C          -0.5985    1.2711    0.0004 C.ar    1  LIG1       -0.0618
      4 C           2.1825    1.2170   -0.0004 C.ar    1  LIG1       -0.0618
      5 H           1.9881   -0.9241    0.0002 H       1  LIG1        0.0618
      6 C           0.1202    2.4618   -0.0002 C.ar    1  LIG1       -0.0618
      7 C           1.5107    2.4347   -0.0006 C.ar    1  LIG1       -0.0618
      8 H          -0.4041    3.4121   -0.0003 H       1  LIG1        0.0618
      9 H           3.2677    1.1959   -0.0008 H       1  LIG1        0.0618
     10 H          -1.6837    1.2923    0.0007 H       1  LIG1        0.0618
     11 H          -0.4876   -0.8759    0.0009 H       1  LIG1        0.0618
     12 H           2.0715    3.3640   -0.0010 H       1  LIG1        0.0618
@<TRIPOS>BOND
     1    12     7    1
     2     9     4    1
     3     7     4   ar
     4     7     6   ar
     5     4     2   ar
     6     8     6    1
     7     6     3   ar
     8     2     5    1
     9     2     1   ar
    10     3     1   ar
    11     3    10    1
    12     1    11    1
