@<TRIPOS>MOLECULE
mol_data/opt/cam/geoms/mol2/4aa12fa6ii6ei-.out
 49 52 0 0 0
SMALL
GASTEIGER

@<TRIPOS>ATOM
      1 C           0.1466   -0.4852   -1.0668 C.ar    1  LIG1       -0.0611
      2 C           1.2710   -0.1994   -0.3062 C.ar    1  LIG1       -0.0510
      3 C          -0.2486    0.3652   -2.0937 C.ar    1  LIG1       -0.0617
      4 C           2.0230    0.9544   -0.5648 C.ar    1  LIG1        0.0209
      5 H           1.5739   -0.8661    0.4918 H       1  LIG1        0.0625
      6 C           0.4940    1.5114   -2.3548 C.ar    1  LIG1       -0.0611
      7 C           1.6192    1.8067   -1.5995 C.ar    1  LIG1       -0.0510
      8 H           0.1949    2.1831   -3.1532 H       1  LIG1        0.0618
      9 H          -1.1288    0.1369   -2.6855 H       1  LIG1        0.0618
     10 H          -0.4259   -1.3826   -0.8546 H       1  LIG1        0.0618
     11 H           2.1933    2.7025   -1.8053 H       1  LIG1        0.0625
     12 C           3.2023    1.2630    0.2266 C.ar    1  LIG1        0.1768
     13 C           3.8137    0.6705    1.2987 C.ar    1  LIG1        0.1632
     14 C           4.9446    1.4608    1.6389 C.ar    1  LIG1        0.0265
     15 C           4.9672    2.4972    0.7488 C.ar    1  LIG1        0.1410
     16 O           3.9200    2.3831   -0.1020 O.2     1  LIG1       -0.4510
     17 O           3.3790   -0.4636    1.9070 O.3     1  LIG1       -0.5032
     18 H           3.9664   -0.6749    2.6404 H       1  LIG1        0.2923
     19 H           5.6340    1.2947    2.4540 H       1  LIG1        0.0692
     20 C           5.5835    4.8342   -0.0227 C.ar    1  LIG1        0.0496
     21 C           5.9032    3.6060    0.5882 C.ar    1  LIG1        0.0387
     22 C           7.2029    3.4498    1.0702 C.ar    1  LIG1       -0.0444
     23 C           8.1420    4.4677    0.9945 C.ar    1  LIG1       -0.0237
     24 C           7.7105    5.6618    0.4005 C.ar    1  LIG1        0.0769
     25 N           6.4845    5.8122   -0.1061 N.ar    1  LIG1       -0.2508
     26 H           7.4980    2.4935    1.4918 H       1  LIG1        0.0628
     27 C           4.2374    5.1453   -0.6177 C.3     1  LIG1       -0.0216
     28 H           3.4231    4.8937    0.0653 H       1  LIG1        0.0293
     29 H           4.0694    4.5745   -1.5350 H       1  LIG1        0.0293
     30 H           4.2034    6.2085   -0.8526 H       1  LIG1        0.0293
     31 C           9.5470    4.2510    1.4856 C.3     1  LIG1       -0.0377
     32 H           9.6961    4.7017    2.4699 H       1  LIG1        0.0278
     33 H          10.2801    4.6990    0.8109 H       1  LIG1        0.0278
     34 H           9.7654    3.1836    1.5634 H       1  LIG1        0.0278
     35 C           9.1673    7.5642    1.2795 C.ar    1  LIG1        0.1223
     36 C           8.6074    6.8385    0.2144 C.ar    1  LIG1        0.0347
     37 C           8.8751    7.2874   -1.0745 C.ar    1  LIG1       -0.0455
     38 C           9.7032    8.3823   -1.2893 C.ar    1  LIG1       -0.0316
     39 C          10.2299    8.9970   -0.1533 C.ar    1  LIG1        0.0319
     40 N           9.9696    8.6197    1.0911 N.ar    1  LIG1       -0.2458
     41 H           8.4211    6.7670   -1.9125 H       1  LIG1        0.0628
     42 H          10.8935    9.8532   -0.2617 H       1  LIG1        0.0832
     43 C           8.8630    7.2426    2.6486 C.1     1  LIG1       -0.0491
     44 C           8.6008    6.9933    3.7962 C.1     1  LIG1       -0.1124
     45 H           8.3659    6.7871    4.8150 H       1  LIG1        0.1232
     46 C          10.0135    8.8859   -2.6705 C.3     1  LIG1       -0.0383
     47 H          10.7148    9.7224   -2.6377 H       1  LIG1        0.0278
     48 H           9.1069    9.2286   -3.1781 H       1  LIG1        0.0278
     49 H          10.4557    8.1003   -3.2901 H       1  LIG1        0.0278
@<TRIPOS>BOND
     1    49    46    1
     2    48    46    1
     3     8     6    1
     4     9     3    1
     5    46    47    1
     6    46    38    1
     7     6     3   ar
     8     6     7   ar
     9     3     1   ar
    10    41    37    1
    11    11     7    1
    12     7     4   ar
    13    29    27    1
    14    38    37   ar
    15    38    39   ar
    16    37    36   ar
    17     1    10    1
    18     1     2   ar
    19    30    27    1
    20    27    20    1
    21    27    28    1
    22     4     2   ar
    23     4    12    1
    24     2     5    1
    25    42    39    1
    26    39    40   ar
    27    25    20   ar
    28    25    24   ar
    29    16    12   ar
    30    16    15   ar
    31    20    21   ar
    32    36    24    1
    33    36    35   ar
    34    12    13   ar
    35    24    23   ar
    36    21    15    1
    37    21    22   ar
    38    15    14   ar
    39    33    31    1
    40    23    22   ar
    41    23    31    1
    42    22    26    1
    43    40    35   ar
    44    35    43    1
    45    13    14   ar
    46    13    17    1
    47    31    34    1
    48    31    32    1
    49    14    19    1
    50    17    18    1
    51    43    44    3
    52    44    45    1
