@<TRIPOS>MOLECULE
mol_data/opt/cam/geoms/mol2/4aa12ha4dh-4ee.out
 48 51 0 0 0
SMALL
GASTEIGER

@<TRIPOS>ATOM
      1 C          -0.1667   -0.0107   -0.1007 C.ar    1  LIG1       -0.0611
      2 C           1.1551    0.0673    0.3167 C.ar    1  LIG1       -0.0510
      3 C          -0.6588    0.8754   -1.0516 C.ar    1  LIG1       -0.0617
      4 C           2.0151    1.0334   -0.2230 C.ar    1  LIG1        0.0191
      5 H           1.5147   -0.5969    1.0949 H       1  LIG1        0.0625
      6 C           0.1841    1.8484   -1.5801 C.ar    1  LIG1       -0.0611
      7 C           1.5072    1.9280   -1.1742 C.ar    1  LIG1       -0.0510
      8 H          -0.1919    2.5480   -2.3199 H       1  LIG1        0.0618
      9 H          -1.6925    0.8128   -1.3750 H       1  LIG1        0.0618
     10 H          -0.8198   -0.7622    0.3314 H       1  LIG1        0.0618
     11 H           2.1642    2.6807   -1.5946 H       1  LIG1        0.0625
     12 C           3.4041    1.1091    0.1979 C.ar    1  LIG1        0.1562
     13 C           4.2689    0.2091    0.7690 C.ar    1  LIG1        0.0716
     14 C           5.5129    0.8844    0.9251 C.ar    1  LIG1        0.0056
     15 C           5.3411    2.1470    0.4338 C.ar    1  LIG1        0.1388
     16 O           4.0672    2.2881   -0.0148 O.2     1  LIG1       -0.4529
     17 N           4.0049   -1.1054    1.1545 N.pl3   1  LIG1       -0.3550
     18 H           3.3625   -1.5861    0.5381 H       1  LIG1        0.1424
     19 H           4.8462   -1.6514    1.2814 H       1  LIG1        0.1424
     20 H           6.4144    0.4723    1.3496 H       1  LIG1        0.0674
     21 C           7.5774    3.3115    0.5887 C.ar    1  LIG1        0.0631
     22 C           8.3173    4.4871    0.4528 C.ar    1  LIG1       -0.0341
     23 C           6.1915    3.3257    0.3157 C.ar    1  LIG1        0.0364
     24 C           7.7465    5.6860    0.0563 C.ar    1  LIG1        0.0052
     25 H           9.3794    4.4562    0.6656 H       1  LIG1        0.0637
     26 C           5.6204    4.5271   -0.0900 C.ar    1  LIG1       -0.0285
     27 C           6.3626    5.7033   -0.2274 C.ar    1  LIG1        0.0331
     28 H           4.5579    4.5500   -0.3013 H       1  LIG1        0.0643
     29 N           8.8605    1.1871    1.3197 N.1     1  LIG1       -0.1908
     30 C           8.2760    2.1319    0.9920 C.1     1  LIG1        0.0999
     31 N           5.7252    6.8649   -0.6051 N.pl3   1  LIG1       -0.3575
     32 H           6.2970    7.6042   -0.9828 H       1  LIG1        0.1423
     33 H           4.8258    6.7626   -1.0480 H       1  LIG1        0.1423
     34 C           9.7172    6.9734   -0.8782 C.ar    1  LIG1        0.0325
     35 C          10.4838    8.1453   -0.9165 C.ar    1  LIG1       -0.0446
     36 C           8.5770    6.9157   -0.0496 C.ar    1  LIG1        0.0004
     37 C          10.1379    9.2506   -0.1629 C.ar    1  LIG1       -0.0451
     38 H          11.3579    8.1744   -1.5568 H       1  LIG1        0.0630
     39 C           8.2410    8.0406    0.7024 C.ar    1  LIG1       -0.0374
     40 C           9.0049    9.2099    0.6571 C.ar    1  LIG1        0.0253
     41 H           7.3689    8.0053    1.3453 H       1  LIG1        0.0636
     42 H          10.7382   10.1522   -0.2021 H       1  LIG1        0.0630
     43 C          10.1104    5.8689   -1.7006 C.1     1  LIG1       -0.0691
     44 C          10.4711    4.9643   -2.4083 C.1     1  LIG1       -0.1139
     45 H          10.7804    4.1528   -3.0263 H       1  LIG1        0.1232
     46 C           8.6339   10.3461    1.4445 C.1     1  LIG1       -0.0696
     47 C           8.3219   11.3032    2.1044 C.1     1  LIG1       -0.1139
     48 H           8.0462   12.1486    2.6919 H       1  LIG1        0.1232
@<TRIPOS>BOND
     1    45    44    1
     2    44    43    3
     3     8     6    1
     4    43    34    1
     5    11     7    1
     6     6     7   ar
     7     6     3   ar
     8    38    35    1
     9     9     3    1
    10     7     4   ar
    11     3     1   ar
    12    33    31    1
    13    32    31    1
    14    35    34   ar
    15    35    37   ar
    16    34    36   ar
    17    31    27    1
    18    28    26    1
    19    27    26   ar
    20    27    24   ar
    21     4    12    1
    22     4     2   ar
    23    42    37    1
    24    37    40   ar
    25     1     2   ar
    26     1    10    1
    27    26    23   ar
    28    36    24    1
    29    36    39   ar
    30    16    12   ar
    31    16    15   ar
    32    24    22   ar
    33    12    13   ar
    34    23    15    1
    35    23    21   ar
    36     2     5    1
    37    15    14   ar
    38    22    21   ar
    39    22    25    1
    40    18    17    1
    41    21    30    1
    42    40    39   ar
    43    40    46    1
    44    39    41    1
    45    13    14   ar
    46    13    17    1
    47    14    20    1
    48    30    29    3
    49    17    19    1
    50    46    47    3
    51    47    48    1
