@<TRIPOS>MOLECULE
mol_data/opt/cam/geoms/mol2/4aa12dl13il-12id-.out
 50 53 0 0 0
SMALL
GASTEIGER

@<TRIPOS>ATOM
      1 C          -0.3029    0.1866    0.1637 C.ar    1  LIG1       -0.0611
      2 C           1.0758    0.0587    0.0831 C.ar    1  LIG1       -0.0510
      3 C          -0.8804    1.4150    0.4647 C.ar    1  LIG1       -0.0617
      4 C           1.8985    1.1682    0.3093 C.ar    1  LIG1        0.0187
      5 H           1.5083   -0.9047   -0.1580 H       1  LIG1        0.0625
      6 C          -0.0683    2.5215    0.6883 C.ar    1  LIG1       -0.0611
      7 C           1.3107    2.4020    0.6132 C.ar    1  LIG1       -0.0510
      8 H          -0.5108    3.4828    0.9271 H       1  LIG1        0.0618
      9 H          -1.9594    1.5095    0.5260 H       1  LIG1        0.0618
     10 H          -0.9294   -0.6811   -0.0132 H       1  LIG1        0.0618
     11 H           1.9428    3.2623    0.7973 H       1  LIG1        0.0625
     12 C           3.3505    1.0611    0.2332 C.ar    1  LIG1        0.1568
     13 C           4.2356    0.0147    0.1297 C.ar    1  LIG1        0.1396
     14 C           5.5553    0.5908    0.1009 C.ar    1  LIG1        0.1852
     15 C           5.3964    1.9400    0.2049 C.ar    1  LIG1        0.1948
     16 O           4.0534    2.2159    0.2852 O.2     1  LIG1       -0.4482
     17 N           3.7289   -2.5092    0.0371 N.1     1  LIG1       -0.1906
     18 C           3.9434   -1.3723    0.0863 C.1     1  LIG1        0.1067
     19 O           6.7315   -0.0705    0.0242 O.3     1  LIG1       -0.4901
     20 C           6.9401   -0.8070   -1.1811 C.3     1  LIG1        0.0790
     21 H           7.9375   -1.2387   -1.1029 H       1  LIG1        0.0660
     22 H           6.2075   -1.6113   -1.2901 H       1  LIG1        0.0660
     23 H           6.8928   -0.1444   -2.0514 H       1  LIG1        0.0660
     24 C           6.2834    3.0760    0.2281 C.ar    1  LIG1        0.0929
     25 C           7.6145    3.2086    0.5913 C.ar    1  LIG1        0.0203
     26 C           7.9298    4.5782    0.4119 C.ar    1  LIG1        0.1519
     27 C           6.8035    5.2526   -0.0314 C.ar    1  LIG1        0.1253
     28 N           5.8129    4.3114   -0.1374 N.ar    1  LIG1       -0.3461
     29 H           4.8742    4.5043   -0.4467 H       1  LIG1        0.1662
     30 C           8.5562    2.1777    1.1247 C.3     1  LIG1       -0.0341
     31 H           9.3414    2.6692    1.7038 H       1  LIG1        0.0279
     32 H           9.0342    1.5998    0.3278 H       1  LIG1        0.0279
     33 H           8.0426    1.4614    1.7679 H       1  LIG1        0.0279
     34 O           9.1474    5.1384    0.6816 O.3     1  LIG1       -0.4926
     35 C          10.0962    4.9967   -0.3687 C.3     1  LIG1        0.0789
     36 H          11.0148    5.4765   -0.0289 H       1  LIG1        0.0660
     37 H          10.2964    3.9411   -0.5817 H       1  LIG1        0.0660
     38 H           9.7455    5.4853   -1.2844 H       1  LIG1        0.0660
     39 C           6.5317    6.6311   -0.3745 C.ar    1  LIG1        0.1586
     40 C           7.0876    7.8444   -0.0926 C.ar    1  LIG1        0.0142
     41 C           6.2585    8.8031   -0.7827 C.ar    1  LIG1        0.0929
     42 C           5.2700    8.1101   -1.4061 C.ar    1  LIG1        0.1102
     43 O           5.4202    6.7953   -1.1727 O.2     1  LIG1       -0.4598
     44 H           4.4358    8.4099   -2.0197 H       1  LIG1        0.1043
     45 C           8.2570    8.1877    0.7699 C.3     1  LIG1       -0.0348
     46 H           7.9423    8.8147    1.6096 H       1  LIG1        0.0279
     47 H           8.9995    8.7598    0.2050 H       1  LIG1        0.0279
     48 H           8.7351    7.2901    1.1582 H       1  LIG1        0.0279
     49 N           6.5916   11.3610   -0.7991 N.1     1  LIG1       -0.1908
     50 C           6.4345   10.2147   -0.7967 C.1     1  LIG1        0.1026
@<TRIPOS>BOND
     1    23    20    1
     2    44    42    1
     3    42    43   ar
     4    42    41   ar
     5    22    20    1
     6    38    35    1
     7    20    21    1
     8    20    19    1
     9    43    39   ar
    10    49    50    3
    11    50    41    1
    12    41    40   ar
    13    37    35    1
    14    29    28    1
    15    39    40   ar
    16    39    27    1
    17    35    36    1
    18    35    34    1
    19     5     2    1
    20    28    27   ar
    21    28    24   ar
    22    40    45    1
    23    27    26   ar
    24    10     1    1
    25    19    14    1
    26    17    18    3
    27     2     1   ar
    28     2     4   ar
    29    18    13    1
    30    14    13   ar
    31    14    15   ar
    32    13    12   ar
    33     1     3   ar
    34    15    24    1
    35    15    16   ar
    36    47    45    1
    37    24    25   ar
    38    12    16   ar
    39    12     4    1
    40     4     7   ar
    41    32    30    1
    42    26    25   ar
    43    26    34    1
    44     3     9    1
    45     3     6   ar
    46    25    30    1
    47     7     6   ar
    48     7    11    1
    49     6     8    1
    50    45    48    1
    51    45    46    1
    52    30    31    1
    53    30    33    1
