@<TRIPOS>MOLECULE
mol_data/opt/cam/geoms/mol2/4aa12if6ad-13he-.out
 45 48 0 0 0
SMALL
GASTEIGER

@<TRIPOS>ATOM
      1 C          -0.1876    0.1452   -0.2609 C.ar    1  LIG1       -0.0611
      2 C           1.1976    0.0971   -0.3435 C.ar    1  LIG1       -0.0511
      3 C          -0.8221    1.2806    0.2281 C.ar    1  LIG1       -0.0617
      4 C           1.9715    1.1841    0.0770 C.ar    1  LIG1        0.0177
      5 H           1.6781   -0.7787   -0.7633 H       1  LIG1        0.0625
      6 C          -0.0607    2.3725    0.6328 C.ar    1  LIG1       -0.0611
      7 C           1.3230    2.3266    0.5608 C.ar    1  LIG1       -0.0511
      8 H          -0.5484    3.2644    1.0123 H       1  LIG1        0.0618
      9 H          -1.9047    1.3176    0.2884 H       1  LIG1        0.0618
     10 H          -0.7738   -0.7052   -0.5936 H       1  LIG1        0.0618
     11 H           1.9164    3.1739    0.8842 H       1  LIG1        0.0625
     12 C           3.4294    1.1462    0.0124 C.ar    1  LIG1        0.1422
     13 C           4.3518    0.1346    0.0522 C.ar    1  LIG1        0.0374
     14 C           5.6216    0.7827   -0.0275 C.ar    1  LIG1        0.1662
     15 C           5.4088    2.1294   -0.0984 C.ar    1  LIG1        0.1786
     16 O           4.0596    2.3480   -0.0706 O.2     1  LIG1       -0.4507
     17 C           4.1475   -1.3388    0.2088 C.3     1  LIG1       -0.0326
     18 H           4.9772   -1.7880    0.7658 H       1  LIG1        0.0280
     19 H           4.0770   -1.8591   -0.7527 H       1  LIG1        0.0280
     20 H           3.2368   -1.5551    0.7701 H       1  LIG1        0.0280
     21 O           6.8477    0.1998   -0.0069 O.3     1  LIG1       -0.5030
     22 H           6.7522   -0.7556   -0.0924 H       1  LIG1        0.2923
     23 C           5.7797    4.5797   -0.3081 C.ar    1  LIG1        0.0392
     24 C           6.2858    3.2752   -0.1986 C.ar    1  LIG1        0.0403
     25 C           7.6704    3.1502   -0.2362 C.ar    1  LIG1       -0.0300
     26 C           8.4710    4.2887   -0.3284 C.ar    1  LIG1        0.0798
     27 C           7.8752    5.5715   -0.3244 C.ar    1  LIG1        0.1062
     28 N           6.5279    5.6650   -0.3602 N.ar    1  LIG1       -0.2514
     29 H           8.1323    2.1703   -0.2222 H       1  LIG1        0.0639
     30 H           4.7051    4.7336   -0.3528 H       1  LIG1        0.0837
     31 N          10.9979    3.9159   -0.7306 N.1     1  LIG1       -0.1908
     32 C           9.8702    4.0928   -0.5323 C.1     1  LIG1        0.1014
     33 C           8.5580    6.8473   -0.3110 C.ar    1  LIG1        0.0884
     34 C           9.8039    7.3408    0.0954 C.ar    1  LIG1        0.0673
     35 C           9.7514    8.7651   -0.0501 C.ar    1  LIG1        0.0632
     36 C           8.4885    9.0896   -0.5133 C.ar    1  LIG1        0.0195
     37 N           7.7933    7.9544   -0.6681 N.ar    1  LIG1       -0.3568
     38 H           6.8198    7.8449   -0.9072 H       1  LIG1        0.1655
     39 H           8.0712   10.0580   -0.7431 H       1  LIG1        0.0820
     40 N          10.8841    6.7037    0.6615 N.pl3   1  LIG1       -0.3553
     41 H          11.1464    5.7982    0.3001 H       1  LIG1        0.1424
     42 H          11.6751    7.3199    0.7909 H       1  LIG1        0.1424
     43 C          10.8232    9.6449    0.2479 C.1     1  LIG1       -0.0663
     44 C          11.7645   10.3505    0.5131 C.1     1  LIG1       -0.1138
     45 H          12.5845   10.9902    0.7435 H       1  LIG1        0.1232
@<TRIPOS>BOND
     1    38    37    1
     2     5     2    1
     3    19    17    1
     4    39    36    1
     5    31    32    3
     6    37    36   ar
     7    37    33   ar
     8    10     1    1
     9    32    26    1
    10    36    35   ar
    11    28    27   ar
    12    28    23   ar
    13    30    23    1
    14     2     1   ar
    15     2     4   ar
    16    26    27   ar
    17    26    25   ar
    18    27    33    1
    19    33    34   ar
    20    23    24   ar
    21     1     3   ar
    22    25    29    1
    23    25    24   ar
    24    24    15    1
    25    15    16   ar
    26    15    14   ar
    27    22    21    1
    28    16    12   ar
    29    35    34   ar
    30    35    43    1
    31    14    21    1
    32    14    13   ar
    33    12    13   ar
    34    12     4    1
    35    13    17    1
    36     4     7   ar
    37    34    40    1
    38    17    18    1
    39    17    20    1
    40     3     9    1
    41     3     6   ar
    42    43    44    3
    43    41    40    1
    44    44    45    1
    45     7     6   ar
    46     7    11    1
    47     6     8    1
    48    40    42    1
