@<TRIPOS>MOLECULE
mol_data/opt/cam/geoms/mol2/4aa4aa-4aa-4aa.out
 42 45 0 0 0
SMALL
GASTEIGER

@<TRIPOS>ATOM
      1 C          -0.2806    0.1021   -0.0034 C.ar    1  LIG1       -0.0612
      2 C           1.1069    0.0464   -0.0003 C.ar    1  LIG1       -0.0540
      3 C          -0.9316    1.3303   -0.0070 C.ar    1  LIG1       -0.0617
      4 C           1.8720    1.2164   -0.0027 C.ar    1  LIG1       -0.0179
      5 H           1.6065   -0.9166    0.0280 H       1  LIG1        0.0624
      6 C          -0.1831    2.5016   -0.0086 C.ar    1  LIG1       -0.0612
      7 C           1.2043    2.4447   -0.0073 C.ar    1  LIG1       -0.0540
      8 H          -0.6814    3.4658   -0.0194 H       1  LIG1        0.0618
      9 H          -2.0158    1.3743   -0.0087 H       1  LIG1        0.0618
     10 H          -0.8554   -0.8184    0.0058 H       1  LIG1        0.0618
     11 H           1.7804    3.3640   -0.0341 H       1  LIG1        0.0624
     12 C           4.1121    2.0638    0.7441 C.ar    1  LIG1       -0.0535
     13 C           5.4974    2.0077    0.7463 C.ar    1  LIG1       -0.0535
     14 C           3.3538    1.1563   -0.0004 C.ar    1  LIG1       -0.0178
     15 C           6.1821    1.0415    0.0041 C.ar    1  LIG1       -0.0178
     16 H           6.0578    2.7053    1.3601 H       1  LIG1        0.0624
     17 C           4.0384    0.1902   -0.7425 C.ar    1  LIG1       -0.0535
     18 C           5.4237    0.1338   -0.7403 C.ar    1  LIG1       -0.0535
     19 H           3.4777   -0.5074   -1.3561 H       1  LIG1        0.0624
     20 H           3.6078    2.8046    1.3561 H       1  LIG1        0.0624
     21 H           5.9277   -0.6071   -1.3524 H       1  LIG1        0.0624
     22 C           8.4329    2.1475    0.0105 C.ar    1  LIG1       -0.0535
     23 C           9.8181    2.0912    0.0135 C.ar    1  LIG1       -0.0535
     24 C           7.6628    0.9813    0.0065 C.ar    1  LIG1       -0.0178
     25 C          10.4909    0.8664    0.0109 C.ar    1  LIG1       -0.0178
     26 H          10.3893    3.0137    0.0332 H       1  LIG1        0.0624
     27 C           8.3357   -0.2435    0.0047 C.ar    1  LIG1       -0.0535
     28 C           9.7209   -0.2998    0.0060 C.ar    1  LIG1       -0.0535
     29 H           7.7647   -1.1663    0.0177 H       1  LIG1        0.0624
     30 H           7.9387    3.1136   -0.0043 H       1  LIG1        0.0624
     31 H          10.2154   -1.2656   -0.0120 H       1  LIG1        0.0624
     32 C          12.6499   -0.1556    0.7689 C.ar    1  LIG1       -0.0540
     33 C          14.0373   -0.2129    0.7710 C.ar    1  LIG1       -0.0612
     34 C          11.9728    0.8061    0.0133 C.ar    1  LIG1       -0.0179
     35 C          14.7762    0.6920    0.0177 C.ar    1  LIG1       -0.0617
     36 H          14.5433   -0.9629    1.3705 H       1  LIG1        0.0618
     37 C          12.7282    1.7096   -0.7401 C.ar    1  LIG1       -0.0540
     38 C          14.1157    1.6539   -0.7378 C.ar    1  LIG1       -0.0612
     39 H          12.2204    2.4478   -1.3522 H       1  LIG1        0.0624
     40 H          15.8604    0.6479    0.0194 H       1  LIG1        0.0618
     41 H          12.0818   -0.8501    1.3794 H       1  LIG1        0.0624
     42 H          14.6828    2.3602   -1.3356 H       1  LIG1        0.0618
@<TRIPOS>BOND
     1    19    17    1
     2    21    18    1
     3    39    37    1
     4    42    38    1
     5    17    18   ar
     6    17    14   ar
     7    18    15   ar
     8    37    38   ar
     9    37    34   ar
    10    38    35   ar
    11    11     7    1
    12     8     6    1
    13    31    28    1
    14     9     3    1
    15     6     7   ar
    16     6     3   ar
    17     7     4   ar
    18     3     1   ar
    19    30    22    1
    20     1     2   ar
    21     1    10    1
    22     4    14    1
    23     4     2   ar
    24    14    12   ar
    25     2     5    1
    26    15    24    1
    27    15    13   ar
    28    27    28   ar
    29    27    24   ar
    30    27    29    1
    31    28    25   ar
    32    24    22   ar
    33    22    23   ar
    34    25    34    1
    35    25    23   ar
    36    34    32   ar
    37    23    26    1
    38    35    40    1
    39    35    33   ar
    40    12    13   ar
    41    12    20    1
    42    13    16    1
    43    32    33   ar
    44    32    41    1
    45    33    36    1
