@<TRIPOS>MOLECULE
mol_data/opt/cam/geoms/mol2/4aa4aa4aa-4aa.out
 42 45 0 0 0
SMALL
GASTEIGER

@<TRIPOS>ATOM
      1 C          -0.2536    0.3342    0.7517 C.ar    1  LIG1       -0.0612
      2 C           1.1346    0.3047    0.7528 C.ar    1  LIG1       -0.0540
      3 C          -0.9329    1.2857   -0.0004 C.ar    1  LIG1       -0.0617
      4 C           1.8722    1.2245    0.0016 C.ar    1  LIG1       -0.0179
      5 H           1.6567   -0.4258    1.3622 H       1  LIG1        0.0624
      6 C          -0.2117    2.2066   -0.7516 C.ar    1  LIG1       -0.0612
      7 C           1.1765    2.1754   -0.7508 C.ar    1  LIG1       -0.0540
      8 H          -0.7323    2.9486   -1.3485 H       1  LIG1        0.0618
      9 H          -2.0177    1.3094   -0.0011 H       1  LIG1        0.0618
     10 H          -0.8069   -0.3845    1.3478 H       1  LIG1        0.0618
     11 H           1.7308    2.8823   -1.3596 H       1  LIG1        0.0624
     12 C           4.0506   -0.0199   -0.0042 C.ar    1  LIG1       -0.0535
     13 C           5.4366   -0.0504   -0.0023 C.ar    1  LIG1       -0.0535
     14 C           3.3550    1.1920    0.0025 C.ar    1  LIG1       -0.0178
     15 C           6.1848    1.1299    0.0046 C.ar    1  LIG1       -0.0178
     16 H           5.9487   -1.0071    0.0094 H       1  LIG1        0.0624
     17 C           4.1030    2.3723    0.0104 C.ar    1  LIG1       -0.0535
     18 C           5.4891    2.3420    0.0105 C.ar    1  LIG1       -0.0535
     19 H           3.5906    3.3287    0.0317 H       1  LIG1        0.0624
     20 H           3.4968   -0.9530   -0.0260 H       1  LIG1        0.0624
     21 H           6.0427    3.2753   -0.0002 H       1  LIG1        0.0624
     22 C           8.4082    2.0175    0.7519 C.ar    1  LIG1       -0.0535
     23 C           9.7942    1.9871    0.7529 C.ar    1  LIG1       -0.0535
     24 C           7.6664    1.0975    0.0057 C.ar    1  LIG1       -0.0178
     25 C          10.4963    1.0357    0.0079 C.ar    1  LIG1       -0.0178
     26 H          10.3423    2.6936    1.3677 H       1  LIG1        0.0624
     27 C           8.3685    0.1461   -0.7393 C.ar    1  LIG1       -0.0535
     28 C           9.7546    0.1160   -0.7382 C.ar    1  LIG1       -0.0535
     29 H           7.8207   -0.5605   -1.3543 H       1  LIG1        0.0624
     30 H           7.8908    2.7473    1.3661 H       1  LIG1        0.0624
     31 H          10.2722   -0.6139   -1.3521 H       1  LIG1        0.0624
     32 C          12.6697   -0.2119    0.0101 C.ar    1  LIG1       -0.0540
     33 C          14.0580   -0.2426    0.0104 C.ar    1  LIG1       -0.0612
     34 C          11.9790    1.0035    0.0090 C.ar    1  LIG1       -0.0179
     35 C          14.7842    0.9426    0.0114 C.ar    1  LIG1       -0.0617
     36 H          14.5744   -1.1972    0.0184 H       1  LIG1        0.0618
     37 C          12.7219    2.1879    0.0091 C.ar    1  LIG1       -0.0540
     38 C          14.1100    2.1583    0.0111 C.ar    1  LIG1       -0.0612
     39 H          12.2040    3.1412   -0.0165 H       1  LIG1        0.0624
     40 H          15.8690    0.9191    0.0123 H       1  LIG1        0.0618
     41 H          12.1110   -1.1419    0.0347 H       1  LIG1        0.0624
     42 H          14.6675    3.0896    0.0039 H       1  LIG1        0.0618
@<TRIPOS>BOND
     1    11     7    1
     2    29    27    1
     3    31    28    1
     4     8     6    1
     5     6     7   ar
     6     6     3   ar
     7     7     4   ar
     8    27    28   ar
     9    27    24   ar
    10    28    25   ar
    11    20    12    1
    12    39    37    1
    13    12    13   ar
    14    12    14   ar
    15    13    15   ar
    16    13    16    1
    17     9     3    1
    18     3     1   ar
    19    21    18    1
    20     4    14    1
    21     4     2   ar
    22    14    17   ar
    23    42    38    1
    24    15    24    1
    25    15    18   ar
    26    24    22   ar
    27    25    34    1
    28    25    23   ar
    29    34    37   ar
    30    34    32   ar
    31    37    38   ar
    32    32    33   ar
    33    32    41    1
    34    33    35   ar
    35    33    36    1
    36    17    18   ar
    37    17    19    1
    38    38    35   ar
    39    35    40    1
    40     1     2   ar
    41     1    10    1
    42    22    23   ar
    43    22    30    1
    44     2     5    1
    45    23    26    1
