@<TRIPOS>MOLECULE
mol_data/opt/cam/geoms/mol2/4aa4aa-4aa4aa-.out
 42 45 0 0 0
SMALL
GASTEIGER

@<TRIPOS>ATOM
      1 C          -0.2698    0.1511    0.4022 C.ar    1  LIG1       -0.0612
      2 C           1.1180    0.1069    0.4046 C.ar    1  LIG1       -0.0540
      3 C          -0.9325    1.3033   -0.0049 C.ar    1  LIG1       -0.0617
      4 C           1.8718    1.2122   -0.0013 C.ar    1  LIG1       -0.0179
      5 H           1.6272   -0.7879    0.7478 H       1  LIG1        0.0624
      6 C          -0.1953    2.4099   -0.4102 C.ar    1  LIG1       -0.0612
      7 C           1.1924    2.3640   -0.4090 C.ar    1  LIG1       -0.0540
      8 H          -0.7030    3.3117   -0.7375 H       1  LIG1        0.0618
      9 H          -2.0170    1.3385   -0.0063 H       1  LIG1        0.0618
     10 H          -0.8357   -0.7158    0.7281 H       1  LIG1        0.0618
     11 H           1.7595    3.2238   -0.7508 H       1  LIG1        0.0624
     12 C           4.1120    2.2724    0.3878 C.ar    1  LIG1       -0.0535
     13 C           5.4976    2.2274    0.3899 C.ar    1  LIG1       -0.0535
     14 C           3.3540    1.1640    0.0007 C.ar    1  LIG1       -0.0178
     15 C           6.1832    1.0721    0.0043 C.ar    1  LIG1       -0.0178
     16 H           6.0582    3.0931    0.7273 H       1  LIG1        0.0624
     17 C           4.0394    0.0087   -0.3846 C.ar    1  LIG1       -0.0535
     18 C           5.4251   -0.0363   -0.3831 C.ar    1  LIG1       -0.0535
     19 H           3.4785   -0.8570   -0.7214 H       1  LIG1        0.0624
     20 H           3.6075    3.1727    0.7232 H       1  LIG1        0.0624
     21 H           5.9292   -0.9366   -0.7191 H       1  LIG1        0.0624
     22 C           8.3489   -0.1313    0.3937 C.ar    1  LIG1       -0.0535
     23 C           9.7345   -0.1763    0.3952 C.ar    1  LIG1       -0.0535
     24 C           7.6643    1.0240    0.0063 C.ar    1  LIG1       -0.0178
     25 C          10.4935    0.9320    0.0099 C.ar    1  LIG1       -0.0178
     26 H          10.2381   -1.0767    0.7319 H       1  LIG1        0.0624
     27 C           8.4234    2.1323   -0.3793 C.ar    1  LIG1       -0.0535
     28 C           9.8091    2.0873   -0.3772 C.ar    1  LIG1       -0.0535
     29 H           7.9202    3.0326   -0.7166 H       1  LIG1        0.0624
     30 H           7.7874   -0.9970    0.7296 H       1  LIG1        0.0624
     31 H          10.3709    2.9530   -0.7126 H       1  LIG1        0.0624
     32 C          12.7284    1.9891    0.4196 C.ar    1  LIG1       -0.0540
     33 C          14.1162    1.9449    0.4208 C.ar    1  LIG1       -0.0612
     34 C          11.9757    0.8839    0.0119 C.ar    1  LIG1       -0.0179
     35 C          14.7800    0.7928    0.0155 C.ar    1  LIG1       -0.0617
     36 H          14.6813    2.8118    0.7481 H       1  LIG1        0.0618
     37 C          12.6561   -0.2680   -0.3941 C.ar    1  LIG1       -0.0540
     38 C          14.0439   -0.3139   -0.3917 C.ar    1  LIG1       -0.0612
     39 H          12.0899   -1.1278   -0.7373 H       1  LIG1        0.0624
     40 H          15.8645    0.7575    0.0169 H       1  LIG1        0.0618
     41 H          12.2184    2.8839    0.7614 H       1  LIG1        0.0624
     42 H          14.5524   -1.2157   -0.7175 H       1  LIG1        0.0618
@<TRIPOS>BOND
     1    11     7    1
     2     8     6    1
     3    39    37    1
     4    19    17    1
     5    21    18    1
     6    42    38    1
     7    29    27    1
     8    31    28    1
     9     6     7   ar
    10     6     3   ar
    11     7     4   ar
    12    37    38   ar
    13    37    34   ar
    14    38    35   ar
    15    17    18   ar
    16    17    14   ar
    17    18    15   ar
    18    27    28   ar
    19    27    24   ar
    20    28    25   ar
    21     9     3    1
    22     3     1   ar
    23     4    14    1
    24     4     2   ar
    25    14    12   ar
    26    15    24    1
    27    15    13   ar
    28    24    22   ar
    29    25    34    1
    30    25    23   ar
    31    34    32   ar
    32    35    40    1
    33    35    33   ar
    34    12    13   ar
    35    12    20    1
    36    13    16    1
    37    22    23   ar
    38    22    30    1
    39    23    26    1
    40     1     2   ar
    41     1    10    1
    42     2     5    1
    43    32    33   ar
    44    32    41    1
    45    33    36    1
