@<TRIPOS>MOLECULE
mol_data/opt/cam/geoms/mol2/4aa4aa-12al-4il.out
 50 53 0 0 0
SMALL
GASTEIGER

@<TRIPOS>ATOM
      1 C          -0.2594    0.3666   -0.5642 C.ar    1  LIG1       -0.0612
      2 C           1.1269    0.3595   -0.6416 C.ar    1  LIG1       -0.0540
      3 C          -0.9048    1.1856    0.3551 C.ar    1  LIG1       -0.0617
      4 C           1.8970    1.1691    0.1990 C.ar    1  LIG1       -0.0179
      5 H           1.6208   -0.2638   -1.3800 H       1  LIG1        0.0624
      6 C          -0.1515    1.9964    1.1963 C.ar    1  LIG1       -0.0612
      7 C           1.2348    1.9872    1.1194 C.ar    1  LIG1       -0.0540
      8 H          -0.6450    2.6338    1.9230 H       1  LIG1        0.0618
      9 H          -1.9882    1.1921    0.4155 H       1  LIG1        0.0618
     10 H          -0.8382   -0.2643   -1.2313 H       1  LIG1        0.0618
     11 H           1.8151    2.6045    1.7974 H       1  LIG1        0.0624
     12 C           4.0795   -0.0285   -0.1090 C.ar    1  LIG1       -0.0534
     13 C           5.4616   -0.0405   -0.1859 C.ar    1  LIG1       -0.0505
     14 C           3.3771    1.1599    0.1166 C.ar    1  LIG1       -0.0178
     15 C           6.1959    1.1404   -0.0392 C.ar    1  LIG1        0.0174
     16 H           5.9769   -0.9807   -0.3528 H       1  LIG1        0.0625
     17 C           4.1169    2.3368    0.2623 C.ar    1  LIG1       -0.0534
     18 C           5.5002    2.3317    0.1869 C.ar    1  LIG1       -0.0505
     19 H           3.5977    3.2773    0.4146 H       1  LIG1        0.0624
     20 H           3.5333   -0.9614   -0.2016 H       1  LIG1        0.0624
     21 H           6.0547    3.2562    0.2963 H       1  LIG1        0.0625
     22 C           7.6505    1.1316   -0.1212 C.ar    1  LIG1        0.1393
     23 C           8.5679    0.1411   -0.3240 C.ar    1  LIG1        0.0267
     24 C           9.8449    0.7740   -0.2879 C.ar    1  LIG1        0.1662
     25 C           9.6390    2.1079   -0.0493 C.ar    1  LIG1        0.1774
     26 O           8.2861    2.3148    0.0380 O.2     1  LIG1       -0.4510
     27 H           8.3586   -0.9037   -0.4888 H       1  LIG1        0.0692
     28 O          11.0615    0.2169   -0.4973 O.3     1  LIG1       -0.4913
     29 C          11.0738   -1.1707   -0.7623 C.3     1  LIG1        0.0790
     30 H          12.1180   -1.4475   -0.9056 H       1  LIG1        0.0660
     31 H          10.6612   -1.7441    0.0761 H       1  LIG1        0.0660
     32 H          10.5107   -1.4089   -1.6721 H       1  LIG1        0.0660
     33 C          11.7007    3.3261    0.7395 C.ar    1  LIG1       -0.0395
     34 C          12.4250    4.5124    0.7317 C.ar    1  LIG1       -0.0547
     35 C          10.4882    3.2984    0.0188 C.ar    1  LIG1        0.0273
     36 C          11.9941    5.6560    0.0661 C.ar    1  LIG1       -0.0197
     37 H          13.3589    4.5546    1.2845 H       1  LIG1        0.0622
     38 C          10.0420    4.4446   -0.6370 C.ar    1  LIG1       -0.0089
     39 C          10.7830    5.6218   -0.6169 C.ar    1  LIG1        0.1208
     40 H           9.1069    4.4327   -1.1841 H       1  LIG1        0.0661
     41 H          12.5983    6.5536    0.0999 H       1  LIG1        0.0654
     42 C          12.1949    2.1501    1.5376 C.3     1  LIG1       -0.0390
     43 H          12.9900    2.4587    2.2200 H       1  LIG1        0.0278
     44 H          12.5783    1.3549    0.8949 H       1  LIG1        0.0278
     45 H          11.3881    1.7109    2.1316 H       1  LIG1        0.0278
     46 O          10.2456    6.6730   -1.2971 O.3     1  LIG1       -0.4951
     47 C          10.9671    7.8834   -1.3167 C.3     1  LIG1        0.0788
     48 H          10.3749    8.5826   -1.9072 H       1  LIG1        0.0660
     49 H          11.1028    8.2918   -0.3079 H       1  LIG1        0.0660
     50 H          11.9511    7.7620   -1.7856 H       1  LIG1        0.0660
@<TRIPOS>BOND
     1    48    47    1
     2    50    47    1
     3    32    29    1
     4     5     2    1
     5    47    46    1
     6    47    49    1
     7    46    39    1
     8    10     1    1
     9    40    38    1
    10    30    29    1
    11    29    28    1
    12    29    31    1
    13     2     1   ar
    14     2     4   ar
    15    38    39   ar
    16    38    35   ar
    17    39    36   ar
    18     1     3   ar
    19    28    24    1
    20    27    23    1
    21    16    13    1
    22    23    24   ar
    23    23    22   ar
    24    24    25   ar
    25    20    12    1
    26    13    12   ar
    27    13    15   ar
    28    22    15    1
    29    22    26   ar
    30    12    14   ar
    31    25    35    1
    32    25    26   ar
    33    15    18   ar
    34    35    33   ar
    35    36    41    1
    36    36    34   ar
    37    14     4    1
    38    14    17   ar
    39    18    17   ar
    40    18    21    1
    41     4     7   ar
    42    17    19    1
    43     3     9    1
    44     3     6   ar
    45    34    33   ar
    46    34    37    1
    47    33    42    1
    48    44    42    1
    49     7     6   ar
    50     7    11    1
    51     6     8    1
    52    42    45    1
    53    42    43    1
