@<TRIPOS>MOLECULE
mol_data/opt/cam/geoms/mol2/4aa4aa-.out
 22 23 0 0 0
SMALL
GASTEIGER

@<TRIPOS>ATOM
      1 C          -0.0450    0.1418    0.4055 C.ar    1  LIG1       -0.0612
      2 C           1.3430    0.0997    0.4062 C.ar    1  LIG1       -0.0540
      3 C          -0.7099    1.2931   -0.0002 C.ar    1  LIG1       -0.0617
      4 C           2.0944    1.2064    0.0003 C.ar    1  LIG1       -0.0179
      5 H           1.8544   -0.7944    0.7478 H       1  LIG1        0.0624
      6 C           0.0251    2.4011   -0.4058 C.ar    1  LIG1       -0.0612
      7 C           1.4130    2.3573   -0.4060 C.ar    1  LIG1       -0.0540
      8 H          -0.4844    3.3022   -0.7319 H       1  LIG1        0.0618
      9 H          -1.7945    1.3267   -0.0005 H       1  LIG1        0.0618
     10 H          -0.6093   -0.7262    0.7314 H       1  LIG1        0.0618
     11 H           1.9788    3.2181   -0.7475 H       1  LIG1        0.0624
     12 C           4.3293    2.2668    0.4068 C.ar    1  LIG1       -0.0540
     13 C           5.7173    2.2245    0.4065 C.ar    1  LIG1       -0.0612
     14 C           3.5779    1.1604    0.0004 C.ar    1  LIG1       -0.0179
     15 C           6.3822    1.0731    0.0010 C.ar    1  LIG1       -0.0617
     16 H           6.2816    3.0923    0.7327 H       1  LIG1        0.0618
     17 C           4.2593    0.0093   -0.4055 C.ar    1  LIG1       -0.0540
     18 C           5.6472   -0.0348   -0.4048 C.ar    1  LIG1       -0.0612
     19 H           3.6934   -0.8514   -0.7471 H       1  LIG1        0.0624
     20 H           7.4668    1.0394    0.0012 H       1  LIG1        0.0618
     21 H           3.8180    3.1610    0.7483 H       1  LIG1        0.0624
     22 H           6.1566   -0.9360   -0.7307 H       1  LIG1        0.0618
@<TRIPOS>BOND
     1    11     7    1
     2    19    17    1
     3     8     6    1
     4    22    18    1
     5     7     6   ar
     6     7     4   ar
     7     6     3   ar
     8    17    18   ar
     9    17    14   ar
    10    18    15   ar
    11     9     3    1
    12     3     1   ar
    13     4    14    1
    14     4     2   ar
    15    14    12   ar
    16    15    20    1
    17    15    13   ar
    18     1     2   ar
    19     1    10    1
    20     2     5    1
    21    13    12   ar
    22    13    16    1
    23    12    21    1
