@<TRIPOS>MOLECULE
mol_data/opt/cam/geoms/mol2/4aa4aa-4aa.out
 32 34 0 0 0
SMALL
GASTEIGER

@<TRIPOS>ATOM
      1 C          -0.1590    0.1030    0.2646 C.ar    1  LIG1       -0.0612
      2 C           1.2288    0.0595    0.2665 C.ar    1  LIG1       -0.0540
      3 C          -0.8214    1.2957   -0.0017 C.ar    1  LIG1       -0.0617
      4 C           1.9831    1.2061    0.0002 C.ar    1  LIG1       -0.0179
      5 H           1.7376   -0.8701    0.5002 H       1  LIG1        0.0624
      6 C          -0.0838    2.4437   -0.2670 C.ar    1  LIG1       -0.0612
      7 C           1.3040    2.3985   -0.2669 C.ar    1  LIG1       -0.0540
      8 H          -0.5911    3.3784   -0.4837 H       1  LIG1        0.0618
      9 H          -1.9059    1.3304   -0.0024 H       1  LIG1        0.0618
     10 H          -0.7252   -0.7974    0.4807 H       1  LIG1        0.0618
     11 H           1.8714    3.2937   -0.4999 H       1  LIG1        0.0624
     12 C           4.2212    2.2145    0.5180 C.ar    1  LIG1       -0.0535
     13 C           5.6069    2.1702    0.5189 C.ar    1  LIG1       -0.0535
     14 C           3.4654    1.1587    0.0012 C.ar    1  LIG1       -0.0178
     15 C           6.2944    1.0683    0.0031 C.ar    1  LIG1       -0.0178
     16 H           6.1662    2.9908    0.9563 H       1  LIG1        0.0624
     17 C           4.1529    0.0568   -0.5146 C.ar    1  LIG1       -0.0535
     18 C           5.5386    0.0125   -0.5137 C.ar    1  LIG1       -0.0535
     19 H           3.5936   -0.7638   -0.9520 H       1  LIG1        0.0624
     20 H           3.7148    3.0692    0.9547 H       1  LIG1        0.0624
     21 H           6.0450   -0.8422   -0.9503 H       1  LIG1        0.0624
     22 C           8.4558   -0.1715    0.2713 C.ar    1  LIG1       -0.0540
     23 C           9.8436   -0.2167    0.2714 C.ar    1  LIG1       -0.0612
     24 C           7.7767    1.0210    0.0041 C.ar    1  LIG1       -0.0179
     25 C          10.5812    0.9313    0.0060 C.ar    1  LIG1       -0.0617
     26 H          10.3509   -1.1513    0.4882 H       1  LIG1        0.0618
     27 C           8.5309    2.1676   -0.2622 C.ar    1  LIG1       -0.0540
     28 C           9.9188    2.1240   -0.2604 C.ar    1  LIG1       -0.0612
     29 H           8.0221    3.0971   -0.4960 H       1  LIG1        0.0624
     30 H          11.6657    0.8966    0.0067 H       1  LIG1        0.0618
     31 H           7.8883   -1.0666    0.5043 H       1  LIG1        0.0624
     32 H          10.4850    3.0244   -0.4765 H       1  LIG1        0.0618
@<TRIPOS>BOND
     1    19    17    1
     2    21    18    1
     3    17    18   ar
     4    17    14   ar
     5    18    15   ar
     6    11     7    1
     7    29    27    1
     8     8     6    1
     9    32    28    1
    10     6     7   ar
    11     6     3   ar
    12     7     4   ar
    13    27    28   ar
    14    27    24   ar
    15    28    25   ar
    16     9     3    1
    17     3     1   ar
    18     4    14    1
    19     4     2   ar
    20    14    12   ar
    21    15    24    1
    22    15    13   ar
    23    24    22   ar
    24    25    30    1
    25    25    23   ar
    26     1     2   ar
    27     1    10    1
    28     2     5    1
    29    22    23   ar
    30    22    31    1
    31    23    26    1
    32    12    13   ar
    33    12    20    1
    34    13    16    1
