@<TRIPOS>MOLECULE
mol_data/opt/cam/geoms/mol2/4aa4aa.out
 22 23 0 0 0
SMALL
GASTEIGER

@<TRIPOS>ATOM
      1 C          -0.0308    0.1241    0.4056 C.ar    1  LIG1       -0.0612
      2 C           1.3577    0.1000    0.4063 C.ar    1  LIG1       -0.0540
      3 C          -0.7106    1.2666   -0.0004 C.ar    1  LIG1       -0.0617
      4 C           2.0947    1.2162    0.0002 C.ar    1  LIG1       -0.0179
      5 H           1.8803   -0.7875    0.7480 H       1  LIG1        0.0624
      6 C           0.0100    2.3839   -0.4060 C.ar    1  LIG1       -0.0612
      7 C           1.3984    2.3581   -0.4061 C.ar    1  LIG1       -0.0540
      8 H          -0.5109    3.2785   -0.7323 H       1  LIG1        0.0618
      9 H          -1.7955    1.2861   -0.0006 H       1  LIG1        0.0618
     10 H          -0.5836   -0.7511    0.7317 H       1  LIG1        0.0618
     11 H           1.9528    3.2263   -0.7476 H       1  LIG1        0.0624
     12 C           4.2752    0.0474   -0.4049 C.ar    1  LIG1       -0.0540
     13 C           5.6635    0.0216   -0.4042 C.ar    1  LIG1       -0.0612
     14 C           3.5787    1.1895    0.0006 C.ar    1  LIG1       -0.0179
     15 C           6.3840    1.1392    0.0011 C.ar    1  LIG1       -0.0617
     16 H           6.1846   -0.8731   -0.7298 H       1  LIG1        0.0618
     17 C           4.3155    2.3060    0.4062 C.ar    1  LIG1       -0.0540
     18 C           5.7040    2.2819    0.4061 C.ar    1  LIG1       -0.0612
     19 H           3.7927    3.1937    0.7471 H       1  LIG1        0.0624
     20 H           7.4689    1.1197    0.0013 H       1  LIG1        0.0618
     21 H           3.7210   -0.8210   -0.7461 H       1  LIG1        0.0624
     22 H           6.2567    3.1573    0.7318 H       1  LIG1        0.0618
@<TRIPOS>BOND
     1    11     7    1
     2    21    12    1
     3     8     6    1
     4    16    13    1
     5     7     6   ar
     6     7     4   ar
     7     6     3   ar
     8    12    13   ar
     9    12    14   ar
    10    13    15   ar
    11     9     3    1
    12     3     1   ar
    13     4    14    1
    14     4     2   ar
    15    14    17   ar
    16    15    20    1
    17    15    18   ar
    18     1     2   ar
    19     1    10    1
    20    18    17   ar
    21    18    22    1
    22    17    19    1
    23     2     5    1
