@<TRIPOS>MOLECULE
mol_data/opt/cam/geoms/mol2/4aa4aa-4aa4aa.out
 42 45 0 0 0
SMALL
GASTEIGER

@<TRIPOS>ATOM
      1 C          -0.2656    0.1344    0.4087 C.ar    1  LIG1       -0.0612
      2 C           1.1223    0.0955    0.4102 C.ar    1  LIG1       -0.0540
      3 C          -0.9331    1.2835    0.0008 C.ar    1  LIG1       -0.0617
      4 C           1.8716    1.2031    0.0023 C.ar    1  LIG1       -0.0179
      5 H           1.6352   -0.7968    0.7543 H       1  LIG1        0.0624
      6 C          -0.2005    2.3925   -0.4063 C.ar    1  LIG1       -0.0612
      7 C           1.1875    2.3518   -0.4062 C.ar    1  LIG1       -0.0540
      8 H          -0.7117    3.2920   -0.7341 H       1  LIG1        0.0618
      9 H          -2.0177    1.3146    0.0001 H       1  LIG1        0.0618
     10 H          -0.8279   -0.7344    0.7359 H       1  LIG1        0.0618
     11 H           1.7510    3.2134   -0.7496 H       1  LIG1        0.0624
     12 C           4.1079    2.2726    0.3878 C.ar    1  LIG1       -0.0535
     13 C           5.4937    2.2328    0.3888 C.ar    1  LIG1       -0.0535
     14 C           3.3538    1.1606    0.0033 C.ar    1  LIG1       -0.0178
     15 C           6.1835    1.0795    0.0049 C.ar    1  LIG1       -0.0178
     16 H           6.0512    3.1013    0.7242 H       1  LIG1        0.0624
     17 C           4.0434    0.0073   -0.3805 C.ar    1  LIG1       -0.0535
     18 C           5.4292   -0.0325   -0.3799 C.ar    1  LIG1       -0.0535
     19 H           3.4855   -0.8612   -0.7154 H       1  LIG1        0.0624
     20 H           3.6004    3.1716    0.7220 H       1  LIG1        0.0624
     21 H           5.9364   -0.9315   -0.7147 H       1  LIG1        0.0624
     22 C           8.3540   -0.1150    0.3943 C.ar    1  LIG1       -0.0535
     23 C           9.7397   -0.1547    0.3949 C.ar    1  LIG1       -0.0535
     24 C           7.6646    1.0370    0.0057 C.ar    1  LIG1       -0.0178
     25 C          10.4942    0.9560    0.0074 C.ar    1  LIG1       -0.0178
     26 H          10.2471   -1.0526    0.7324 H       1  LIG1        0.0624
     27 C           8.4192    2.1477   -0.3821 C.ar    1  LIG1       -0.0535
     28 C           9.8050    2.1080   -0.3810 C.ar    1  LIG1       -0.0535
     29 H           7.9122    3.0454   -0.7205 H       1  LIG1        0.0624
     30 H           7.7960   -0.9823    0.7322 H       1  LIG1        0.0624
     31 H          10.3633    2.9754   -0.7179 H       1  LIG1        0.0624
     32 C          12.6611   -0.2365   -0.3958 C.ar    1  LIG1       -0.0540
     33 C          14.0491   -0.2771   -0.3944 C.ar    1  LIG1       -0.0612
     34 C          11.9766    0.9135    0.0082 C.ar    1  LIG1       -0.0179
     35 C          14.7812    0.8333    0.0098 C.ar    1  LIG1       -0.0617
     36 H          14.5609   -1.1775   -0.7188 H       1  LIG1        0.0618
     37 C          12.7253    2.0226    0.4131 C.ar    1  LIG1       -0.0540
     38 C          14.1133    1.9837    0.4133 C.ar    1  LIG1       -0.0612
     39 H          12.2120    2.9161    0.7534 H       1  LIG1        0.0624
     40 H          15.8658    0.8023    0.0104 H       1  LIG1        0.0618
     41 H          12.0980   -1.0992   -0.7367 H       1  LIG1        0.0624
     42 H          14.6753    2.8535    0.7383 H       1  LIG1        0.0618
@<TRIPOS>BOND
     1    11     7    1
     2    41    32    1
     3     8     6    1
     4    29    27    1
     5    36    33    1
     6    31    28    1
     7    19    17    1
     8    21    18    1
     9     6     7   ar
    10     6     3   ar
    11     7     4   ar
    12    32    33   ar
    13    32    34   ar
    14    33    35   ar
    15    27    28   ar
    16    27    24   ar
    17    28    25   ar
    18    17    18   ar
    19    17    14   ar
    20    18    15   ar
    21     9     3    1
    22     3     1   ar
    23     4    14    1
    24     4     2   ar
    25    14    12   ar
    26    15    24    1
    27    15    13   ar
    28    24    22   ar
    29    25    34    1
    30    25    23   ar
    31    34    37   ar
    32    35    40    1
    33    35    38   ar
    34    12    13   ar
    35    12    20    1
    36    13    16    1
    37    22    23   ar
    38    22    30    1
    39    23    26    1
    40     1     2   ar
    41     1    10    1
    42     2     5    1
    43    37    38   ar
    44    37    39    1
    45    38    42    1
