@<TRIPOS>MOLECULE
mol_data/opt/cam/geoms/mol2/4aa4aa4aa-4aa-.out
 42 45 0 0 0
SMALL
GASTEIGER

@<TRIPOS>ATOM
      1 C          -0.2571    0.3505    0.7488 C.ar    1  LIG1       -0.0612
      2 C           1.1310    0.3159    0.7506 C.ar    1  LIG1       -0.0540
      3 C          -0.9324    1.3043   -0.0039 C.ar    1  LIG1       -0.0617
      4 C           1.8724    1.2327   -0.0006 C.ar    1  LIG1       -0.0179
      5 H           1.6502   -0.4162    1.3605 H       1  LIG1        0.0624
      6 C          -0.2075    2.2223   -0.7550 C.ar    1  LIG1       -0.0612
      7 C           1.1806    2.1861   -0.7535 C.ar    1  LIG1       -0.0540
      8 H          -0.7251    2.9662   -1.3524 H       1  LIG1        0.0618
      9 H          -2.0171    1.3320   -0.0052 H       1  LIG1        0.0618
     10 H          -0.8133   -0.3659    1.3449 H       1  LIG1        0.0618
     11 H           1.7379    2.8907   -1.3622 H       1  LIG1        0.0624
     12 C           4.0462   -0.0197   -0.0048 C.ar    1  LIG1       -0.0535
     13 C           5.4321   -0.0551   -0.0024 C.ar    1  LIG1       -0.0535
     14 C           3.3550    1.1948    0.0011 C.ar    1  LIG1       -0.0178
     15 C           6.1846    1.1226    0.0044 C.ar    1  LIG1       -0.0178
     16 H           5.9408   -1.0136    0.0099 H       1  LIG1        0.0624
     17 C           4.1073    2.3724    0.0088 C.ar    1  LIG1       -0.0535
     18 C           5.4932    2.3371    0.0095 C.ar    1  LIG1       -0.0535
     19 H           3.5983    3.3306    0.0293 H       1  LIG1        0.0624
     20 H           3.4890   -0.9506   -0.0266 H       1  LIG1        0.0624
     21 H           6.0502    3.2684   -0.0014 H       1  LIG1        0.0624
     22 C           8.4109    2.0019    0.7527 C.ar    1  LIG1       -0.0535
     23 C           9.7969    1.9663    0.7543 C.ar    1  LIG1       -0.0535
     24 C           7.6660    1.0847    0.0062 C.ar    1  LIG1       -0.0178
     25 C          10.4957    1.0125    0.0095 C.ar    1  LIG1       -0.0178
     26 H          10.3473    2.6708    1.3694 H       1  LIG1        0.0624
     27 C           8.3649    0.1307   -0.7386 C.ar    1  LIG1       -0.0535
     28 C           9.7508    0.0955   -0.7370 C.ar    1  LIG1       -0.0535
     29 H           7.8147   -0.5738   -1.3539 H       1  LIG1        0.0624
     30 H           7.8960    2.7336    1.3667 H       1  LIG1        0.0624
     31 H          10.2660   -0.6362   -1.3509 H       1  LIG1        0.0624
     32 C          12.7256    2.1561    0.0112 C.ar    1  LIG1       -0.0540
     33 C          14.1137    2.1212    0.0138 C.ar    1  LIG1       -0.0612
     34 C          11.9782    0.9746    0.0112 C.ar    1  LIG1       -0.0179
     35 C          14.7831    0.9029    0.0145 C.ar    1  LIG1       -0.0617
     36 H          14.6747    3.0503    0.0065 H       1  LIG1        0.0618
     37 C          12.6643   -0.2435    0.0129 C.ar    1  LIG1       -0.0540
     38 C          14.0523   -0.2795    0.0136 C.ar    1  LIG1       -0.0612
     39 H          12.1020   -1.1714    0.0376 H       1  LIG1        0.0624
     40 H          15.8678    0.8752    0.0158 H       1  LIG1        0.0618
     41 H          12.2115    3.1114   -0.0148 H       1  LIG1        0.0624
     42 H          14.5652   -1.2361    0.0221 H       1  LIG1        0.0618
@<TRIPOS>BOND
     1    11     7    1
     2    29    27    1
     3     8     6    1
     4    31    28    1
     5     6     7   ar
     6     6     3   ar
     7     7     4   ar
     8    27    28   ar
     9    27    24   ar
    10    28    25   ar
    11    20    12    1
    12    41    32    1
    13     9     3    1
    14    12    13   ar
    15    12    14   ar
    16     3     1   ar
    17    13    15   ar
    18    13    16    1
    19    21    18    1
    20     4    14    1
    21     4     2   ar
    22    14    17   ar
    23    15    24    1
    24    15    18   ar
    25    24    22   ar
    26    36    33    1
    27    17    18   ar
    28    17    19    1
    29    25    34    1
    30    25    23   ar
    31    32    34   ar
    32    32    33   ar
    33    34    37   ar
    34    37    38   ar
    35    37    39    1
    36    38    35   ar
    37    38    42    1
    38    33    35   ar
    39    35    40    1
    40     1     2   ar
    41     1    10    1
    42     2     5    1
    43    22    23   ar
    44    22    30    1
    45    23    26    1
