@<TRIPOS>MOLECULE
mol_data/opt/cam/geoms/mol2/4aa4aa4aa4aa.out
 42 45 0 0 0
SMALL
GASTEIGER

@<TRIPOS>ATOM
      1 C          -0.2404    0.5928    1.0180 C.ar    1  LIG1       -0.0612
      2 C           1.1481    0.5804    1.0190 C.ar    1  LIG1       -0.0540
      3 C          -0.9338    1.2357   -0.0009 C.ar    1  LIG1       -0.0617
      4 C           1.8718    1.2090    0.0013 C.ar    1  LIG1       -0.0179
      5 H           1.6814    0.0976    1.8314 H       1  LIG1        0.0624
      6 C          -0.2266    1.8654   -1.0187 C.ar    1  LIG1       -0.0612
      7 C           1.1619    1.8513   -1.0175 C.ar    1  LIG1       -0.0540
      8 H          -0.7584    2.3635   -1.8231 H       1  LIG1        0.0618
      9 H          -2.0188    1.2461   -0.0018 H       1  LIG1        0.0618
     10 H          -0.7828    0.1049    1.8215 H       1  LIG1        0.0618
     11 H           1.7056    2.3239   -1.8290 H       1  LIG1        0.0624
     12 C           4.0658    0.0575    0.3945 C.ar    1  LIG1       -0.0535
     13 C           5.4521    0.0446    0.3967 C.ar    1  LIG1       -0.0535
     14 C           3.3548    1.1949    0.0025 C.ar    1  LIG1       -0.0178
     15 C           6.1854    1.1680    0.0048 C.ar    1  LIG1       -0.0178
     16 H           5.9761   -0.8480    0.7227 H       1  LIG1        0.0624
     17 C           4.0880    2.3186   -0.3883 C.ar    1  LIG1       -0.0535
     18 C           5.4743    2.3051   -0.3882 C.ar    1  LIG1       -0.0535
     19 H           3.5638    3.2219   -0.6828 H       1  LIG1        0.0624
     20 H           3.5240   -0.8357    0.6882 H       1  LIG1        0.0624
     21 H           6.0157    3.1876   -0.7133 H       1  LIG1        0.0624
     22 C           8.3792    0.0165   -0.3848 C.ar    1  LIG1       -0.0535
     23 C           9.7655    0.0031   -0.3827 C.ar    1  LIG1       -0.0535
     24 C           7.6674    1.1539    0.0061 C.ar    1  LIG1       -0.0178
     25 C          10.4980    1.1272    0.0083 C.ar    1  LIG1       -0.0178
     26 H          10.2902   -0.9005   -0.6755 H       1  LIG1        0.0624
     27 C           8.4000    2.2778    0.3979 C.ar    1  LIG1       -0.0535
     28 C           9.7863    2.2649    0.3979 C.ar    1  LIG1       -0.0535
     29 H           7.8754    3.1707    0.7221 H       1  LIG1        0.0624
     30 H           7.8384   -0.8663   -0.7100 H       1  LIG1        0.0624
     31 H          10.3275    3.1585    0.6914 H       1  LIG1        0.0624
     32 C          12.6924    0.4696   -1.0077 C.ar    1  LIG1       -0.0540
     33 C          14.0809    0.4554   -1.0068 C.ar    1  LIG1       -0.0612
     34 C          11.9810    1.1132    0.0092 C.ar    1  LIG1       -0.0179
     35 C          14.7866    1.0863    0.0112 C.ar    1  LIG1       -0.0617
     36 H          14.6138   -0.0438   -1.8098 H       1  LIG1        0.0618
     37 C          12.7032    1.7428    1.0273 C.ar    1  LIG1       -0.0540
     38 C          14.0917    1.7305    1.0283 C.ar    1  LIG1       -0.0612
     39 H          12.1688    2.2266    1.8385 H       1  LIG1        0.0624
     40 H          15.8716    1.0759    0.0119 H       1  LIG1        0.0618
     41 H          12.1500   -0.0041   -1.8195 H       1  LIG1        0.0624
     42 H          14.6330    2.2193    1.8321 H       1  LIG1        0.0618
@<TRIPOS>BOND
     1    11     7    1
     2     8     6    1
     3    41    32    1
     4    36    33    1
     5     6     7   ar
     6     6     3   ar
     7     7     4   ar
     8    32    33   ar
     9    32    34   ar
    10    33    35   ar
    11    21    18    1
    12    30    22    1
    13    19    17    1
    14    26    23    1
    15    17    18   ar
    16    17    14   ar
    17    18    15   ar
    18    22    23   ar
    19    22    24   ar
    20    23    25   ar
    21     9     3    1
    22     3     1   ar
    23     4    14    1
    24     4     2   ar
    25    14    12   ar
    26    15    24    1
    27    15    13   ar
    28    24    27   ar
    29    25    34    1
    30    25    28   ar
    31    34    37   ar
    32    35    40    1
    33    35    38   ar
    34    12    13   ar
    35    12    20    1
    36    13    16    1
    37    27    28   ar
    38    27    29    1
    39    28    31    1
    40     1     2   ar
    41     1    10    1
    42     2     5    1
    43    37    38   ar
    44    37    39    1
    45    38    42    1
