@<TRIPOS>MOLECULE
mol_data/opt/cam/geoms/mol2/4aa4aa-4aa-4aa-.out
 42 45 0 0 0
SMALL
GASTEIGER

@<TRIPOS>ATOM
      1 C          -0.2845    0.1199   -0.0026 C.ar    1  LIG1       -0.0612
      2 C           1.1027    0.0588   -0.0003 C.ar    1  LIG1       -0.0540
      3 C          -0.9308    1.3507   -0.0025 C.ar    1  LIG1       -0.0617
      4 C           1.8723    1.2258    0.0003 C.ar    1  LIG1       -0.0179
      5 H           1.5985   -0.9062    0.0251 H       1  LIG1        0.0624
      6 C          -0.1777    2.5191   -0.0011 C.ar    1  LIG1       -0.0612
      7 C           1.2094    2.4567   -0.0006 C.ar    1  LIG1       -0.0540
      8 H          -0.6723    3.4852   -0.0090 H       1  LIG1        0.0618
      9 H          -2.0148    1.3989   -0.0036 H       1  LIG1        0.0618
     10 H          -0.8630   -0.7984    0.0043 H       1  LIG1        0.0618
     11 H           1.7891    3.3738   -0.0249 H       1  LIG1        0.0624
     12 C           4.1161    2.0622    0.7486 C.ar    1  LIG1       -0.0535
     13 C           5.5011    2.0007    0.7500 C.ar    1  LIG1       -0.0535
     14 C           3.3539    1.1599    0.0018 C.ar    1  LIG1       -0.0178
     15 C           6.1817    1.0339    0.0046 C.ar    1  LIG1       -0.0178
     16 H           6.0646    2.6942    1.3656 H       1  LIG1        0.0624
     17 C           4.0344    0.1933   -0.7437 C.ar    1  LIG1       -0.0535
     18 C           5.4194    0.1315   -0.7423 C.ar    1  LIG1       -0.0535
     19 H           3.4706   -0.5002   -1.3591 H       1  LIG1        0.0624
     20 H           3.6150    2.8031    1.3630 H       1  LIG1        0.0624
     21 H           5.9202   -0.6095   -1.3568 H       1  LIG1        0.0624
     22 C           8.4368    2.1312    0.0133 C.ar    1  LIG1       -0.0535
     23 C           9.8218    2.0695    0.0155 C.ar    1  LIG1       -0.0535
     24 C           7.6622    0.9680    0.0060 C.ar    1  LIG1       -0.0178
     25 C          10.4898    0.8421    0.0088 C.ar    1  LIG1       -0.0178
     26 H          10.3965    2.9897    0.0376 H       1  LIG1        0.0624
     27 C           8.3303   -0.2594    0.0002 C.ar    1  LIG1       -0.0535
     28 C           9.7154   -0.3210    0.0008 C.ar    1  LIG1       -0.0535
     29 H           7.7558   -1.1800    0.0108 H       1  LIG1        0.0624
     30 H           7.9464    3.0992    0.0017 H       1  LIG1        0.0624
     31 H          10.2061   -1.2887   -0.0203 H       1  LIG1        0.0624
     32 C          12.7300    1.6789   -0.7407 C.ar    1  LIG1       -0.0540
     33 C          14.1172    1.6180   -0.7392 C.ar    1  LIG1       -0.0612
     34 C          11.9714    0.7761    0.0103 C.ar    1  LIG1       -0.0179
     35 C          14.7744    0.6513    0.0131 C.ar    1  LIG1       -0.0617
     36 H          14.6868    2.3239   -1.3352 H       1  LIG1        0.0618
     37 C          12.6452   -0.1904    0.7628 C.ar    1  LIG1       -0.0540
     38 C          14.0324   -0.2530    0.7640 C.ar    1  LIG1       -0.0612
     39 H          12.0748   -0.8846    1.3714 H       1  LIG1        0.0624
     40 H          15.8584    0.6030    0.0142 H       1  LIG1        0.0618
     41 H          12.2247    2.4210   -1.3504 H       1  LIG1        0.0624
     42 H          14.5358   -1.0067    1.3611 H       1  LIG1        0.0618
@<TRIPOS>BOND
     1    19    17    1
     2    21    18    1
     3    41    32    1
     4    36    33    1
     5    17    18   ar
     6    17    14   ar
     7    18    15   ar
     8    32    33   ar
     9    32    34   ar
    10    33    35   ar
    11    11     7    1
    12    31    28    1
    13     8     6    1
    14     9     3    1
    15     1     3   ar
    16     1     2   ar
    17     1    10    1
    18     3     6   ar
    19     6     7   ar
    20     7     4   ar
    21     2     4   ar
    22     2     5    1
    23    27    28   ar
    24    27    24   ar
    25    27    29    1
    26     4    14    1
    27    28    25   ar
    28    30    22    1
    29    14    12   ar
    30    15    24    1
    31    15    13   ar
    32    24    22   ar
    33    25    34    1
    34    25    23   ar
    35    34    37   ar
    36    35    40    1
    37    35    38   ar
    38    22    23   ar
    39    23    26    1
    40    12    13   ar
    41    12    20    1
    42    13    16    1
    43    37    38   ar
    44    37    39    1
    45    38    42    1
