@<TRIPOS>MOLECULE
mol_data/opt/cam/geoms/mol2/4aa4aa4aa4aa-.out
 42 45 0 0 0
SMALL
GASTEIGER

@<TRIPOS>ATOM
      1 C          -0.2488    0.1183    0.4070 C.ar    1  LIG1       -0.0612
      2 C           1.1397    0.1004    0.4089 C.ar    1  LIG1       -0.0540
      3 C          -0.9334    1.2568   -0.0021 C.ar    1  LIG1       -0.0617
      4 C           1.8722    1.2190    0.0005 C.ar    1  LIG1       -0.0179
      5 H           1.6658   -0.7838    0.7537 H       1  LIG1        0.0624
      6 C          -0.2175    2.3764   -0.4099 C.ar    1  LIG1       -0.0612
      7 C           1.1709    2.3568   -0.4092 C.ar    1  LIG1       -0.0540
      8 H          -0.7423    3.2678   -0.7388 H       1  LIG1        0.0618
      9 H          -2.0184    1.2715   -0.0031 H       1  LIG1        0.0618
     10 H          -0.7980   -0.7585    0.7349 H       1  LIG1        0.0618
     11 H           1.7214    3.2266   -0.7530 H       1  LIG1        0.0624
     12 C           4.0621    0.0561   -0.3813 C.ar    1  LIG1       -0.0535
     13 C           5.4483    0.0374   -0.3803 C.ar    1  LIG1       -0.0535
     14 C           3.3550    1.1989    0.0019 C.ar    1  LIG1       -0.0178
     15 C           6.1854    1.1607    0.0046 C.ar    1  LIG1       -0.0178
     16 H           5.9693   -0.8539   -0.7147 H       1  LIG1        0.0624
     17 C           4.0920    2.3223    0.3866 C.ar    1  LIG1       -0.0535
     18 C           5.4782    2.3035    0.3881 C.ar    1  LIG1       -0.0535
     19 H           3.5706    3.2136    0.7204 H       1  LIG1        0.0624
     20 H           3.5175   -0.8208   -0.7161 H       1  LIG1        0.0624
     21 H           6.0224    3.1804    0.7236 H       1  LIG1        0.0624
     22 C           8.3737   -0.0006    0.3954 C.ar    1  LIG1       -0.0535
     23 C           9.7599   -0.0193    0.3965 C.ar    1  LIG1       -0.0535
     24 C           7.6672    1.1407    0.0060 C.ar    1  LIG1       -0.0178
     25 C          10.4976    1.1025    0.0087 C.ar    1  LIG1       -0.0178
     26 H          10.2807   -0.9093    0.7348 H       1  LIG1        0.0624
     27 C           8.4050    2.2625   -0.3821 C.ar    1  LIG1       -0.0535
     28 C           9.7912    2.2438   -0.3805 C.ar    1  LIG1       -0.0535
     29 H           7.8846    3.1524   -0.7210 H       1  LIG1        0.0624
     30 H           7.8289   -0.8761    0.7334 H       1  LIG1        0.0624
     31 H          10.3364    3.1193   -0.7178 H       1  LIG1        0.0624
     32 C          12.7122    2.2026    0.4153 C.ar    1  LIG1       -0.0540
     33 C          14.1006    2.1847    0.4160 C.ar    1  LIG1       -0.0612
     34 C          11.9805    1.0824    0.0101 C.ar    1  LIG1       -0.0179
     35 C          14.7860    1.0446    0.0127 C.ar    1  LIG1       -0.0617
     36 H          14.6493    3.0629    0.7413 H       1  LIG1        0.0618
     37 C          12.6825   -0.0571   -0.3938 C.ar    1  LIG1       -0.0540
     38 C          14.0709   -0.0767   -0.3919 C.ar    1  LIG1       -0.0612
     39 H          12.1326   -0.9282   -0.7351 H       1  LIG1        0.0624
     40 H          15.8710    1.0299    0.0137 H       1  LIG1        0.0618
     41 H          12.1854    3.0883    0.7556 H       1  LIG1        0.0624
     42 H          14.5962   -0.9693   -0.7162 H       1  LIG1        0.0618
@<TRIPOS>BOND
     1    11     7    1
     2     8     6    1
     3    39    37    1
     4    29    27    1
     5    31    28    1
     6    42    38    1
     7    20    12    1
     8    16    13    1
     9     6     7   ar
    10     6     3   ar
    11     7     4   ar
    12    37    38   ar
    13    37    34   ar
    14    38    35   ar
    15    27    28   ar
    16    27    24   ar
    17    12    13   ar
    18    12    14   ar
    19    28    25   ar
    20    13    15   ar
    21     9     3    1
    22     3     1   ar
    23     4    14    1
    24     4     2   ar
    25    14    17   ar
    26    15    24    1
    27    15    18   ar
    28    24    22   ar
    29    25    34    1
    30    25    23   ar
    31    34    32   ar
    32    35    40    1
    33    35    33   ar
    34    17    18   ar
    35    17    19    1
    36    18    21    1
    37    22    23   ar
    38    22    30    1
    39    23    26    1
    40     1     2   ar
    41     1    10    1
    42     2     5    1
    43    32    33   ar
    44    32    41    1
    45    33    36    1
