@<TRIPOS>MOLECULE
mol_data/opt/cam/geoms/mol2/4aa6ld-6di6ia13ld12ie-13hd-12he.out
 98 105 0 0 0
SMALL
GASTEIGER

@<TRIPOS>ATOM
      1 C          -0.5409    0.3650    0.5687 C.ar    1  LIG1       -0.0612
      2 C           0.8469    0.3980    0.6013 C.ar    1  LIG1       -0.0539
      3 C          -1.2485    1.4197    0.0056 C.ar    1  LIG1       -0.0617
      4 C           1.5498    1.4840    0.0718 C.ar    1  LIG1       -0.0128
      5 H           1.3938   -0.4384    1.0252 H       1  LIG1        0.0624
      6 C          -0.5590    2.5033   -0.5272 C.ar    1  LIG1       -0.0612
      7 C           0.8281    2.5363   -0.4993 C.ar    1  LIG1       -0.0539
      8 H          -1.1049    3.3315   -0.9670 H       1  LIG1        0.0618
      9 H          -2.3329    1.3962   -0.0219 H       1  LIG1        0.0618
     10 H          -1.0685   -0.4898    0.9788 H       1  LIG1        0.0618
     11 H           1.3576    3.3825   -0.9185 H       1  LIG1        0.0624
     12 C           3.8785    1.9354   -0.8863 C.ar    1  LIG1        0.2230
     13 C           3.0289    1.5122    0.1686 C.ar    1  LIG1        0.0449
     14 C           3.6750    1.1095    1.3194 C.ar    1  LIG1       -0.0295
     15 C           5.0759    1.1128    1.4159 C.ar    1  LIG1        0.0786
     16 C           5.8119    1.5223    0.2991 C.ar    1  LIG1        0.0949
     17 N           5.1965    1.9160   -0.8177 N.ar    1  LIG1       -0.2110
     18 H           3.0909    0.8086    2.1818 H       1  LIG1        0.0639
     19 O           3.3046    2.3617   -2.0110 O.3     1  LIG1       -0.4792
     20 C           4.1634    2.8213   -3.0608 C.3     1  LIG1        0.0804
     21 H           3.4914    3.1481   -3.8526 H       1  LIG1        0.0660
     22 H           4.7905    3.6453   -2.7166 H       1  LIG1        0.0660
     23 H           4.8035    2.0111   -3.4150 H       1  LIG1        0.0660
     24 N           6.1507    0.4165    3.6650 N.1     1  LIG1       -0.1908
     25 C           5.6836    0.7360    2.6554 C.1     1  LIG1        0.1013
     26 C           7.9921    2.6182   -0.3433 C.ar    1  LIG1        0.1499
     27 C           7.2939    1.5641    0.2644 C.ar    1  LIG1        0.0379
     28 C           8.0746    0.5530    0.8165 C.ar    1  LIG1       -0.0448
     29 C           9.4626    0.5860    0.7571 C.ar    1  LIG1       -0.0237
     30 C          10.0517    1.6823    0.1002 C.ar    1  LIG1        0.0771
     31 N           9.3192    2.6702   -0.4175 N.ar    1  LIG1       -0.2354
     32 H           7.5940   -0.2846    1.3089 H       1  LIG1        0.0628
     33 N           6.8370    4.7134   -1.3668 N.1     1  LIG1       -0.1893
     34 C           7.3211    3.7668   -0.9139 C.1     1  LIG1        0.1198
     35 C          10.2627   -0.5138    1.4005 C.3     1  LIG1       -0.0377
     36 H          11.2053   -0.1398    1.8026 H       1  LIG1        0.0278
     37 H          10.5060   -1.3060    0.6856 H       1  LIG1        0.0278
     38 H           9.6951   -0.9694    2.2144 H       1  LIG1        0.0278
     39 C          12.2205    2.9590    0.3596 C.ar    1  LIG1        0.0481
     40 C          11.5234    1.8152   -0.0720 C.ar    1  LIG1        0.0217
     41 C          12.2514    0.8170   -0.7165 C.ar    1  LIG1       -0.0488
     42 C          13.6105    0.9587   -0.9273 C.ar    1  LIG1       -0.0335
     43 C          14.2193    2.1266   -0.4675 C.ar    1  LIG1        0.0910
     44 N          13.5308    3.0916    0.1649 N.ar    1  LIG1       -0.2496
     45 H          11.7420   -0.0714   -1.0767 H       1  LIG1        0.0625
     46 C          11.5410    4.0949    1.0730 C.3     1  LIG1       -0.0217
     47 H          10.8984    3.7365    1.8815 H       1  LIG1        0.0293
     48 H          10.9040    4.6551    0.3850 H       1  LIG1        0.0293
     49 H          12.2984    4.7606    1.4857 H       1  LIG1        0.0293
     50 H          14.1942    0.2039   -1.4368 H       1  LIG1        0.0640
     51 C          15.6360    2.4011   -0.6315 C.ar    1  LIG1        0.1090
     52 C          16.6827    1.7058   -1.2099 C.ar    1  LIG1        0.1648
     53 C          17.8606    2.5063   -1.0740 C.ar    1  LIG1        0.1222
     54 C          17.4787    3.6724   -0.3909 C.ar    1  LIG1        0.1041
     55 N          16.1558    3.5796   -0.1514 N.ar    1  LIG1       -0.3466
     56 H          15.5728    4.2509    0.3291 H       1  LIG1        0.1662
     57 O          16.5059    0.5012   -1.7907 O.3     1  LIG1       -0.4916
     58 C          17.6502   -0.2382   -2.1932 C.3     1  LIG1        0.0789
     59 H          17.2779   -1.2107   -2.5136 H       1  LIG1        0.0660
     60 H          18.1680    0.2461   -3.0245 H       1  LIG1        0.0660
     61 H          18.3484   -0.3707   -1.3615 H       1  LIG1        0.0660
     62 N          20.1939    2.1390   -2.1025 N.1     1  LIG1       -0.1907
     63 C          19.1446    2.2924   -1.6347 C.1     1  LIG1        0.1051
     64 C          18.2274    4.8351    0.0176 C.ar    1  LIG1        0.1573
     65 C          19.5050    5.0732    0.4209 C.ar    1  LIG1        0.0129
     66 C          19.5684    6.4842    0.7108 C.ar    1  LIG1        0.0754
     67 C          18.3058    6.9973    0.5025 C.ar    1  LIG1        0.1692
     68 O          17.4889    5.9988    0.0774 O.2     1  LIG1       -0.4502
     69 C          20.6371    4.1145    0.5842 C.3     1  LIG1       -0.0349
     70 H          21.3043    4.4593    1.3768 H       1  LIG1        0.0279
     71 H          21.2223    4.0194   -0.3341 H       1  LIG1        0.0279
     72 H          20.2767    3.1169    0.8408 H       1  LIG1        0.0279
     73 C          20.7491    7.1760    1.0809 C.1     1  LIG1       -0.0655
     74 C          21.7799    7.7255    1.3831 C.1     1  LIG1       -0.1138
     75 H          22.7005    8.2060    1.6241 H       1  LIG1        0.1232
     76 C          17.6827    8.2797    0.6119 C.ar    1  LIG1        0.1061
     77 C          18.0039    9.4451    1.2950 C.ar    1  LIG1        0.0716
     78 C          16.9481   10.3758    1.0363 C.ar    1  LIG1        0.1013
     79 C          15.9969    9.7448    0.2226 C.ar    1  LIG1        0.1039
     80 N          16.4556    8.5001   -0.0143 N.ar    1  LIG1       -0.3468
     81 H          15.9789    7.8218   -0.5866 H       1  LIG1        0.1662
     82 N          19.0563    9.6897    2.1372 N.pl3   1  LIG1       -0.3552
     83 H          19.8937    9.1394    2.0062 H       1  LIG1        0.1424
     84 H          19.2228   10.6602    2.3576 H       1  LIG1        0.1424
     85 N          16.9473   12.8103    1.8626 N.1     1  LIG1       -0.1907
     86 C          16.9377   11.7097    1.4917 C.1     1  LIG1        0.1033
     87 C          14.7503   10.1776   -0.3399 C.ar    1  LIG1        0.1739
     88 C          13.8821   11.2292   -0.1573 C.ar    1  LIG1        0.0881
     89 C          12.7738   10.9791   -1.0527 C.ar    1  LIG1        0.0837
     90 C          13.0477    9.8069   -1.6855 C.ar    1  LIG1        0.1099
     91 O          14.2207    9.3056   -1.2800 O.2     1  LIG1       -0.4583
     92 H          12.5055    9.2442   -2.4289 H       1  LIG1        0.1043
     93 N          13.9125   12.2863    0.7037 N.pl3   1  LIG1       -0.3540
     94 H          14.7898   12.5905    1.0991 H       1  LIG1        0.1425
     95 H          13.2450   13.0181    0.5147 H       1  LIG1        0.1425
     96 C          11.6436   11.8237   -1.2032 C.1     1  LIG1       -0.0646
     97 C          10.7068   12.5740   -1.2997 C.1     1  LIG1       -0.1138
     98 H           9.8665   13.2228   -1.3950 H       1  LIG1        0.1232
@<TRIPOS>BOND
     1    21    20    1
     2    23    20    1
     3    20    22    1
     4    20    19    1
     5    60    58    1
     6    59    58    1
     7    92    90    1
     8    58    57    1
     9    58    61    1
    10    62    63    3
    11    19    12    1
    12    57    52    1
    13    90    91   ar
    14    90    89   ar
    15    63    53    1
    16    50    42    1
    17    98    97    1
    18    33    34    3
    19    97    96    3
    20    91    87   ar
    21    52    53   ar
    22    52    51   ar
    23    96    89    1
    24    45    41    1
    25    53    54   ar
    26    89    88   ar
    27     8     6    1
    28    42    41   ar
    29    42    43   ar
    30    11     7    1
    31    34    26    1
    32    12    17   ar
    33    12    13   ar
    34    17    16   ar
    35    41    40   ar
    36    51    43    1
    37    51    55   ar
    38    81    80    1
    39     6     7   ar
    40     6     3   ar
    41     7     4   ar
    42    43    44   ar
    43    31    26   ar
    44    31    30   ar
    45    54    55   ar
    46    54    64    1
    47    26    27   ar
    48    87    88   ar
    49    87    79    1
    50    71    69    1
    51    88    93    1
    52    55    56    1
    53    40    30    1
    54    40    39   ar
    55     9     3    1
    56    80    79   ar
    57    80    76   ar
    58     3     1   ar
    59    64    68   ar
    60    64    65   ar
    61     4    13    1
    62     4     2   ar
    63    68    67   ar
    64    30    29   ar
    65    44    39   ar
    66    13    14   ar
    67    79    78   ar
    68    27    16    1
    69    27    28   ar
    70    16    15   ar
    71    39    46    1
    72    48    46    1
    73    65    69    1
    74    65    66   ar
    75    67    76    1
    76    67    66   ar
    77    95    93    1
    78     1     2   ar
    79     1    10    1
    80    69    72    1
    81    69    70    1
    82     2     5    1
    83    76    77   ar
    84    37    35    1
    85    93    94    1
    86    66    73    1
    87    29    28   ar
    88    29    35    1
    89    28    32    1
    90    78    77   ar
    91    78    86    1
    92    46    49    1
    93    46    47    1
    94    73    74    3
    95    77    82    1
    96    14    15   ar
    97    14    18    1
    98    74    75    1
    99    35    36    1
   100    35    38    1
   101    15    25    1
   102    86    85    3
   103    83    82    1
   104    82    84    1
   105    25    24    3
