@<TRIPOS>MOLECULE
mol_data/opt/cam/geoms/mol2/4ad12lf-13dh6fl-6hl-4hf-4ii6fd-.out
 105 112 0 0 0
SMALL
GASTEIGER

@<TRIPOS>ATOM
      1 C          -0.3338   -0.1967    0.5044 C.ar    1  LIG1       -0.0610
      2 C           1.0488   -0.1988    0.4423 C.ar    1  LIG1       -0.0497
      3 C          -1.0505    0.9820    0.3223 C.ar    1  LIG1       -0.0605
      4 C           1.7711    0.9769    0.1879 C.ar    1  LIG1        0.0384
      5 H           1.5988   -1.1177    0.5953 H       1  LIG1        0.0625
      6 C          -0.3629    2.1557    0.0746 C.ar    1  LIG1       -0.0437
      7 C           1.0359    2.1680    0.0031 C.ar    1  LIG1        0.0625
      8 H          -0.8975    3.0875   -0.0710 H       1  LIG1        0.0631
      9 H          -2.1332    0.9865    0.3750 H       1  LIG1        0.0618
     10 H          -0.8571   -1.1257    0.7051 H       1  LIG1        0.0618
     11 N           1.9714    4.5254   -0.5138 N.1     1  LIG1       -0.1908
     12 C           1.6236    3.4472   -0.2782 C.1     1  LIG1        0.0999
     13 C           3.2217    0.9040    0.1298 C.ar    1  LIG1        0.1822
     14 C           4.0924   -0.1554    0.1056 C.ar    1  LIG1        0.2084
     15 C           5.4175    0.3820    0.0868 C.ar    1  LIG1        0.2075
     16 C           5.2759    1.7478    0.0934 C.ar    1  LIG1        0.1981
     17 O           3.9414    2.0579    0.1316 O.2     1  LIG1       -0.4457
     18 O           3.7566   -1.4646    0.1510 O.3     1  LIG1       -0.4884
     19 C           4.3049   -2.2838   -0.8856 C.3     1  LIG1        0.0791
     20 H           3.9227   -3.2883   -0.7070 H       1  LIG1        0.0660
     21 H           3.9699   -1.9338   -1.8675 H       1  LIG1        0.0660
     22 H           5.3949   -2.2870   -0.8461 H       1  LIG1        0.0660
     23 O           6.4916   -0.4258    0.0525 O.3     1  LIG1       -0.5008
     24 H           7.3314    0.0488    0.1560 H       1  LIG1        0.2924
     25 C           6.1604    2.8829    0.0685 C.ar    1  LIG1        0.1058
     26 C           7.5544    2.9968    0.1549 C.ar    1  LIG1        0.1013
     27 C           7.8852    4.3794    0.0507 C.ar    1  LIG1        0.0687
     28 C           6.6948    5.0734   -0.0839 C.ar    1  LIG1        0.0745
     29 N           5.6790    4.1310   -0.0812 N.ar    1  LIG1       -0.3490
     30 H           4.7072    4.3727   -0.2404 H       1  LIG1        0.1661
     31 N           9.2063    1.0458    0.4246 N.1     1  LIG1       -0.1907
     32 C           8.4695    1.9370    0.3080 C.1     1  LIG1        0.1033
     33 N           9.1768    4.9121    0.1144 N.pl3   1  LIG1       -0.3553
     34 H           9.8921    4.1959    0.1383 H       1  LIG1        0.1424
     35 H           9.3724    5.5655   -0.6347 H       1  LIG1        0.1424
     36 C           5.2039    7.0310   -0.5724 C.ar    1  LIG1        0.2225
     37 C           6.4358    6.5060   -0.1484 C.ar    1  LIG1        0.0650
     38 C           7.3739    7.4506    0.2682 C.ar    1  LIG1       -0.0035
     39 C           7.0837    8.8103    0.2370 C.ar    1  LIG1        0.1469
     40 C           5.8191    9.2348   -0.2134 C.ar    1  LIG1        0.1197
     41 N           4.9160    8.3128   -0.5904 N.ar    1  LIG1       -0.2087
     42 H           8.3200    7.1005    0.6583 H       1  LIG1        0.0663
     43 O           4.2637    6.1501   -0.9837 O.3     1  LIG1       -0.4919
     44 H           3.3967    6.5687   -1.0683 H       1  LIG1        0.2937
     45 O           7.9663    9.7628    0.6507 O.3     1  LIG1       -0.4929
     46 C           9.1526    9.3457    1.2944 C.3     1  LIG1        0.0789
     47 H           9.6585   10.2568    1.6124 H       1  LIG1        0.0660
     48 H           8.9375    8.7265    2.1722 H       1  LIG1        0.0660
     49 H           9.8106    8.7893    0.6164 H       1  LIG1        0.0660
     50 C           4.0909   11.0884   -0.0350 C.ar    1  LIG1        0.1264
     51 C           5.4160   10.6576   -0.2938 C.ar    1  LIG1        0.0470
     52 C           6.3348   11.6449   -0.6458 C.ar    1  LIG1       -0.0052
     53 C           5.9577   12.9780   -0.7264 C.ar    1  LIG1        0.1468
     54 C           4.6193   13.3081   -0.4748 C.ar    1  LIG1        0.1165
     55 N           3.7362   12.3710   -0.1276 N.ar    1  LIG1       -0.2280
     56 H           7.3582   11.3575   -0.8333 H       1  LIG1        0.0662
     57 N           3.0992   10.2289    0.3763 N.pl3   1  LIG1       -0.3426
     58 H           2.1804   10.6431    0.3314 H       1  LIG1        0.1437
     59 H           3.1875    9.2821    0.0387 H       1  LIG1        0.1437
     60 O           6.8106   14.0042   -1.0081 O.3     1  LIG1       -0.4929
     61 C           8.1475   13.6914   -1.3182 C.3     1  LIG1        0.0789
     62 H           8.6386   14.6402   -1.5327 H       1  LIG1        0.0660
     63 H           8.6561   13.2032   -0.4775 H       1  LIG1        0.0660
     64 H           8.2208   13.0425   -2.2002 H       1  LIG1        0.0660
     65 C           4.2602   15.5633   -1.6157 C.ar    1  LIG1        0.0348
     66 C           3.7014   16.8422   -1.5372 C.ar    1  LIG1       -0.0292
     67 C           4.1130   14.7068   -0.5115 C.ar    1  LIG1        0.0281
     68 C           2.9932   17.2945   -0.4301 C.ar    1  LIG1        0.0256
     69 H           3.8144   17.5062   -2.3894 H       1  LIG1        0.0643
     70 C           3.3852   15.1516    0.5936 C.ar    1  LIG1       -0.0085
     71 C           2.8303   16.4184    0.6501 C.ar    1  LIG1        0.1253
     72 H           3.2480   14.4622    1.4219 H       1  LIG1        0.0661
     73 N           4.9347   15.1997   -2.7852 N.pl3   1  LIG1       -0.3574
     74 H           5.1346   14.2139   -2.8642 H       1  LIG1        0.1423
     75 H           4.5038   15.5578   -3.6256 H       1  LIG1        0.1423
     76 O           2.1242   16.8570    1.7383 O.3     1  LIG1       -0.5061
     77 H           2.1085   16.1547    2.3985 H       1  LIG1        0.2922
     78 C           3.2079   19.8123   -0.5032 C.ar    1  LIG1       -0.0420
     79 C           2.5751   21.0529   -0.5069 C.ar    1  LIG1       -0.0501
     80 C           2.4070   18.6636   -0.4088 C.ar    1  LIG1       -0.0111
     81 C           1.1904   21.1917   -0.4149 C.ar    1  LIG1       -0.0096
     82 H           3.1816   21.9513   -0.5820 H       1  LIG1        0.0627
     83 C           1.0239   18.8054   -0.2967 C.ar    1  LIG1       -0.0502
     84 C           0.3884   20.0428   -0.2955 C.ar    1  LIG1       -0.0420
     85 H           0.4230   17.9083   -0.1886 H       1  LIG1        0.0627
     86 C           4.7118   19.7450   -0.5787 C.3     1  LIG1       -0.0391
     87 H           5.1528   20.7058   -0.3044 H       1  LIG1        0.0278
     88 H           5.0601   19.4989   -1.5862 H       1  LIG1        0.0278
     89 H           5.1100   18.9781    0.0887 H       1  LIG1        0.0278
     90 C          -1.1083   20.1299   -0.1304 C.3     1  LIG1       -0.0391
     91 H          -1.5330   19.1410    0.0501 H       1  LIG1        0.0278
     92 H          -1.5970   20.5472   -1.0160 H       1  LIG1        0.0278
     93 H          -1.3764   20.7717    0.7136 H       1  LIG1        0.0278
     94 C          -0.1795   23.0065   -1.5146 C.ar    1  LIG1        0.2203
     95 C           0.5965   22.5574   -0.4220 C.ar    1  LIG1        0.0450
     96 C           0.8025   23.4591    0.6044 C.ar    1  LIG1       -0.0301
     97 C           0.2299   24.7355    0.5363 C.ar    1  LIG1        0.0706
     98 C          -0.5368   25.0485   -0.5848 C.ar    1  LIG1        0.0488
     99 N          -0.7336   24.2056   -1.5904 N.ar    1  LIG1       -0.2197
    100 H           1.3984   23.1720    1.4639 H       1  LIG1        0.0639
    101 H          -1.0050   26.0256   -0.6691 H       1  LIG1        0.0844
    102 O          -0.4024   22.2123   -2.5753 O.3     1  LIG1       -0.4920
    103 H           0.1032   21.3936   -2.4597 H       1  LIG1        0.2937
    104 N           0.5668   26.4660    2.4307 N.1     1  LIG1       -0.1908
    105 C           0.4162   25.6918    1.5840 C.1     1  LIG1        0.1007
@<TRIPOS>BOND
     1    75    73    1
     2    74    73    1
     3    73    65    1
     4   102   103    1
     5   102    94    1
     6    69    66    1
     7    64    61    1
     8    21    19    1
     9    65    66   ar
    10    65    67   ar
    11    99    94   ar
    12    99    98   ar
    13    88    86    1
    14    66    68   ar
    15    62    61    1
    16    94    95   ar
    17    61    60    1
    18    61    63    1
    19    44    43    1
    20    92    90    1
    21    60    53    1
    22    43    36    1
    23    19    22    1
    24    19    20    1
    25    19    18    1
    26    56    52    1
    27    53    52   ar
    28    53    54   ar
    29   101    98    1
    30    52    51   ar
    31    35    33    1
    32    41    36   ar
    33    41    40   ar
    34    98    97   ar
    35    82    79    1
    36    86    78    1
    37    86    87    1
    38    86    89    1
    39    36    37   ar
    40    11    12    3
    41    67    54    1
    42    67    70   ar
    43    79    78   ar
    44    79    81   ar
    45    78    80   ar
    46    54    55   ar
    47    68    80    1
    48    68    71   ar
    49    95    81    1
    50    95    96   ar
    51    81    84   ar
    52    80    83   ar
    53    83    84   ar
    54    83    85    1
    55    84    90    1
    56    51    40    1
    57    51    50   ar
    58    12     7    1
    59    30    29    1
    60    40    39   ar
    61    37    28    1
    62    37    38   ar
    63    90    91    1
    64    90    93    1
    65    55    50   ar
    66    28    29   ar
    67    28    27   ar
    68    29    25   ar
    69     8     6    1
    70    50    57    1
    71     7     6   ar
    72     7     4   ar
    73    59    57    1
    74    27    33    1
    75    27    26   ar
    76    23    15    1
    77    23    24    1
    78    25    16    1
    79    25    26   ar
    80     6     3   ar
    81    15    16   ar
    82    15    14   ar
    83    16    17   ar
    84    14    13   ar
    85    14    18    1
    86    33    34    1
    87    13    17   ar
    88    13     4    1
    89    26    32    1
    90     4     2   ar
    91    39    38   ar
    92    39    45    1
    93    38    42    1
    94    32    31    3
    95     3     9    1
    96     3     1   ar
    97    58    57    1
    98     2     1   ar
    99     2     5    1
   100     1    10    1
   101    97    96   ar
   102    97   105    1
   103    70    71   ar
   104    70    72    1
   105    96   100    1
   106    49    46    1
   107    71    76    1
   108    45    46    1
   109    46    47    1
   110    46    48    1
   111   105   104    3
   112    76    77    1
