@<TRIPOS>MOLECULE
mol_data/opt/cam/geoms/mol2/4ae.out
 14 14 0 0 0
SMALL
GASTEIGER

@<TRIPOS>ATOM
      1 C           0.0496    0.0139    0.0005 C.ar    1  LIG1       -0.0617
      2 C           1.4401   -0.0114    0.0001 C.ar    1  LIG1       -0.0606
      3 C          -0.6208    1.2324    0.0004 C.ar    1  LIG1       -0.0606
      4 C           2.1603    1.1744   -0.0004 C.ar    1  LIG1       -0.0463
      5 H           1.9669   -0.9600    0.0002 H       1  LIG1        0.0618
      6 C           0.0927    2.4222   -0.0001 C.ar    1  LIG1       -0.0463
      7 C           1.4921    2.4041   -0.0005 C.ar    1  LIG1        0.0247
      8 H          -0.4243    3.3753   -0.0002 H       1  LIG1        0.0630
      9 H           3.2444    1.1611   -0.0007 H       1  LIG1        0.0630
     10 H          -1.7056    1.2564    0.0007 H       1  LIG1        0.0618
     11 H          -0.5111   -0.9151    0.0009 H       1  LIG1        0.0618
     12 C           2.2325    3.6309   -0.0010 C.1     1  LIG1       -0.0697
     13 C           2.8545    4.6616   -0.0015 C.1     1  LIG1       -0.1139
     14 H           3.4051    5.5739   -0.0021 H       1  LIG1        0.1232
@<TRIPOS>BOND
     1    14    13    1
     2    13    12    3
     3    12     7    1
     4     9     4    1
     5     7     4   ar
     6     7     6   ar
     7     4     2   ar
     8     8     6    1
     9     6     3   ar
    10     2     5    1
    11     2     1   ar
    12     3     1   ar
    13     3    10    1
    14     1    11    1
