@<TRIPOS>MOLECULE
mol_data/opt/cam/geoms/mol2/4ae4ae-4ae-4ae.out
 50 53 0 0 0
SMALL
GASTEIGER

@<TRIPOS>ATOM
      1 C          -0.2276   -0.0088    0.2221 C.ar    1  LIG1       -0.0611
      2 C           1.1598    0.0045    0.2053 C.ar    1  LIG1       -0.0529
      3 C          -0.9313    1.1891    0.1887 C.ar    1  LIG1       -0.0606
      4 C           1.8800    1.1998    0.1550 C.ar    1  LIG1       -0.0025
      5 H           1.7076   -0.9308    0.2516 H       1  LIG1        0.0624
      6 C          -0.2390    2.3877    0.1341 C.ar    1  LIG1       -0.0457
      7 C           1.1611    2.4120    0.1146 C.ar    1  LIG1        0.0324
      8 H          -0.7738    3.3300    0.0965 H       1  LIG1        0.0630
      9 H          -2.0160    1.1905    0.2038 H       1  LIG1        0.0618
     10 H          -0.7575   -0.9544    0.2684 H       1  LIG1        0.0618
     11 C           1.8101    3.6869    0.0159 C.1     1  LIG1       -0.0691
     12 C           2.3032    4.7815   -0.0750 C.1     1  LIG1       -0.1139
     13 H           2.7535    5.7435   -0.1607 H       1  LIG1        0.1232
     14 C           4.1398    1.9266    1.0006 C.ar    1  LIG1       -0.0533
     15 C           5.5210    1.8224    0.9912 C.ar    1  LIG1       -0.0523
     16 C           3.3643    1.1473    0.1398 C.ar    1  LIG1       -0.0155
     17 C           6.1905    0.9490    0.1318 C.ar    1  LIG1       -0.0024
     18 H           6.1036    2.4163    1.6876 H       1  LIG1        0.0624
     19 C           4.0207    0.2740   -0.7230 C.ar    1  LIG1       -0.0380
     20 C           5.4151    0.1647   -0.7448 C.ar    1  LIG1        0.0329
     21 H           3.4463   -0.3255   -1.4205 H       1  LIG1        0.0636
     22 H           3.6578    2.6066    1.6928 H       1  LIG1        0.0624
     23 C           6.0026   -0.7268   -1.7019 C.1     1  LIG1       -0.0690
     24 C           6.4497   -1.4829   -2.5252 C.1     1  LIG1       -0.1139
     25 H           6.8634   -2.1458   -3.2498 H       1  LIG1        0.1232
     26 C           8.4218    2.0711    0.1757 C.ar    1  LIG1       -0.0533
     27 C           9.8051    2.0317    0.2471 C.ar    1  LIG1       -0.0523
     28 C           7.6734    0.8921    0.1696 C.ar    1  LIG1       -0.0155
     29 C          10.5022    0.8252    0.3199 C.ar    1  LIG1       -0.0024
     30 H          10.3662    2.9601    0.2615 H       1  LIG1        0.0624
     31 C           8.3582   -0.3180    0.2382 C.ar    1  LIG1       -0.0380
     32 C           9.7537   -0.3692    0.3119 C.ar    1  LIG1        0.0329
     33 H           7.8085   -1.2507    0.2328 H       1  LIG1        0.0636
     34 H           7.9139    3.0278    0.1122 H       1  LIG1        0.0624
     35 C          10.3726   -1.6627    0.3464 C.1     1  LIG1       -0.0690
     36 C          10.8434   -2.7705    0.3659 C.1     1  LIG1       -0.1139
     37 H          11.2734   -3.7454    0.3793 H       1  LIG1        0.1232
     38 C          12.6824    0.1137    1.3573 C.ar    1  LIG1       -0.0539
     39 C          14.0670    0.1853    1.4339 C.ar    1  LIG1       -0.0600
     40 C          11.9858    0.8489    0.3945 C.ar    1  LIG1       -0.0156
     41 C          14.7813    0.9856    0.5547 C.ar    1  LIG1       -0.0463
     42 H          14.5936   -0.3859    2.1913 H       1  LIG1        0.0618
     43 C          12.7084    1.6535   -0.4855 C.ar    1  LIG1       -0.0386
     44 C          14.1026    1.7283   -0.4163 C.ar    1  LIG1        0.0253
     45 H          12.1881    2.2204   -1.2495 H       1  LIG1        0.0636
     46 H          15.8624    1.0432    0.6103 H       1  LIG1        0.0630
     47 H          12.1343   -0.5097    2.0536 H       1  LIG1        0.0624
     48 C          14.8260    2.5567   -1.3348 C.1     1  LIG1       -0.0696
     49 C          15.4347    3.2534   -2.1051 C.1     1  LIG1       -0.1139
     50 H          15.9729    3.8694   -2.7879 H       1  LIG1        0.1232
@<TRIPOS>BOND
     1    25    24    1
     2    50    49    1
     3    24    23    3
     4    49    48    3
     5    23    20    1
     6    21    19    1
     7    48    44    1
     8    45    43    1
     9    20    19   ar
    10    20    17   ar
    11    19    16   ar
    12    43    44   ar
    13    43    40   ar
    14    44    41   ar
    15    13    12    1
    16    12    11    3
    17    11     7    1
    18     8     6    1
    19    34    26    1
    20     7     6   ar
    21     7     4   ar
    22    17    28    1
    23    17    15   ar
    24     6     3   ar
    25    16     4    1
    26    16    14   ar
    27     4     2   ar
    28    28    26   ar
    29    28    31   ar
    30    26    27   ar
    31     3     9    1
    32     3     1   ar
    33     2     1   ar
    34     2     5    1
    35     1    10    1
    36    33    31    1
    37    31    32   ar
    38    27    30    1
    39    27    29   ar
    40    32    29   ar
    41    32    35    1
    42    29    40    1
    43    35    36    3
    44    36    37    1
    45    40    38   ar
    46    41    46    1
    47    41    39   ar
    48    15    14   ar
    49    15    18    1
    50    14    22    1
    51    38    39   ar
    52    38    47    1
    53    39    42    1
