@<TRIPOS>MOLECULE
mol_data/opt/cam/geoms/mol2/4ae4ae4ae4ae.out
 50 53 0 0 0
SMALL
GASTEIGER

@<TRIPOS>ATOM
      1 C           0.0564    0.7513    1.9507 C.ar    1  LIG1       -0.0611
      2 C           1.4201    0.8454    1.7122 C.ar    1  LIG1       -0.0529
      3 C          -0.8460    1.1439    0.9695 C.ar    1  LIG1       -0.0606
      4 C           1.9198    1.3294    0.5014 C.ar    1  LIG1       -0.0025
      5 H           2.1230    0.5575    2.4869 H       1  LIG1        0.0624
      6 C          -0.3740    1.6225   -0.2418 C.ar    1  LIG1       -0.0457
      7 C           1.0002    1.7201   -0.4933 C.ar    1  LIG1        0.0324
      8 H          -1.0655    1.9229   -1.0210 H       1  LIG1        0.0630
      9 H          -1.9142    1.0767    1.1459 H       1  LIG1        0.0618
     10 H          -0.3000    0.3783    2.9051 H       1  LIG1        0.0618
     11 C           1.4186    2.1873   -1.7827 C.1     1  LIG1       -0.0691
     12 C           1.7196    2.5786   -2.8807 C.1     1  LIG1       -0.1139
     13 H           2.0051    2.9232   -3.8478 H       1  LIG1        0.1232
     14 C           4.1986    0.3109    0.6286 C.ar    1  LIG1       -0.0533
     15 C           5.5751    0.3816    0.4841 C.ar    1  LIG1       -0.0523
     16 C           3.3907    1.4035    0.3076 C.ar    1  LIG1       -0.0155
     17 C           6.2058    1.5376    0.0228 C.ar    1  LIG1       -0.0024
     18 H           6.1849   -0.4755    0.7500 H       1  LIG1        0.0624
     19 C           4.0085    2.5610   -0.1574 C.ar    1  LIG1       -0.0380
     20 C           5.3964    2.6444   -0.3046 C.ar    1  LIG1        0.0329
     21 H           3.4102    3.4253   -0.4172 H       1  LIG1        0.0636
     22 H           3.7417   -0.6067    0.9845 H       1  LIG1        0.0624
     23 C           5.9426    3.8665   -0.8192 C.1     1  LIG1       -0.0690
     24 C           6.3548    4.9082   -1.2597 C.1     1  LIG1       -0.1139
     25 H           6.7365    5.8244   -1.6477 H       1  LIG1        0.1232
     26 C           8.3405    0.4910   -0.7443 C.ar    1  LIG1       -0.0533
     27 C           9.7225    0.4744   -0.8457 C.ar    1  LIG1       -0.0523
     28 C           7.6842    1.5499   -0.1132 C.ar    1  LIG1       -0.0155
     29 C          10.5091    1.5007   -0.3215 C.ar    1  LIG1       -0.0024
     30 H          10.2127   -0.3631   -1.3308 H       1  LIG1        0.0624
     31 C           8.4584    2.5816    0.4102 C.ar    1  LIG1       -0.0380
     32 C           9.8535    2.5734    0.3160 C.ar    1  LIG1        0.0329
     33 H           7.9805    3.4186    0.9036 H       1  LIG1        0.0636
     34 H           7.7602   -0.3212   -1.1697 H       1  LIG1        0.0624
     35 C          10.5672    3.6929    0.8583 C.1     1  LIG1       -0.0690
     36 C          11.1226    4.6552    1.3218 C.1     1  LIG1       -0.1139
     37 H          11.6300    5.4998    1.7275 H       1  LIG1        0.1232
     38 C          12.5505    1.1224   -1.7065 C.ar    1  LIG1       -0.0539
     39 C          13.9275    1.0138   -1.8530 C.ar    1  LIG1       -0.0600
     40 C          11.9859    1.4263   -0.4646 C.ar    1  LIG1       -0.0156
     41 C          14.7639    1.2018   -0.7637 C.ar    1  LIG1       -0.0463
     42 H          14.3504    0.7851   -2.8257 H       1  LIG1        0.0618
     43 C          12.8316    1.6145    0.6275 C.ar    1  LIG1       -0.0386
     44 C          14.2175    1.5037    0.4885 C.ar    1  LIG1        0.0253
     45 H          12.4168    1.8432    1.6013 H       1  LIG1        0.0636
     46 H          15.8396    1.1182   -0.8690 H       1  LIG1        0.0630
     47 H          11.9023    0.9886   -2.5663 H       1  LIG1        0.0624
     48 C          15.0716    1.6916    1.6238 C.1     1  LIG1       -0.0696
     49 C          15.7919    1.8485    2.5755 C.1     1  LIG1       -0.1139
     50 H          16.4276    1.9870    3.4193 H       1  LIG1        0.1232
@<TRIPOS>BOND
     1    13    12    1
     2    12    11    3
     3    42    39    1
     4    47    38    1
     5    39    38   ar
     6    39    41   ar
     7    11     7    1
     8    38    40   ar
     9    25    24    1
    10    30    27    1
    11    24    23    3
    12    34    26    1
    13     8     6    1
    14    46    41    1
    15    27    26   ar
    16    27    29   ar
    17    23    20    1
    18    41    44   ar
    19    26    28   ar
    20     7     6   ar
    21     7     4   ar
    22    40    29    1
    23    40    43   ar
    24    21    19    1
    25    29    32   ar
    26    20    19   ar
    27    20    17   ar
    28     6     3   ar
    29    19    16   ar
    30    28    17    1
    31    28    31   ar
    32    17    15   ar
    33    16     4    1
    34    16    14   ar
    35    32    31   ar
    36    32    35    1
    37    31    33    1
    38    15    14   ar
    39    15    18    1
    40    44    43   ar
    41    44    48    1
    42     4     2   ar
    43    43    45    1
    44    14    22    1
    45    35    36    3
    46     3     9    1
    47     3     1   ar
    48    36    37    1
    49    48    49    3
    50     2     1   ar
    51     2     5    1
    52     1    10    1
    53    49    50    1
