@<TRIPOS>MOLECULE
mol_data/opt/cam/geoms/mol2/4ae4ae4ae.out
 38 40 0 0 0
SMALL
GASTEIGER

@<TRIPOS>ATOM
      1 C           0.0980    0.3507    1.4374 C.ar    1  LIG1       -0.0611
      2 C           1.4669    0.4307    1.2250 C.ar    1  LIG1       -0.0529
      3 C          -0.7632    1.1647    0.7115 C.ar    1  LIG1       -0.0606
      4 C           2.0128    1.3157    0.2929 C.ar    1  LIG1       -0.0025
      5 H           2.1390   -0.1912    1.8071 H       1  LIG1        0.0624
      6 C          -0.2455    2.0471   -0.2225 C.ar    1  LIG1       -0.0457
      7 C           1.1343    2.1344   -0.4458 C.ar    1  LIG1        0.0324
      8 H          -0.9050    2.6813   -0.8040 H       1  LIG1        0.0630
      9 H          -1.8349    1.1123    0.8710 H       1  LIG1        0.0618
     10 H          -0.2941   -0.3421    2.1746 H       1  LIG1        0.0618
     11 C           1.5983    3.0409   -1.4552 C.1     1  LIG1       -0.0691
     12 C           1.9376    3.8107   -2.3163 C.1     1  LIG1       -0.1139
     13 H           2.2570    4.4872   -3.0752 H       1  LIG1        0.1232
     14 C           4.2052    0.1636   -0.0410 C.ar    1  LIG1       -0.0533
     15 C           5.5845    0.1827   -0.1744 C.ar    1  LIG1       -0.0523
     16 C           3.4868    1.3511    0.1117 C.ar    1  LIG1       -0.0155
     17 C           6.3069    1.3762   -0.1555 C.ar    1  LIG1       -0.0024
     18 H           6.1242   -0.7523   -0.2808 H       1  LIG1        0.0624
     19 C           4.1963    2.5485    0.1275 C.ar    1  LIG1       -0.0380
     20 C           5.5881    2.5792   -0.0036 C.ar    1  LIG1        0.0329
     21 H           3.6690    3.4873    0.2419 H       1  LIG1        0.0636
     22 H           3.6754   -0.7831   -0.0662 H       1  LIG1        0.0624
     23 C           6.2317    3.8609   -0.0054 C.1     1  LIG1       -0.0690
     24 C           6.7266    4.9582   -0.0078 C.1     1  LIG1       -0.1139
     25 H           7.1810    5.9221   -0.0112 H       1  LIG1        0.1232
     26 C           8.3586    0.5636   -1.3217 C.ar    1  LIG1       -0.0539
     27 C           9.7387    0.4806   -1.4555 C.ar    1  LIG1       -0.0600
     28 C           7.7843    1.3309   -0.3045 C.ar    1  LIG1       -0.0156
     29 C          10.5689    1.1572   -0.5755 C.ar    1  LIG1       -0.0463
     30 H          10.1686   -0.1129   -2.2556 H       1  LIG1        0.0618
     31 C           8.6238    2.0094    0.5778 C.ar    1  LIG1       -0.0386
     32 C          10.0129    1.9281    0.4514 C.ar    1  LIG1        0.0253
     33 H           8.2020    2.6040    1.3785 H       1  LIG1        0.0636
     34 H          11.6470    1.0975   -0.6724 H       1  LIG1        0.0630
     35 H           7.7144    0.0435   -2.0230 H       1  LIG1        0.0624
     36 C          10.8609    2.6251    1.3727 C.1     1  LIG1       -0.0696
     37 C          11.5760    3.2090    2.1453 C.1     1  LIG1       -0.1139
     38 H          12.2071    3.7258    2.8307 H       1  LIG1        0.1232
@<TRIPOS>BOND
     1    13    12    1
     2    12    11    3
     3    30    27    1
     4    35    26    1
     5    27    26   ar
     6    27    29   ar
     7    11     7    1
     8    26    28   ar
     9     8     6    1
    10    34    29    1
    11    29    32   ar
    12     7     6   ar
    13     7     4   ar
    14    28    17    1
    15    28    31   ar
    16    18    15    1
    17     6     3   ar
    18    15    17   ar
    19    15    14   ar
    20    17    20   ar
    21    22    14    1
    22    14    16   ar
    23    25    24    1
    24    24    23    3
    25    23    20    1
    26    20    19   ar
    27    16    19   ar
    28    16     4    1
    29    19    21    1
    30     4     2   ar
    31    32    31   ar
    32    32    36    1
    33    31    33    1
    34     3     9    1
    35     3     1   ar
    36     2     1   ar
    37     2     5    1
    38    36    37    3
    39     1    10    1
    40    37    38    1
