@<TRIPOS>MOLECULE
mol_data/opt/cam/geoms/mol2/4ae4ae4ae-4ae-.out
 50 53 0 0 0
SMALL
GASTEIGER

@<TRIPOS>ATOM
      1 C          -0.1117    0.5083    1.4198 C.ar    1  LIG1       -0.0611
      2 C           1.2703    0.5441    1.3014 C.ar    1  LIG1       -0.0529
      3 C          -0.8982    1.2856    0.5781 C.ar    1  LIG1       -0.0606
      4 C           1.9032    1.3480    0.3510 C.ar    1  LIG1       -0.0025
      5 H           1.8833   -0.0485    1.9724 H       1  LIG1        0.0624
      6 C          -0.2933    2.0876   -0.3758 C.ar    1  LIG1       -0.0457
      7 C           1.1006    2.1300   -0.5046 C.ar    1  LIG1        0.0324
      8 H          -0.8937    2.6919   -1.0465 H       1  LIG1        0.0630
      9 H          -1.9794    1.2670    0.6631 H       1  LIG1        0.0618
     10 H          -0.5726   -0.1213    2.1737 H       1  LIG1        0.0618
     11 C           1.6582    2.9522   -1.5384 C.1     1  LIG1       -0.0691
     12 C           2.0783    3.6514   -2.4238 C.1     1  LIG1       -0.1139
     13 H           2.4686    4.2647   -3.2031 H       1  LIG1        0.1232
     14 C           4.0822    0.1284    0.2549 C.ar    1  LIG1       -0.0533
     15 C           5.4674    0.1082    0.2206 C.ar    1  LIG1       -0.0523
     16 C           3.3866    1.3389    0.2741 C.ar    1  LIG1       -0.0155
     17 C           6.2183    1.2842    0.2096 C.ar    1  LIG1       -0.0024
     18 H           5.9881   -0.8435    0.2174 H       1  LIG1        0.0624
     19 C           4.1248    2.5188    0.2591 C.ar    1  LIG1       -0.0380
     20 C           5.5227    2.5102    0.2269 C.ar    1  LIG1        0.0329
     21 H           3.6158    3.4745    0.2706 H       1  LIG1        0.0636
     22 H           3.5309   -0.8062    0.2562 H       1  LIG1        0.0624
     23 C           6.1967    3.7754    0.1817 C.1     1  LIG1       -0.0690
     24 C           6.7143    4.8616    0.1379 C.1     1  LIG1       -0.1139
     25 H           7.1836    5.8172    0.0946 H       1  LIG1        0.1232
     26 C           8.5054    1.9254    1.0517 C.ar    1  LIG1       -0.0533
     27 C           9.8831    1.7845    1.0229 C.ar    1  LIG1       -0.0523
     28 C           7.6999    1.1969    0.1740 C.ar    1  LIG1       -0.0155
     29 C          10.5196    0.9233    0.1270 C.ar    1  LIG1       -0.0024
     30 H          10.4893    2.3379    1.7324 H       1  LIG1        0.0624
     31 C           8.3235    0.3373   -0.7264 C.ar    1  LIG1       -0.0380
     32 C           9.7141    0.1915   -0.7675 C.ar    1  LIG1        0.0329
     33 H           7.7259   -0.2219   -1.4375 H       1  LIG1        0.0636
     34 H           8.0493    2.5933    1.7726 H       1  LIG1        0.0624
     35 C          10.2675   -0.6827   -1.7603 C.1     1  LIG1       -0.0690
     36 C          10.6849   -1.4226   -2.6134 C.1     1  LIG1       -0.1139
     37 H          11.0722   -2.0720   -3.3643 H       1  LIG1        0.1232
     38 C          12.7792    1.9824    0.1746 C.ar    1  LIG1       -0.0539
     39 C          14.1651    1.9074    0.2310 C.ar    1  LIG1       -0.0600
     40 C          12.0014    0.8215    0.1485 C.ar    1  LIG1       -0.0156
     41 C          14.7982    0.6747    0.2668 C.ar    1  LIG1       -0.0463
     42 H          14.7548    2.8180    0.2426 H       1  LIG1        0.0618
     43 C          12.6432   -0.4155    0.1849 C.ar    1  LIG1       -0.0386
     44 C          14.0366   -0.4988    0.2448 C.ar    1  LIG1        0.0253
     45 H          12.0614   -1.3287    0.1743 H       1  LIG1        0.0636
     46 H          15.8792    0.6071    0.3116 H       1  LIG1        0.0630
     47 H          12.2905    2.9502    0.1322 H       1  LIG1        0.0624
     48 C          14.6793   -1.7789    0.2901 C.1     1  LIG1       -0.0696
     49 C          15.2223   -2.8527    0.3287 C.1     1  LIG1       -0.1139
     50 H          15.7008   -3.8041    0.3635 H       1  LIG1        0.1232
@<TRIPOS>BOND
     1    37    36    1
     2    13    12    1
     3    36    35    3
     4    12    11    3
     5    35    32    1
     6    11     7    1
     7    33    31    1
     8     8     6    1
     9    32    31   ar
    10    32    29   ar
    11    31    28   ar
    12     7     6   ar
    13     7     4   ar
    14     6     3   ar
    15    25    24    1
    16    29    40    1
    17    29    27   ar
    18    47    38    1
    19    24    23    3
    20    40    38   ar
    21    40    43   ar
    22    28    17    1
    23    28    26   ar
    24    45    43    1
    25    38    39   ar
    26    23    20    1
    27    43    44   ar
    28    17    15   ar
    29    17    20   ar
    30    18    15    1
    31    15    14   ar
    32    20    19   ar
    33    39    42    1
    34    39    41   ar
    35    44    41   ar
    36    44    48    1
    37    14    22    1
    38    14    16   ar
    39    19    21    1
    40    19    16   ar
    41    41    46    1
    42    16     4    1
    43    48    49    3
    44    49    50    1
    45     4     2   ar
    46     3     9    1
    47     3     1   ar
    48    27    26   ar
    49    27    30    1
    50    26    34    1
    51     2     1   ar
    52     2     5    1
    53     1    10    1
