@<TRIPOS>MOLECULE
mol_data/opt/cam/geoms/mol2/4ae4ae4ae4ae-.out
 50 53 0 0 0
SMALL
GASTEIGER

@<TRIPOS>ATOM
      1 C          -0.1333    1.1647    1.6362 C.ar    1  LIG1       -0.0611
      2 C           1.2496    1.1488    1.5236 C.ar    1  LIG1       -0.0529
      3 C          -0.9111    1.5466    0.5498 C.ar    1  LIG1       -0.0606
      4 C           1.8918    1.5099    0.3374 C.ar    1  LIG1       -0.0025
      5 H           1.8561    0.8695    2.3788 H       1  LIG1        0.0624
      6 C          -0.2969    1.9046   -0.6392 C.ar    1  LIG1       -0.0457
      7 C           1.0979    1.8903   -0.7639 C.ar    1  LIG1        0.0324
      8 H          -0.8905    2.1948   -1.4987 H       1  LIG1        0.0630
      9 H          -1.9929    1.5649    0.6272 H       1  LIG1        0.0618
     10 H          -0.6016    0.8858    2.5743 H       1  LIG1        0.0618
     11 C           1.6650    2.2346   -2.0350 C.1     1  LIG1       -0.0691
     12 C           2.0923    2.5248   -3.1225 C.1     1  LIG1       -0.1139
     13 H           2.4891    2.7789   -4.0783 H       1  LIG1        0.1232
     14 C           4.0661    0.3489    0.7497 C.ar    1  LIG1       -0.0533
     15 C           5.4513    0.3131    0.7328 C.ar    1  LIG1       -0.0523
     16 C           3.3756    1.4683    0.2807 C.ar    1  LIG1       -0.0155
     17 C           6.2071    1.3853    0.2572 C.ar    1  LIG1       -0.0024
     18 H           5.9676   -0.5626    1.1118 H       1  LIG1        0.0624
     19 C           4.1190    2.5428   -0.1994 C.ar    1  LIG1       -0.0380
     20 C           5.5169    2.5186   -0.2188 C.ar    1  LIG1        0.0329
     21 H           3.6142    3.4252   -0.5721 H       1  LIG1        0.0636
     22 H           3.5106   -0.5062    1.1208 H       1  LIG1        0.0624
     23 C           6.1983    3.6584   -0.7600 C.1     1  LIG1       -0.0690
     24 C           6.7266    4.6335   -1.2284 C.1     1  LIG1       -0.1139
     25 H           7.2103    5.4893   -1.6398 H       1  LIG1        0.1232
     26 C           8.3148    0.1366   -0.2311 C.ar    1  LIG1       -0.0533
     27 C           9.6949    0.0152   -0.2008 C.ar    1  LIG1       -0.0523
     28 C           7.6883    1.2838    0.2604 C.ar    1  LIG1       -0.0155
     29 C          10.5087    1.0211    0.3213 C.ar    1  LIG1       -0.0024
     30 H          10.1603   -0.8891   -0.5785 H       1  LIG1        0.0624
     31 C           8.4902    2.2959    0.7805 C.ar    1  LIG1       -0.0380
     32 C           9.8835    2.1827    0.8178 C.ar    1  LIG1        0.0329
     33 H           8.0364    3.1998    1.1669 H       1  LIG1        0.0636
     34 H           7.7141   -0.6629   -0.6521 H       1  LIG1        0.0624
     35 C          10.6292    3.2897    1.3431 C.1     1  LIG1       -0.0690
     36 C          11.2096    4.2468    1.7862 C.1     1  LIG1       -0.1139
     37 H          11.7359    5.0892    2.1721 H       1  LIG1        0.1232
     38 C          12.7447    1.0467    1.4768 C.ar    1  LIG1       -0.0539
     39 C          14.1150    0.8228    1.4670 C.ar    1  LIG1       -0.0600
     40 C          11.9823    0.8323    0.3254 C.ar    1  LIG1       -0.0156
     41 C          14.7496    0.3854    0.3138 C.ar    1  LIG1       -0.0463
     42 H          14.6930    0.9870    2.3704 H       1  LIG1        0.0618
     43 C          12.6246    0.3906   -0.8305 C.ar    1  LIG1       -0.0386
     44 C          14.0043    0.1662   -0.8488 C.ar    1  LIG1        0.0253
     45 H          12.0533    0.2323   -1.7383 H       1  LIG1        0.0636
     46 H          15.8195    0.2109    0.3015 H       1  LIG1        0.0630
     47 H          12.2584    1.3824    2.3849 H       1  LIG1        0.0624
     48 C          14.6456   -0.2815   -2.0494 C.1     1  LIG1       -0.0696
     49 C          15.1853   -0.6587   -3.0572 C.1     1  LIG1       -0.1139
     50 H          15.6625   -0.9912   -3.9500 H       1  LIG1        0.1232
@<TRIPOS>BOND
     1    13    12    1
     2    50    49    1
     3    12    11    3
     4    49    48    3
     5    48    44    1
     6    11     7    1
     7    45    43    1
     8    25    24    1
     9     8     6    1
    10    24    23    3
    11    44    43   ar
    12    44    41   ar
    13    43    40   ar
    14     7     6   ar
    15     7     4   ar
    16    23    20    1
    17    34    26    1
    18     6     3   ar
    19    30    27    1
    20    21    19    1
    21    26    27   ar
    22    26    28   ar
    23    20    19   ar
    24    20    17   ar
    25    27    29   ar
    26    19    16   ar
    27    17    28    1
    28    17    15   ar
    29    28    31   ar
    30    16     4    1
    31    16    14   ar
    32    46    41    1
    33    41    39   ar
    34    29    40    1
    35    29    32   ar
    36    40    38   ar
    37     4     2   ar
    38     3     9    1
    39     3     1   ar
    40    15    14   ar
    41    15    18    1
    42    14    22    1
    43    31    32   ar
    44    31    33    1
    45    32    35    1
    46    35    36    3
    47    39    38   ar
    48    39    42    1
    49    38    47    1
    50     2     1   ar
    51     2     5    1
    52     1    10    1
    53    36    37    1
