@<TRIPOS>MOLECULE
mol_data/opt/cam/geoms/mol2/4ae4ae-4ae4ae.out
 50 53 0 0 0
SMALL
GASTEIGER

@<TRIPOS>ATOM
      1 C          -0.1595    0.1348    1.0110 C.ar    1  LIG1       -0.0611
      2 C           1.2222    0.1503    0.8848 C.ar    1  LIG1       -0.0529
      3 C          -0.9051    1.2283    0.5875 C.ar    1  LIG1       -0.0606
      4 C           1.8952    1.2449    0.3380 C.ar    1  LIG1       -0.0025
      5 H           1.8043   -0.6959    1.2343 H       1  LIG1        0.0624
      6 C          -0.2603    2.3241    0.0376 C.ar    1  LIG1       -0.0457
      7 C           1.1335    2.3491   -0.0963 C.ar    1  LIG1        0.0324
      8 H          -0.8290    3.1803   -0.3075 H       1  LIG1        0.0630
      9 H          -1.9856    1.2279    0.6835 H       1  LIG1        0.0618
     10 H          -0.6518   -0.7284    1.4466 H       1  LIG1        0.0618
     11 C           1.7300    3.4986   -0.7120 C.1     1  LIG1       -0.0691
     12 C           2.1788    4.4823   -1.2416 C.1     1  LIG1       -0.1139
     13 H           2.5902    5.3448   -1.7133 H       1  LIG1        0.1232
     14 C           4.1810    2.2502    0.6773 C.ar    1  LIG1       -0.0533
     15 C           5.5611    2.1592    0.6026 C.ar    1  LIG1       -0.0523
     16 C           3.3759    1.2007    0.2300 C.ar    1  LIG1       -0.0155
     17 C           6.2003    1.0325    0.0811 C.ar    1  LIG1       -0.0024
     18 H           6.1692    2.9738    0.9815 H       1  LIG1        0.0624
     19 C           4.0016    0.0728   -0.2935 C.ar    1  LIG1       -0.0380
     20 C           5.3943   -0.0274   -0.3790 C.ar    1  LIG1        0.0329
     21 H           3.4021   -0.7473   -0.6725 H       1  LIG1        0.0636
     22 H           3.7241    3.1363    1.1015 H       1  LIG1        0.0624
     23 C           5.9438   -1.2086   -0.9787 C.1     1  LIG1       -0.0690
     24 C           6.3523   -2.2163   -1.4955 C.1     1  LIG1       -0.1139
     25 H           6.7273   -3.1004   -1.9573 H       1  LIG1        0.1232
     26 C           8.4164   -0.0965    0.4864 C.ar    1  LIG1       -0.0533
     27 C           9.8012   -0.0760    0.4632 C.ar    1  LIG1       -0.0523
     28 C           7.6833    1.0001    0.0277 C.ar    1  LIG1       -0.0155
     29 C          10.5161    1.0239   -0.0148 C.ar    1  LIG1       -0.0024
     30 H          10.3526   -0.9266    0.8499 H       1  LIG1        0.0624
     31 C           8.3855    2.1017   -0.4538 C.ar    1  LIG1       -0.0380
     32 C           9.7836    2.1309   -0.4863 C.ar    1  LIG1        0.0329
     33 H           7.8432    2.9574   -0.8403 H       1  LIG1        0.0636
     34 H           7.8991   -0.9637    0.8791 H       1  LIG1        0.0624
     35 C          10.4175    3.2906   -1.0427 C.1     1  LIG1       -0.0690
     36 C          10.9036    4.2816   -1.5231 C.1     1  LIG1       -0.1139
     37 H          11.3514    5.1507   -1.9470 H       1  LIG1        0.1232
     38 C          12.6635   -0.1465   -0.5131 C.ar    1  LIG1       -0.0539
     39 C          14.0503   -0.2220   -0.4901 C.ar    1  LIG1       -0.0600
     40 C          12.0009    0.9786   -0.0148 C.ar    1  LIG1       -0.0156
     41 C          14.7991    0.8202    0.0340 C.ar    1  LIG1       -0.0463
     42 H          14.5497   -1.0990   -0.8883 H       1  LIG1        0.0618
     43 C          12.7587    2.0238    0.5112 C.ar    1  LIG1       -0.0386
     44 C          14.1539    1.9536    0.5408 C.ar    1  LIG1        0.0253
     45 H          12.2675    2.9022    0.9108 H       1  LIG1        0.0636
     46 H          15.8818    0.7692    0.0565 H       1  LIG1        0.0630
     47 H          12.0839   -0.9595   -0.9380 H       1  LIG1        0.0624
     48 C          14.9169    3.0336    1.0932 C.1     1  LIG1       -0.0696
     49 C          15.5607    3.9390    1.5568 C.1     1  LIG1       -0.1139
     50 H          16.1294    4.7407    1.9682 H       1  LIG1        0.1232
@<TRIPOS>BOND
     1    25    24    1
     2    37    36    1
     3    13    12    1
     4    36    35    3
     5    24    23    3
     6    12    11    3
     7    35    32    1
     8    23    20    1
     9    47    38    1
    10    42    39    1
    11    33    31    1
    12    11     7    1
    13    21    19    1
    14    38    39   ar
    15    38    40   ar
    16    39    41   ar
    17    32    31   ar
    18    32    29   ar
    19    31    28   ar
    20    20    19   ar
    21    20    17   ar
    22     8     6    1
    23    19    16   ar
    24     7     6   ar
    25     7     4   ar
    26    40    29    1
    27    40    43   ar
    28    29    27   ar
    29    28    17    1
    30    28    26   ar
    31    41    46    1
    32    41    44   ar
    33     6     3   ar
    34    17    15   ar
    35    16     4    1
    36    16    14   ar
    37     4     2   ar
    38    27    26   ar
    39    27    30    1
    40    26    34    1
    41    43    44   ar
    42    43    45    1
    43    44    48    1
    44     3     9    1
    45     3     1   ar
    46    15    14   ar
    47    15    18    1
    48    14    22    1
    49     2     1   ar
    50     2     5    1
    51     1    10    1
    52    48    49    3
    53    49    50    1
