@<TRIPOS>MOLECULE
mol_data/opt/cam/geoms/mol2/4ae4ae-4ae-4ae-.out
 50 53 0 0 0
SMALL
GASTEIGER

@<TRIPOS>ATOM
      1 C          -0.2404    0.1706    0.6014 C.ar    1  LIG1       -0.0611
      2 C           1.1405    0.1299    0.4715 C.ar    1  LIG1       -0.0529
      3 C          -0.9006    1.3933    0.5907 C.ar    1  LIG1       -0.0606
      4 C           1.8968    1.2950    0.3283 C.ar    1  LIG1       -0.0025
      5 H           1.6560   -0.8242    0.5001 H       1  LIG1        0.0624
      6 C          -0.1722    2.5626    0.4454 C.ar    1  LIG1       -0.0457
      7 C           1.2216    2.5326    0.3114 C.ar    1  LIG1        0.0324
      8 H          -0.6739    3.5235    0.4240 H       1  LIG1        0.0630
      9 H          -1.9795    1.4369    0.6938 H       1  LIG1        0.0618
     10 H          -0.7986   -0.7524    0.7181 H       1  LIG1        0.0618
     11 C           1.9064    3.7783    0.1235 C.1     1  LIG1       -0.0691
     12 C           2.4302    4.8502   -0.0391 C.1     1  LIG1       -0.1139
     13 H           2.9066    5.7915   -0.1888 H       1  LIG1        0.1232
     14 C           4.2436    1.9537    0.9680 C.ar    1  LIG1       -0.0533
     15 C           5.6146    1.7962    0.8488 C.ar    1  LIG1       -0.0523
     16 C           3.3719    1.1852    0.1937 C.ar    1  LIG1       -0.0155
     17 C           6.1784    0.8777   -0.0389 C.ar    1  LIG1       -0.0024
     18 H           6.2743    2.3830    1.4793 H       1  LIG1        0.0624
     19 C           3.9225    0.2674   -0.6964 C.ar    1  LIG1       -0.0380
     20 C           5.3054    0.1036   -0.8285 C.ar    1  LIG1        0.0329
     21 H           3.2709   -0.3256   -1.3283 H       1  LIG1        0.0636
     22 H           3.8451    2.6674    1.6792 H       1  LIG1        0.0624
     23 C           5.7795   -0.8333   -1.8050 C.1     1  LIG1       -0.0690
     24 C           6.1294   -1.6266   -2.6401 C.1     1  LIG1       -0.1139
     25 H           6.4575   -2.3238   -3.3763 H       1  LIG1        0.1232
     26 C           8.4452    1.9124   -0.2134 C.ar    1  LIG1       -0.0533
     27 C           9.8273    1.8204   -0.2546 C.ar    1  LIG1       -0.0523
     28 C           7.6563    0.7638   -0.1206 C.ar    1  LIG1       -0.0155
     29 C          10.4829    0.5900   -0.1995 C.ar    1  LIG1       -0.0024
     30 H          10.4216    2.7260   -0.3158 H       1  LIG1        0.0624
     31 C           8.2992   -0.4699   -0.0691 C.ar    1  LIG1       -0.0380
     32 C           9.6930   -0.5739   -0.1073 C.ar    1  LIG1        0.0329
     33 H           7.7168   -1.3799    0.0012 H       1  LIG1        0.0636
     34 H           7.9692    2.8860   -0.2651 H       1  LIG1        0.0624
     35 C          10.2668   -1.8879   -0.0786 C.1     1  LIG1       -0.0690
     36 C          10.7024   -3.0100   -0.0583 C.1     1  LIG1       -0.1139
     37 H          11.1047   -3.9966   -0.0403 H       1  LIG1        0.1232
     38 C          12.6475    1.2996   -1.2194 C.ar    1  LIG1       -0.0539
     39 C          14.0360    1.3102   -1.2608 C.ar    1  LIG1       -0.0600
     40 C          11.9673    0.5577   -0.2497 C.ar    1  LIG1       -0.0156
     41 C          14.7691    0.5856   -0.3339 C.ar    1  LIG1       -0.0463
     42 H          14.5486    1.8847   -2.0251 H       1  LIG1        0.0618
     43 C          12.7094   -0.1690    0.6800 C.ar    1  LIG1       -0.0386
     44 C          14.1063   -0.1605    0.6467 C.ar    1  LIG1        0.0253
     45 H          12.2049   -0.7447    1.4458 H       1  LIG1        0.0636
     46 H          15.8529    0.5889   -0.3586 H       1  LIG1        0.0630
     47 H          12.0796    1.8574   -1.9568 H       1  LIG1        0.0624
     48 C          14.8533   -0.9064    1.6158 C.1     1  LIG1       -0.0696
     49 C          15.4838   -1.5316    2.4287 C.1     1  LIG1       -0.1139
     50 H          16.0407   -2.0851    3.1489 H       1  LIG1        0.1232
@<TRIPOS>BOND
     1    25    24    1
     2    24    23    3
     3    42    39    1
     4    47    38    1
     5    23    20    1
     6    21    19    1
     7    39    38   ar
     8    39    41   ar
     9    38    40   ar
    10    20    19   ar
    11    20    17   ar
    12    19    16   ar
    13    46    41    1
    14    41    44   ar
    15    30    27    1
    16    34    26    1
    17    27    26   ar
    18    27    29   ar
    19    40    29    1
    20    40    43   ar
    21    26    28   ar
    22    29    32   ar
    23    13    12    1
    24    28    31   ar
    25    28    17    1
    26    32    35    1
    27    32    31   ar
    28    35    36    3
    29    31    33    1
    30    36    37    1
    31    12    11    3
    32    17    15   ar
    33    11     7    1
    34    16     4    1
    35    16    14   ar
    36     7     4   ar
    37     7     6   ar
    38     4     2   ar
    39     8     6    1
    40     6     3   ar
    41     2     5    1
    42     2     1   ar
    43     3     1   ar
    44     3     9    1
    45     1    10    1
    46    44    43   ar
    47    44    48    1
    48    43    45    1
    49    15    14   ar
    50    15    18    1
    51    14    22    1
    52    48    49    3
    53    49    50    1
