@<TRIPOS>MOLECULE
mol_data/opt/cam/geoms/mol2/4ae4ae-4ae.out
 38 40 0 0 0
SMALL
GASTEIGER

@<TRIPOS>ATOM
      1 C          -0.1103    0.0896    0.5998 C.ar    1  LIG1       -0.0611
      2 C           1.2769    0.0993    0.5705 C.ar    1  LIG1       -0.0529
      3 C          -0.8175    1.2347    0.2536 C.ar    1  LIG1       -0.0606
      4 C           1.9937    1.2387    0.1988 C.ar    1  LIG1       -0.0025
      5 H           1.8276   -0.7894    0.8602 H       1  LIG1        0.0624
      6 C          -0.1287    2.3762   -0.1226 C.ar    1  LIG1       -0.0457
      7 C           1.2713    2.3959   -0.1575 C.ar    1  LIG1        0.0324
      8 H          -0.6662    3.2741   -0.4058 H       1  LIG1        0.0630
      9 H          -1.9020    1.2392    0.2751 H       1  LIG1        0.0618
     10 H          -0.6373   -0.8101    0.8997 H       1  LIG1        0.0618
     11 C           1.9163    3.5994   -0.5955 C.1     1  LIG1       -0.0691
     12 C           2.4068    4.6307   -0.9767 C.1     1  LIG1       -0.1139
     13 H           2.8553    5.5354   -1.3172 H       1  LIG1        0.1232
     14 C           4.2580    2.1660    0.8029 C.ar    1  LIG1       -0.0533
     15 C           5.6393    2.0630    0.8122 C.ar    1  LIG1       -0.0523
     16 C           3.4780    1.1849    0.1874 C.ar    1  LIG1       -0.0155
     17 C           6.3044    0.9915    0.2130 C.ar    1  LIG1       -0.0024
     18 H           6.2262    2.8215    1.3193 H       1  LIG1        0.0624
     19 C           4.1301    0.1127   -0.4153 C.ar    1  LIG1       -0.0380
     20 C           5.5246    0.0016   -0.4164 C.ar    1  LIG1        0.0329
     21 H           3.5519   -0.6510   -0.9233 H       1  LIG1        0.0636
     22 H           3.7794    3.0064    1.2912 H       1  LIG1        0.0624
     23 C           6.1065   -1.1140   -1.1047 C.1     1  LIG1       -0.0690
     24 C           6.5448   -2.0637   -1.7007 C.1     1  LIG1       -0.1139
     25 H           6.9476   -2.8959   -2.2305 H       1  LIG1        0.1232
     26 C           8.4712   -0.2079    0.6612 C.ar    1  LIG1       -0.0539
     27 C           9.8577   -0.2159    0.7347 C.ar    1  LIG1       -0.0600
     28 C           7.7884    0.9427    0.2577 C.ar    1  LIG1       -0.0156
     29 C          10.5875    0.9170    0.4067 C.ar    1  LIG1       -0.0463
     30 H          10.3738   -1.1145    1.0562 H       1  LIG1        0.0618
     31 C           8.5266    2.0795   -0.0687 C.ar    1  LIG1       -0.0386
     32 C           9.9228    2.0780    0.0000 C.ar    1  LIG1        0.0253
     33 H           8.0163    2.9779   -0.3978 H       1  LIG1        0.0636
     34 H          11.6702    0.9146    0.4616 H       1  LIG1        0.0630
     35 H           7.9108   -1.0965    0.9262 H       1  LIG1        0.0624
     36 C          10.6626    3.2555   -0.3456 C.1     1  LIG1       -0.0696
     37 C          11.2853    4.2445   -0.6343 C.1     1  LIG1       -0.1139
     38 H          11.8360    5.1197   -0.8914 H       1  LIG1        0.1232
@<TRIPOS>BOND
     1    25    24    1
     2    24    23    3
     3    13    12    1
     4    23    20    1
     5    12    11    3
     6    21    19    1
     7    38    37    1
     8    37    36    3
     9    11     7    1
    10    20    19   ar
    11    20    17   ar
    12    19    16   ar
    13     8     6    1
    14    33    31    1
    15    36    32    1
    16     7     6   ar
    17     7     4   ar
    18     6     3   ar
    19    31    32   ar
    20    31    28   ar
    21    32    29   ar
    22    16     4    1
    23    16    14   ar
    24     4     2   ar
    25    17    28    1
    26    17    15   ar
    27     3     9    1
    28     3     1   ar
    29    28    26   ar
    30    29    34    1
    31    29    27   ar
    32     2     1   ar
    33     2     5    1
    34     1    10    1
    35    26    27   ar
    36    26    35    1
    37    27    30    1
    38    14    15   ar
    39    14    22    1
    40    15    18    1
