@<TRIPOS>MOLECULE
mol_data/opt/cam/geoms/mol2/4ae4ae-.out
 26 27 0 0 0
SMALL
GASTEIGER

@<TRIPOS>ATOM
      1 C          -0.0486    0.1930    0.6135 C.ar    1  LIG1       -0.0611
      2 C           1.3385    0.1742    0.6430 C.ar    1  LIG1       -0.0529
      3 C          -0.7154    1.3180    0.1434 C.ar    1  LIG1       -0.0606
      4 C           2.0950    1.2648    0.2094 C.ar    1  LIG1       -0.0025
      5 H           1.8572   -0.6974    1.0281 H       1  LIG1        0.0624
      6 C           0.0136    2.4107   -0.2966 C.ar    1  LIG1       -0.0457
      7 C           1.4139    2.4010   -0.2727 C.ar    1  LIG1        0.0324
      8 H          -0.4917    3.2916   -0.6763 H       1  LIG1        0.0630
      9 H          -1.7995    1.3445    0.1179 H       1  LIG1        0.0618
     10 H          -0.6075   -0.6684    0.9641 H       1  LIG1        0.0618
     11 C           2.1037    3.5512   -0.7802 C.1     1  LIG1       -0.0691
     12 C           2.6331    4.5376   -1.2234 C.1     1  LIG1       -0.1139
     13 H           3.1166    5.4016   -1.6174 H       1  LIG1        0.1232
     14 C           4.3436    2.1930    0.8553 C.ar    1  LIG1       -0.0539
     15 C           5.7248    2.0755    0.9346 C.ar    1  LIG1       -0.0600
     16 C           3.5780    1.1829    0.2672 C.ar    1  LIG1       -0.0156
     17 C           6.3670    0.9549    0.4290 C.ar    1  LIG1       -0.0463
     18 H           6.3057    2.8648    1.4003 H       1  LIG1        0.0618
     19 C           4.2278    0.0574   -0.2370 C.ar    1  LIG1       -0.0386
     20 C           5.6184   -0.0664   -0.1639 C.ar    1  LIG1        0.0253
     21 H           3.6530   -0.7313   -0.7095 H       1  LIG1        0.0636
     22 H           7.4453    0.8599    0.4874 H       1  LIG1        0.0630
     23 H           3.8516    3.0698    1.2595 H       1  LIG1        0.0624
     24 C           6.2672   -1.2285   -0.6947 C.1     1  LIG1       -0.0696
     25 C           6.8134   -2.2048   -1.1395 C.1     1  LIG1       -0.1139
     26 H           7.2966   -3.0684   -1.5346 H       1  LIG1        0.1232
@<TRIPOS>BOND
     1    13    12    1
     2    26    25    1
     3    12    11    3
     4    25    24    3
     5    11     7    1
     6    21    19    1
     7    24    20    1
     8     8     6    1
     9     6     7   ar
    10     6     3   ar
    11     7     4   ar
    12    19    20   ar
    13    19    16   ar
    14    20    17   ar
    15     9     3    1
    16     3     1   ar
    17     4    16    1
    18     4     2   ar
    19    16    14   ar
    20    17    22    1
    21    17    15   ar
    22     1     2   ar
    23     1    10    1
    24     2     5    1
    25    14    15   ar
    26    14    23    1
    27    15    18    1
