@<TRIPOS>MOLECULE
mol_data/opt/cam/geoms/mol2/4ae4ae-4ae4ae-.out
 50 53 0 0 0
SMALL
GASTEIGER

@<TRIPOS>ATOM
      1 C          -0.2138    0.1888    0.7528 C.ar    1  LIG1       -0.0611
      2 C           1.1726    0.1877    0.6954 C.ar    1  LIG1       -0.0529
      3 C          -0.9228    1.3058    0.3274 C.ar    1  LIG1       -0.0606
      4 C           1.8865    1.2884    0.2168 C.ar    1  LIG1       -0.0025
      5 H           1.7250   -0.6774    1.0466 H       1  LIG1        0.0624
      6 C          -0.2369    2.4082   -0.1553 C.ar    1  LIG1       -0.0457
      7 C           1.1621    2.4164   -0.2196 C.ar    1  LIG1        0.0324
      8 H          -0.7762    3.2828   -0.5011 H       1  LIG1        0.0630
      9 H          -2.0066    1.3185    0.3701 H       1  LIG1        0.0618
     10 H          -0.7385   -0.6799    1.1363 H       1  LIG1        0.0618
     11 C           1.8034    3.5754   -0.7691 C.1     1  LIG1       -0.0691
     12 C           2.2901    4.5684   -1.2450 C.1     1  LIG1       -0.1139
     13 H           2.7351    5.4389   -1.6692 H       1  LIG1        0.1232
     14 C           4.1659    2.2500    0.6975 C.ar    1  LIG1       -0.0533
     15 C           5.5467    2.1406    0.6885 C.ar    1  LIG1       -0.0523
     16 C           3.3701    1.2255    0.1808 C.ar    1  LIG1       -0.0155
     17 C           6.1957    1.0196    0.1672 C.ar    1  LIG1       -0.0024
     18 H           6.1461    2.9351    1.1201 H       1  LIG1        0.0624
     19 C           4.0060    0.1036   -0.3436 C.ar    1  LIG1       -0.0380
     20 C           5.3996   -0.0148   -0.3629 C.ar    1  LIG1        0.0329
     21 H           3.4149   -0.6964   -0.7751 H       1  LIG1        0.0636
     22 H           3.7003    3.1305    1.1238 H       1  LIG1        0.0624
     23 C           5.9630   -1.1863   -0.9686 C.1     1  LIG1       -0.0690
     24 C           6.3855   -2.1842   -1.4930 C.1     1  LIG1       -0.1139
     25 H           6.7738   -3.0596   -1.9605 H       1  LIG1        0.1232
     26 C           8.3732   -0.1531    0.6501 C.ar    1  LIG1       -0.0533
     27 C           9.7576   -0.1530    0.6965 C.ar    1  LIG1       -0.0523
     28 C           7.6790    0.9665    0.1866 C.ar    1  LIG1       -0.0155
     29 C          10.5107    0.9483    0.2853 C.ar    1  LIG1       -0.0024
     30 H          10.2770   -1.0223    1.0859 H       1  LIG1        0.0624
     31 C           8.4195    2.0700   -0.2286 C.ar    1  LIG1       -0.0380
     32 C           9.8178    2.0786   -0.1909 C.ar    1  LIG1        0.0329
     33 H           7.9092    2.9437   -0.6182 H       1  LIG1        0.0636
     34 H           7.8252   -1.0229    0.9919 H       1  LIG1        0.0624
     35 C          10.4932    3.2433   -0.6849 C.1     1  LIG1       -0.0690
     36 C          11.0114    4.2408   -1.1162 C.1     1  LIG1       -0.1139
     37 H          11.4845    5.1145   -1.5011 H       1  LIG1        0.1232
     38 C          12.7424    1.9032    0.9499 C.ar    1  LIG1       -0.0539
     39 C          14.1239    1.8000    1.0440 C.ar    1  LIG1       -0.0600
     40 C          11.9928    0.8823    0.3594 C.ar    1  LIG1       -0.0156
     41 C          14.7824    0.6832    0.5511 C.ar    1  LIG1       -0.0463
     42 H          14.6920    2.5975    1.5113 H       1  LIG1        0.0618
     43 C          12.6594   -0.2392   -0.1323 C.ar    1  LIG1       -0.0386
     44 C          14.0501   -0.3487   -0.0441 C.ar    1  LIG1        0.0253
     45 H          12.0973   -1.0358   -0.6069 H       1  LIG1        0.0636
     46 H          15.8609    0.5992    0.6211 H       1  LIG1        0.0630
     47 H          12.2378    2.7773    1.3440 H       1  LIG1        0.0624
     48 C          14.7160   -1.5070   -0.5619 C.1     1  LIG1       -0.0696
     49 C          15.2767   -2.4800   -0.9957 C.1     1  LIG1       -0.1139
     50 H          15.7725   -3.3408   -1.3811 H       1  LIG1        0.1232
@<TRIPOS>BOND
     1    25    24    1
     2    13    12    1
     3    37    36    1
     4    24    23    3
     5    50    49    1
     6    12    11    3
     7    36    35    3
     8    49    48    3
     9    23    20    1
    10    21    19    1
    11    11     7    1
    12    35    32    1
    13    33    31    1
    14    45    43    1
    15    48    44    1
    16     8     6    1
    17    20    19   ar
    18    20    17   ar
    19    19    16   ar
    20    31    32   ar
    21    31    28   ar
    22     7     6   ar
    23     7     4   ar
    24    32    29   ar
    25     6     3   ar
    26    43    44   ar
    27    43    40   ar
    28    44    41   ar
    29    17    28    1
    30    17    15   ar
    31    16     4    1
    32    16    14   ar
    33    28    26   ar
    34     4     2   ar
    35    29    40    1
    36    29    27   ar
    37     3     9    1
    38     3     1   ar
    39    40    38   ar
    40    41    46    1
    41    41    39   ar
    42    26    27   ar
    43    26    34    1
    44    15    14   ar
    45    15    18    1
    46     2     1   ar
    47     2     5    1
    48    27    30    1
    49    14    22    1
    50     1    10    1
    51    38    39   ar
    52    38    47    1
    53    39    42    1
