@<TRIPOS>MOLECULE
mol_data/opt/cam/geoms/mol2/4ae4ae.out
 26 27 0 0 0
SMALL
GASTEIGER

@<TRIPOS>ATOM
      1 C           0.0823    0.1088    0.7589 C.ar    1  LIG1       -0.0611
      2 C           1.4586    0.1476    0.5866 C.ar    1  LIG1       -0.0529
      3 C          -0.6890    1.2127    0.4155 C.ar    1  LIG1       -0.0606
      4 C           2.1008    1.2760    0.0727 C.ar    1  LIG1       -0.0025
      5 H           2.0615   -0.7077    0.8731 H       1  LIG1        0.0624
      6 C          -0.0749    2.3422   -0.1003 C.ar    1  LIG1       -0.0457
      7 C           1.3132    2.3910   -0.2794 C.ar    1  LIG1        0.0324
      8 H          -0.6640    3.2077   -0.3821 H       1  LIG1        0.0630
      9 H          -1.7655    1.1943    0.5479 H       1  LIG1        0.0618
     10 H          -0.3856   -0.7806    1.1677 H       1  LIG1        0.0618
     11 C           1.8783    3.5776   -0.8528 C.1     1  LIG1       -0.0691
     12 C           2.3034    4.5918   -1.3427 C.1     1  LIG1       -0.1139
     13 H           2.6982    5.4817   -1.7759 H       1  LIG1        0.1232
     14 C           4.1928    0.1638   -0.7143 C.ar    1  LIG1       -0.0539
     15 C           5.5746    0.1084   -0.8462 C.ar    1  LIG1       -0.0600
     16 C           3.5780    1.2527   -0.0904 C.ar    1  LIG1       -0.0156
     17 C           6.3658    1.1346   -0.3542 C.ar    1  LIG1       -0.0463
     18 H           6.0360   -0.7401   -1.3404 H       1  LIG1        0.0618
     19 C           4.3783    2.2818    0.4028 C.ar    1  LIG1       -0.0386
     20 C           5.7691    2.2316    0.2769 C.ar    1  LIG1        0.0253
     21 H           3.9248    3.1317    0.8974 H       1  LIG1        0.0636
     22 H           7.4449    1.0992   -0.4523 H       1  LIG1        0.0630
     23 H           3.5781   -0.6360   -1.1142 H       1  LIG1        0.0624
     24 C           6.5773    3.2944    0.7973 C.1     1  LIG1       -0.0696
     25 C           7.2591    4.1853    1.2338 C.1     1  LIG1       -0.1139
     26 H           7.8608    4.9745    1.6217 H       1  LIG1        0.1232
@<TRIPOS>BOND
     1    13    12    1
     2    12    11    3
     3    18    15    1
     4    23    14    1
     5    11     7    1
     6    15    14   ar
     7    15    17   ar
     8    14    16   ar
     9    22    17    1
    10     8     6    1
    11    17    20   ar
    12     7     6   ar
    13     7     4   ar
    14     6     3   ar
    15    16     4    1
    16    16    19   ar
    17     4     2   ar
    18    20    19   ar
    19    20    24    1
    20    19    21    1
    21     3     9    1
    22     3     1   ar
    23     2     1   ar
    24     2     5    1
    25     1    10    1
    26    24    25    3
    27    25    26    1
