@<TRIPOS>MOLECULE
mol_data/opt/cam/geoms/mol2/4ae4ae4ae-4ae.out
 50 53 0 0 0
SMALL
GASTEIGER

@<TRIPOS>ATOM
      1 C          -0.1175    0.5083    1.4351 C.ar    1  LIG1       -0.0611
      2 C           1.2643    0.5442    1.3145 C.ar    1  LIG1       -0.0529
      3 C          -0.9063    1.2683    0.5798 C.ar    1  LIG1       -0.0606
      4 C           1.8946    1.3312    0.3483 C.ar    1  LIG1       -0.0025
      5 H           1.8793   -0.0344    1.9958 H       1  LIG1        0.0624
      6 C          -0.3039    2.0530   -0.3899 C.ar    1  LIG1       -0.0457
      7 C           1.0898    2.0954   -0.5211 C.ar    1  LIG1        0.0324
      8 H          -0.9061    2.6434   -1.0713 H       1  LIG1        0.0630
      9 H          -1.9874    1.2496    0.6665 H       1  LIG1        0.0618
     10 H          -0.5765   -0.1076    2.2014 H       1  LIG1        0.0618
     11 C           1.6452    2.8985   -1.5710 C.1     1  LIG1       -0.0691
     12 C           2.0635    3.5809   -2.4702 C.1     1  LIG1       -0.1139
     13 H           2.4523    4.1792   -3.2618 H       1  LIG1        0.1232
     14 C           4.0757    0.1139    0.2730 C.ar    1  LIG1       -0.0533
     15 C           5.4610    0.0953    0.2399 C.ar    1  LIG1       -0.0523
     16 C           3.3780    1.3233    0.2704 C.ar    1  LIG1       -0.0155
     17 C           6.2098    1.2723    0.2085 C.ar    1  LIG1       -0.0024
     18 H           5.9831   -0.8555    0.2545 H       1  LIG1        0.0624
     19 C           4.1141    2.5041    0.2335 C.ar    1  LIG1       -0.0380
     20 C           5.5120    2.4972    0.2021 C.ar    1  LIG1        0.0329
     21 H           3.6036    3.4590    0.2268 H       1  LIG1        0.0636
     22 H           3.5257   -0.8213    0.2911 H       1  LIG1        0.0624
     23 C           6.1842    3.7623    0.1329 C.1     1  LIG1       -0.0690
     24 C           6.7011    4.8476    0.0679 C.1     1  LIG1       -0.1139
     25 H           7.1706    5.8022    0.0059 H       1  LIG1        0.1232
     26 C           8.4923    1.9360    1.0440 C.ar    1  LIG1       -0.0533
     27 C           9.8706    1.8000    1.0215 C.ar    1  LIG1       -0.0523
     28 C           7.6916    1.1880    0.1781 C.ar    1  LIG1       -0.0155
     29 C          10.5127    0.9248    0.1433 C.ar    1  LIG1       -0.0024
     30 H          10.4731    2.3698    1.7210 H       1  LIG1        0.0624
     31 C           8.3207    0.3137   -0.7039 C.ar    1  LIG1       -0.0380
     32 C           9.7121    0.1728   -0.7387 C.ar    1  LIG1        0.0329
     33 H           7.7269   -0.2609   -1.4059 H       1  LIG1        0.0636
     34 H           8.0320    2.6163    1.7504 H       1  LIG1        0.0624
     35 C          10.2698   -0.7172   -1.7154 C.1     1  LIG1       -0.0690
     36 C          10.6873   -1.4708   -2.5563 C.1     1  LIG1       -0.1139
     37 H          11.0717   -2.1297   -3.3003 H       1  LIG1        0.1232
     38 C          12.6473   -0.4058    0.2272 C.ar    1  LIG1       -0.0539
     39 C          14.0329   -0.4688    0.2920 C.ar    1  LIG1       -0.0600
     40 C          11.9947    0.8285    0.1695 C.ar    1  LIG1       -0.0156
     41 C          14.7918    0.6921    0.2982 C.ar    1  LIG1       -0.0463
     42 H          14.5253   -1.4343    0.3432 H       1  LIG1        0.0618
     43 C          12.7621    1.9926    0.1785 C.ar    1  LIG1       -0.0386
     44 C          14.1575    1.9370    0.2405 C.ar    1  LIG1        0.0253
     45 H          12.2756    2.9598    0.1199 H       1  LIG1        0.0636
     46 H          15.8738    0.6474    0.3472 H       1  LIG1        0.0630
     47 H          12.0642   -1.3190    0.2297 H       1  LIG1        0.0624
     48 C          14.9274    3.1454    0.2417 C.1     1  LIG1       -0.0696
     49 C          15.5753    4.1601    0.2437 C.1     1  LIG1       -0.1139
     50 H          16.1483    5.0584    0.2440 H       1  LIG1        0.1232
@<TRIPOS>BOND
     1    37    36    1
     2    13    12    1
     3    36    35    3
     4    12    11    3
     5    35    32    1
     6    11     7    1
     7    33    31    1
     8     8     6    1
     9    32    31   ar
    10    32    29   ar
    11    31    28   ar
    12     7     6   ar
    13     7     4   ar
    14     6     3   ar
    15    25    24    1
    16    24    23    3
    17    45    43    1
    18    23    20    1
    19    29    40    1
    20    29    27   ar
    21    40    43   ar
    22    40    38   ar
    23    28    17    1
    24    28    26   ar
    25    43    44   ar
    26    20    17   ar
    27    20    19   ar
    28    17    15   ar
    29    21    19    1
    30    38    47    1
    31    38    39   ar
    32    19    16   ar
    33    15    18    1
    34    15    14   ar
    35    44    48    1
    36    44    41   ar
    37    48    49    3
    38    49    50    1
    39    16    14   ar
    40    16     4    1
    41    14    22    1
    42    39    41   ar
    43    39    42    1
    44    41    46    1
    45     4     2   ar
    46     3     9    1
    47     3     1   ar
    48    27    26   ar
    49    27    30    1
    50    26    34    1
    51     2     1   ar
    52     2     5    1
    53     1    10    1
