@<TRIPOS>MOLECULE
mol_data/opt/cam/geoms/mol2/4ae6hf13fe-12ei-.out
 49 52 0 0 0
SMALL
GASTEIGER

@<TRIPOS>ATOM
      1 C          -0.0648    0.9266   -1.3642 C.ar    1  LIG1       -0.0611
      2 C           1.3122    0.8042   -1.2308 C.ar    1  LIG1       -0.0528
      3 C          -0.7769    1.7245   -0.4766 C.ar    1  LIG1       -0.0606
      4 C           2.0065    1.4664   -0.2171 C.ar    1  LIG1        0.0009
      5 H           1.8732    0.1880   -1.9259 H       1  LIG1        0.0624
      6 C          -0.1092    2.3856    0.5425 C.ar    1  LIG1       -0.0457
      7 C           1.2780    2.2640    0.6888 C.ar    1  LIG1        0.0325
      8 H          -0.6547    2.9997    1.2502 H       1  LIG1        0.0630
      9 H          -1.8524    1.8285   -0.5741 H       1  LIG1        0.0618
     10 H          -0.5793    0.4015   -2.1622 H       1  LIG1        0.0618
     11 C           1.9226    2.9287    1.7821 C.1     1  LIG1       -0.0691
     12 C           2.4315    3.4883    2.7179 C.1     1  LIG1       -0.1139
     13 H           2.9020    3.9820    3.5365 H       1  LIG1        0.1232
     14 C           4.3831    2.3494   -0.3775 C.ar    1  LIG1        0.1249
     15 C           3.4795    1.2952   -0.1077 C.ar    1  LIG1        0.0263
     16 C           4.0283    0.0669    0.2043 C.ar    1  LIG1       -0.0070
     17 C           5.4089   -0.1248    0.2840 C.ar    1  LIG1        0.1450
     18 C           6.2218    0.9822    0.0235 C.ar    1  LIG1        0.1341
     19 N           5.6925    2.1768   -0.3114 N.ar    1  LIG1       -0.2266
     20 H           3.3882   -0.7846    0.4096 H       1  LIG1        0.0662
     21 N           3.9378    3.6145   -0.7082 N.pl3   1  LIG1       -0.3426
     22 H           4.6390    4.1975   -1.1378 H       1  LIG1        0.1437
     23 H           3.0165    3.6838   -1.1105 H       1  LIG1        0.1437
     24 O           5.8225   -1.3744    0.5989 O.3     1  LIG1       -0.5045
     25 H           6.7904   -1.4456    0.6625 H       1  LIG1        0.2922
     26 C           7.6862    0.9910    0.0595 C.ar    1  LIG1        0.1124
     27 C           8.6880    0.0878    0.3492 C.ar    1  LIG1        0.1598
     28 C           9.9488    0.7191    0.1939 C.ar    1  LIG1        0.0950
     29 C           9.6807    2.0365   -0.1876 C.ar    1  LIG1        0.1030
     30 N           8.3322    2.1609   -0.2602 N.ar    1  LIG1       -0.3465
     31 H           7.8052    2.9876   -0.5046 H       1  LIG1        0.1662
     32 O           8.5164   -1.2127    0.7178 O.3     1  LIG1       -0.5034
     33 H           9.3839   -1.6382    0.7796 H       1  LIG1        0.2923
     34 C          11.1607   -0.0010    0.3298 C.1     1  LIG1       -0.0637
     35 C          12.1113   -0.7334    0.4534 C.1     1  LIG1       -0.1137
     36 H          12.9843   -1.3366    0.5496 H       1  LIG1        0.1232
     37 C          10.5271    3.1588   -0.5079 C.ar    1  LIG1        0.1677
     38 C          11.7934    3.5605   -0.1627 C.ar    1  LIG1        0.0747
     39 C          12.0158    4.8240   -0.8270 C.ar    1  LIG1        0.0034
     40 C          10.8728    5.0877   -1.4968 C.ar    1  LIG1        0.0968
     41 O           9.9598    4.0932   -1.3174 O.2     1  LIG1       -0.4599
     42 H          10.5612    5.9065   -2.1258 H       1  LIG1        0.1032
     43 C          12.7062    2.9441    0.7308 C.1     1  LIG1       -0.0656
     44 C          13.5058    2.4755    1.4993 C.1     1  LIG1       -0.1138
     45 H          14.1960    2.0416    2.1849 H       1  LIG1        0.1232
     46 C          13.2580    5.6469   -0.7505 C.3     1  LIG1       -0.0355
     47 H          13.1523    6.5737   -1.3179 H       1  LIG1        0.0279
     48 H          14.1171    5.0990   -1.1480 H       1  LIG1        0.0279
     49 H          13.4928    5.9045    0.2860 H       1  LIG1        0.0279
@<TRIPOS>BOND
     1    10     1    1
     2    42    40    1
     3     5     2    1
     4    40    41   ar
     5    40    39   ar
     6     1     2   ar
     7     1     3   ar
     8    47    46    1
     9    41    37   ar
    10     2     4   ar
    11    48    46    1
    12    22    21    1
    13    23    21    1
    14    39    46    1
    15    39    38   ar
    16    46    49    1
    17    21    14    1
    18     9     3    1
    19    37    29    1
    20    37    38   ar
    21    31    30    1
    22     3     6   ar
    23    14    19   ar
    24    14    15   ar
    25    19    18   ar
    26    30    29   ar
    27    30    26   ar
    28     4    15    1
    29     4     7   ar
    30    29    28   ar
    31    38    43    1
    32    15    16   ar
    33    18    26    1
    34    18    17   ar
    35    26    27   ar
    36    28    34    1
    37    28    27   ar
    38    16    17   ar
    39    16    20    1
    40    17    24    1
    41    34    35    3
    42    27    32    1
    43    35    36    1
    44     6     7   ar
    45     6     8    1
    46    24    25    1
    47     7    11    1
    48    32    33    1
    49    43    44    3
    50    44    45    1
    51    11    12    3
    52    12    13    1
