@<TRIPOS>MOLECULE
mol_data/opt/cam/geoms/mol2/4af12eh13la6fh6ee4ai-6ah6dd.out
 96 103 0 0 0
SMALL
GASTEIGER

@<TRIPOS>ATOM
      1 C           0.5898    0.0377    3.4530 C.ar    1  LIG1       -0.0609
      2 C           1.7700   -0.0382    2.7315 C.ar    1  LIG1       -0.0475
      3 C           0.0698    1.2822    3.7860 C.ar    1  LIG1       -0.0583
      4 C           2.4679    1.1080    2.3299 C.ar    1  LIG1        0.0599
      5 H           2.1706   -1.0074    2.4617 H       1  LIG1        0.0626
      6 C           0.7377    2.4338    3.3985 C.ar    1  LIG1       -0.0195
      7 C           1.9281    2.3628    2.6794 C.ar    1  LIG1        0.1275
      8 H           0.3381    3.4112    3.6577 H       1  LIG1        0.0654
      9 H          -0.8559    1.3619    4.3462 H       1  LIG1        0.0619
     10 H           0.0754   -0.8707    3.7455 H       1  LIG1        0.0618
     11 O           2.5870    3.4972    2.3186 O.3     1  LIG1       -0.5061
     12 H           2.0886    4.2612    2.6328 H       1  LIG1        0.2922
     13 C           3.7088    0.9690    1.5774 C.ar    1  LIG1        0.1564
     14 C           4.5988   -0.0714    1.4036 C.ar    1  LIG1        0.0918
     15 C           5.6370    0.4075    0.5274 C.ar    1  LIG1        0.0888
     16 C           5.2975    1.6951    0.2181 C.ar    1  LIG1        0.1771
     17 O           4.1295    2.0263    0.8582 O.2     1  LIG1       -0.4499
     18 C           4.5920   -1.3745    1.9632 C.1     1  LIG1       -0.0640
     19 C           4.6432   -2.4994    2.3940 C.1     1  LIG1       -0.1137
     20 H           4.6828   -3.4838    2.7999 H       1  LIG1        0.1232
     21 N           6.7689   -0.2986    0.1776 N.pl3   1  LIG1       -0.3540
     22 H           6.6527   -1.3015    0.2003 H       1  LIG1        0.1425
     23 H           7.2364    0.0477   -0.6506 H       1  LIG1        0.1425
     24 C           5.8825    2.7654   -0.5385 C.ar    1  LIG1        0.1266
     25 C           6.8861    2.8209   -1.4893 C.ar    1  LIG1        0.1489
     26 C           7.0512    4.1687   -1.8838 C.ar    1  LIG1        0.0063
     27 C           6.1349    4.9217   -1.1688 C.ar    1  LIG1        0.0557
     28 N           5.4248    4.0508   -0.3759 N.ar    1  LIG1       -0.3486
     29 H           4.7898    4.3098    0.3665 H       1  LIG1        0.1661
     30 O           7.5291    1.7052   -1.9439 O.3     1  LIG1       -0.4929
     31 C           8.5595    1.9301   -2.8839 C.3     1  LIG1        0.0789
     32 H           8.9808    0.9547   -3.1262 H       1  LIG1        0.0660
     33 H           8.1676    2.3902   -3.7983 H       1  LIG1        0.0660
     34 H           9.3452    2.5709   -2.4674 H       1  LIG1        0.0660
     35 H           7.7236    4.5516   -2.6357 H       1  LIG1        0.0676
     36 C           4.6309    6.9235   -0.8882 C.ar    1  LIG1        0.2223
     37 C           5.8961    6.3613   -1.1656 C.ar    1  LIG1        0.0615
     38 C           6.9202    7.2581   -1.4442 C.ar    1  LIG1       -0.0247
     39 C           6.7039    8.6355   -1.4215 C.ar    1  LIG1        0.0519
     40 C           5.4150    9.0711   -1.0786 C.ar    1  LIG1        0.0981
     41 N           4.4176    8.2155   -0.8375 N.ar    1  LIG1       -0.2105
     42 H           7.9153    6.8761   -1.6519 H       1  LIG1        0.0645
     43 O           3.5419    6.1430   -0.6209 O.3     1  LIG1       -0.4919
     44 H           3.6473    5.2921   -1.0676 H       1  LIG1        0.2937
     45 N           7.7532    9.5252   -1.6643 N.pl3   1  LIG1       -0.3563
     46 H           8.5071    9.1339   -2.2107 H       1  LIG1        0.1424
     47 H           7.4678   10.4263   -2.0210 H       1  LIG1        0.1424
     48 C           4.0100   11.1084   -1.6438 C.ar    1  LIG1        0.1231
     49 C           5.0858   10.5152   -0.9557 C.ar    1  LIG1        0.0373
     50 C           5.8261   11.3476   -0.1285 C.ar    1  LIG1       -0.0323
     51 C           5.4875   12.6925    0.0398 C.ar    1  LIG1        0.0513
     52 C           4.3520   13.1748   -0.6461 C.ar    1  LIG1        0.0877
     53 N           3.6688   12.3878   -1.4771 N.ar    1  LIG1       -0.2365
     54 H           6.6893   10.9534    0.3961 H       1  LIG1        0.0638
     55 C           3.2342   10.3756   -2.6053 C.1     1  LIG1       -0.0491
     56 C           2.5898    9.7972   -3.4394 C.1     1  LIG1       -0.1124
     57 H           2.0102    9.2734   -4.1642 H       1  LIG1        0.1232
     58 C           6.3364   13.5030    0.8580 C.1     1  LIG1       -0.0675
     59 C           7.1026   14.1284    1.5447 C.1     1  LIG1       -0.1138
     60 H           7.7712   14.7004    2.1463 H       1  LIG1        0.1232
     61 C           3.8834   15.2912    0.6551 C.ar    1  LIG1       -0.0519
     62 C           3.3607   16.5737    0.6988 C.ar    1  LIG1       -0.0531
     63 C           3.8452   14.5680   -0.5359 C.ar    1  LIG1        0.0019
     64 C           2.8016   17.1754   -0.4302 C.ar    1  LIG1       -0.0134
     65 H           3.3994   17.1337    1.6278 H       1  LIG1        0.0624
     66 C           3.2556   15.1582   -1.6546 C.ar    1  LIG1       -0.0490
     67 C           2.7412   16.4504   -1.6340 C.ar    1  LIG1       -0.0421
     68 H           3.1857   14.5708   -2.5633 H       1  LIG1        0.0627
     69 H           4.3080   14.8554    1.5500 H       1  LIG1        0.0624
     70 C           2.1131   17.0075   -2.8874 C.3     1  LIG1       -0.0391
     71 H           1.8090   16.1958   -3.5511 H       1  LIG1        0.0278
     72 H           2.8098   17.6403   -3.4460 H       1  LIG1        0.0278
     73 H           1.2327   17.6151   -2.6673 H       1  LIG1        0.0278
     74 C           2.7097   19.5962   -1.1363 C.ar    1  LIG1        0.0361
     75 C           2.2721   18.5576   -0.3058 C.ar    1  LIG1        0.0023
     76 C           1.3537   18.8825    0.6835 C.ar    1  LIG1       -0.0298
     77 C           0.8830   20.1900    0.8208 C.ar    1  LIG1        0.0516
     78 C           1.3709   21.1432   -0.0912 C.ar    1  LIG1        0.0943
     79 N           2.2705   20.8395   -1.0278 N.ar    1  LIG1       -0.2524
     80 H           0.9926   18.1102    1.3570 H       1  LIG1        0.0643
     81 H           3.4541   19.4107   -1.9044 H       1  LIG1        0.0836
     82 N          -0.0602   20.5061    1.7922 N.pl3   1  LIG1       -0.3563
     83 H          -0.1537   19.8193    2.5268 H       1  LIG1        0.1424
     84 H          -0.0150   21.4460    2.1591 H       1  LIG1        0.1424
     85 C           1.8088   23.6311   -0.1802 C.ar    1  LIG1        0.1493
     86 C           0.9090   22.5549   -0.0886 C.ar    1  LIG1        0.0392
     87 C          -0.4457   22.8765   -0.0602 C.ar    1  LIG1       -0.0309
     88 C          -0.8390   24.2097   -0.1398 C.ar    1  LIG1        0.0705
     89 C           0.1465   25.1957   -0.2468 C.ar    1  LIG1        0.0464
     90 N           1.4387   24.9124   -0.2595 N.ar    1  LIG1       -0.2427
     91 H          -1.1881   22.0903    0.0150 H       1  LIG1        0.0638
     92 H          -0.1293   26.2437   -0.3181 H       1  LIG1        0.0843
     93 N           4.3856   23.3061   -0.0650 N.1     1  LIG1       -0.1893
     94 C           3.2387   23.4190   -0.1433 C.1     1  LIG1        0.1198
     95 N          -3.3429   24.8697   -0.0964 N.1     1  LIG1       -0.1908
     96 C          -2.2257   24.5728   -0.1186 C.1     1  LIG1        0.1007
@<TRIPOS>BOND
     1    57    56    1
     2    33    31    1
     3    71    70    1
     4    72    70    1
     5    56    55    3
     6    32    31    1
     7    70    73    1
     8    70    67    1
     9    31    34    1
    10    31    30    1
    11    35    26    1
    12    55    48    1
    13    68    66    1
    14    46    45    1
    15    47    45    1
    16    30    25    1
    17    81    74    1
    18    26    25   ar
    19    26    27   ar
    20    45    39    1
    21    66    67   ar
    22    66    63   ar
    23    42    38    1
    24    48    53   ar
    25    48    49   ar
    26    67    64   ar
    27    25    24   ar
    28    53    52   ar
    29    38    39   ar
    30    38    37   ar
    31    39    40   ar
    32    27    37    1
    33    27    28   ar
    34    37    36   ar
    35    74    79   ar
    36    74    75   ar
    37    40    49    1
    38    40    41   ar
    39    44    43    1
    40    79    78   ar
    41    49    50   ar
    42    36    41   ar
    43    36    43    1
    44    23    21    1
    45    52    63    1
    46    52    51   ar
    47    24    28   ar
    48    24    16    1
    49    63    61   ar
    50    64    75    1
    51    64    62   ar
    52    28    29    1
    53    92    89    1
    54    75    76   ar
    55    90    89   ar
    56    90    85   ar
    57    89    88   ar
    58    85    94    1
    59    85    86   ar
    60    94    93    3
    61    88    96    1
    62    88    87   ar
    63    50    51   ar
    64    50    54    1
    65    96    95    3
    66    78    86    1
    67    78    77   ar
    68    86    87   ar
    69    87    91    1
    70    51    58    1
    71    21    22    1
    72    21    15    1
    73    16    15   ar
    74    16    17   ar
    75    15    14   ar
    76    61    62   ar
    77    61    69    1
    78    76    77   ar
    79    76    80    1
    80    62    65    1
    81    77    82    1
    82    58    59    3
    83    17    13   ar
    84    14    13   ar
    85    14    18    1
    86    59    60    1
    87    13     4    1
    88    82    84    1
    89    82    83    1
    90    18    19    3
    91    11    12    1
    92    11     7    1
    93     4     7   ar
    94     4     2   ar
    95    19    20    1
    96     5     2    1
    97     7     6   ar
    98     2     1   ar
    99     6     8    1
   100     6     3   ar
   101     1    10    1
   102     1     3   ar
   103     3     9    1
