@<TRIPOS>MOLECULE
mol_data/opt/cam/geoms/mol2/4af13al-6if-6hl-.out
 53 56 0 0 0
SMALL
GASTEIGER

@<TRIPOS>ATOM
      1 C          -0.0970   -0.2735   -0.7784 C.ar    1  LIG1       -0.0609
      2 C           1.2257   -0.1550   -0.3839 C.ar    1  LIG1       -0.0491
      3 C          -0.7565    0.8241   -1.3173 C.ar    1  LIG1       -0.0583
      4 C           1.9407    1.0433   -0.5062 C.ar    1  LIG1        0.0398
      5 H           1.7299   -1.0174    0.0363 H       1  LIG1        0.0625
      6 C          -0.0779    2.0261   -1.4530 C.ar    1  LIG1       -0.0195
      7 C           1.2490    2.1368   -1.0556 C.ar    1  LIG1        0.1259
      8 H          -0.5788    2.8949   -1.8734 H       1  LIG1        0.0654
      9 H          -1.7918    0.7500   -1.6315 H       1  LIG1        0.0619
     10 H          -0.6109   -1.2215   -0.6645 H       1  LIG1        0.0618
     11 O           1.9160    3.3291   -1.1947 O.3     1  LIG1       -0.5061
     12 H           1.3260    3.9841   -1.5841 H       1  LIG1        0.2922
     13 C           3.3362    1.1058   -0.0708 C.ar    1  LIG1        0.0540
     14 C           4.1358    0.1067    0.4719 C.ar    1  LIG1        0.0061
     15 C           5.4013    0.6751    0.7096 C.ar    1  LIG1        0.1459
     16 C           5.3707    2.0134    0.3265 C.ar    1  LIG1        0.0910
     17 N           4.0958    2.2345   -0.1408 N.ar    1  LIG1       -0.3511
     18 H           3.7528    3.0875   -0.5498 H       1  LIG1        0.1660
     19 H           3.8380   -0.9092    0.6744 H       1  LIG1        0.0676
     20 O           6.5076    0.0833    1.2319 O.3     1  LIG1       -0.4930
     21 C           6.3512   -1.2522    1.6590 C.3     1  LIG1        0.0789
     22 H           7.3123   -1.5613    2.0698 H       1  LIG1        0.0660
     23 H           5.5817   -1.3351    2.4357 H       1  LIG1        0.0660
     24 H           6.0871   -1.9121    0.8238 H       1  LIG1        0.0660
     25 C           6.1960    4.4115    0.4632 C.ar    1  LIG1        0.0484
     26 C           6.4271    3.0213    0.3506 C.ar    1  LIG1        0.0264
     27 C           7.7579    2.6055    0.2911 C.ar    1  LIG1       -0.0071
     28 C           8.7869    3.5306    0.2939 C.ar    1  LIG1        0.1435
     29 C           8.4734    4.8967    0.3258 C.ar    1  LIG1        0.1159
     30 N           7.1985    5.2858    0.4447 N.ar    1  LIG1       -0.2475
     31 H           8.0027    1.5520    0.2576 H       1  LIG1        0.0662
     32 C           4.8257    5.0159    0.6365 C.3     1  LIG1       -0.0217
     33 H           4.2054    4.4368    1.3241 H       1  LIG1        0.0293
     34 H           4.2847    5.0981   -0.3142 H       1  LIG1        0.0293
     35 H           4.9368    6.0289    1.0230 H       1  LIG1        0.0293
     36 O          10.0614    3.0535    0.2626 O.3     1  LIG1       -0.5046
     37 H          10.6669    3.7741    0.4838 H       1  LIG1        0.2922
     38 C           9.4848    7.1094    1.0526 C.ar    1  LIG1        0.1257
     39 C           9.5231    5.9438    0.2519 C.ar    1  LIG1        0.0469
     40 C          10.5877    5.8153   -0.6467 C.ar    1  LIG1       -0.0059
     41 C          11.5795    6.7867   -0.7005 C.ar    1  LIG1        0.1389
     42 C          11.4623    7.8738    0.1602 C.ar    1  LIG1        0.0713
     43 N          10.4482    8.0362    0.9971 N.ar    1  LIG1       -0.2364
     44 H          10.6118    4.9617   -1.3139 H       1  LIG1        0.0662
     45 H          12.2293    8.6445    0.1445 H       1  LIG1        0.0868
     46 N           8.4764    7.3298    1.9588 N.pl3   1  LIG1       -0.3426
     47 H           8.4628    8.2740    2.3135 H       1  LIG1        0.1437
     48 H           7.5856    6.9252    1.7011 H       1  LIG1        0.1437
     49 O          12.6619    6.7721   -1.5305 O.3     1  LIG1       -0.4936
     50 C          12.7914    5.6808   -2.4120 C.3     1  LIG1        0.0789
     51 H          13.7070    5.8503   -2.9784 H       1  LIG1        0.0660
     52 H          12.8763    4.7290   -1.8722 H       1  LIG1        0.0660
     53 H          11.9461    5.6179   -3.1085 H       1  LIG1        0.0660
@<TRIPOS>BOND
     1    53    50    1
     2    51    50    1
     3    50    52    1
     4    50    49    1
     5     8     6    1
     6     9     3    1
     7    12    11    1
     8    49    41    1
     9     6     3   ar
    10     6     7   ar
    11     3     1   ar
    12    44    40    1
    13    11     7    1
    14     7     4   ar
    15     1    10    1
    16     1     2   ar
    17    41    40   ar
    18    41    42   ar
    19    40    39   ar
    20    18    17    1
    21     4     2   ar
    22     4    13    1
    23     2     5    1
    24    34    32    1
    25    17    13   ar
    26    17    16   ar
    27    13    14   ar
    28    45    42    1
    29    42    43   ar
    30    39    29    1
    31    39    38   ar
    32    31    27    1
    33    36    28    1
    34    36    37    1
    35    27    28   ar
    36    27    26   ar
    37    28    29   ar
    38    29    30   ar
    39    16    26    1
    40    16    15   ar
    41    26    25   ar
    42    30    25   ar
    43    25    32    1
    44    14    19    1
    45    14    15   ar
    46    32    35    1
    47    32    33    1
    48    15    20    1
    49    24    21    1
    50    43    38   ar
    51    38    46    1
    52    20    21    1
    53    21    22    1
    54    21    23    1
    55    48    46    1
    56    46    47    1
