@<TRIPOS>MOLECULE
mol_data/opt/cam/geoms/mol2/4af12ea-12ah-6fl.out
 45 48 0 0 0
SMALL
GASTEIGER

@<TRIPOS>ATOM
      1 C          -0.0490    0.0895    0.5768 C.ar    1  LIG1       -0.0609
      2 C           1.3340    0.0577    0.5044 C.ar    1  LIG1       -0.0475
      3 C          -0.7232    1.2645    0.2671 C.ar    1  LIG1       -0.0583
      4 C           2.0787    1.1788    0.1186 C.ar    1  LIG1        0.0599
      5 H           1.8636   -0.8527    0.7564 H       1  LIG1        0.0626
      6 C          -0.0116    2.3905   -0.1173 C.ar    1  LIG1       -0.0195
      7 C           1.3788    2.3637   -0.1992 C.ar    1  LIG1        0.1275
      8 H          -0.5333    3.3109   -0.3658 H       1  LIG1        0.0654
      9 H          -1.8057    1.3093    0.3234 H       1  LIG1        0.0619
     10 H          -0.5956   -0.7956    0.8819 H       1  LIG1        0.0618
     11 O           2.0735    3.4582   -0.5972 O.3     1  LIG1       -0.5061
     12 H           1.4813    4.2089   -0.7299 H       1  LIG1        0.2922
     13 C           3.5345    1.0964    0.0618 C.ar    1  LIG1        0.1546
     14 C           4.4469    0.0602    0.0007 C.ar    1  LIG1        0.0712
     15 C           5.7469    0.6652   -0.0346 C.ar    1  LIG1        0.0033
     16 C           5.5412    2.0082    0.0044 C.ar    1  LIG1        0.1719
     17 O           4.2115    2.2630    0.0738 O.2     1  LIG1       -0.4504
     18 C           4.1961   -1.3371   -0.0521 C.1     1  LIG1       -0.0658
     19 C           4.0200   -2.5278   -0.0982 C.1     1  LIG1       -0.1138
     20 H           3.8597   -3.5801   -0.1465 H       1  LIG1        0.1232
     21 H           6.6898    0.1445   -0.0978 H       1  LIG1        0.0669
     22 C           6.3461    3.2012   -0.0732 C.ar    1  LIG1        0.1725
     23 C           7.6649    3.4972   -0.2438 C.ar    1  LIG1        0.0086
     24 C           7.7561    4.9216   -0.3320 C.ar    1  LIG1        0.0718
     25 C           6.4806    5.4096   -0.1903 C.ar    1  LIG1        0.1615
     26 O           5.6282    4.3480   -0.0329 O.2     1  LIG1       -0.4497
     27 H           8.4793    2.7918   -0.3216 H       1  LIG1        0.0675
     28 N           8.9315    5.6580   -0.5096 N.pl3   1  LIG1       -0.3550
     29 H           9.7009    5.0883   -0.8347 H       1  LIG1        0.1424
     30 H           8.8102    6.4532   -1.1247 H       1  LIG1        0.1424
     31 C           4.5040    6.9524   -0.4494 C.ar    1  LIG1        0.2235
     32 C           5.8795    6.7320   -0.1957 C.ar    1  LIG1        0.0838
     33 C           6.6784    7.8574    0.0463 C.ar    1  LIG1       -0.0026
     34 C           6.1192    9.1250   -0.0102 C.ar    1  LIG1        0.1390
     35 C           4.7613    9.2239   -0.3061 C.ar    1  LIG1        0.0730
     36 N           3.9849    8.1697   -0.5077 N.ar    1  LIG1       -0.2172
     37 H           7.7195    7.7128    0.3058 H       1  LIG1        0.0663
     38 H           4.3033   10.2077   -0.3689 H       1  LIG1        0.0868
     39 O           3.6086    5.9639   -0.6597 O.3     1  LIG1       -0.4919
     40 H           3.9964    5.0921   -0.4866 H       1  LIG1        0.2937
     41 O           6.7846   10.2934    0.2043 O.3     1  LIG1       -0.4936
     42 C           8.1519   10.2156    0.5357 C.3     1  LIG1        0.0789
     43 H           8.4927   11.2413    0.6752 H       1  LIG1        0.0660
     44 H           8.3135    9.6539    1.4638 H       1  LIG1        0.0660
     45 H           8.7385    9.7506   -0.2668 H       1  LIG1        0.0660
@<TRIPOS>BOND
     1    30    28    1
     2    29    28    1
     3    12    11    1
     4    39    40    1
     5    39    31    1
     6    11     7    1
     7    28    24    1
     8    36    31   ar
     9    36    35   ar
    10    31    32   ar
    11    38    35    1
    12     8     6    1
    13    24    23   ar
    14    24    25   ar
    15    27    23    1
    16    35    34   ar
    17    45    42    1
    18    23    22   ar
    19     7     6   ar
    20     7     4   ar
    21    32    25    1
    22    32    33   ar
    23    25    26   ar
    24    20    19    1
    25     6     3   ar
    26    19    18    3
    27    21    15    1
    28    22    26   ar
    29    22    16    1
    30    18    14    1
    31    15    14   ar
    32    15    16   ar
    33    34    33   ar
    34    34    41    1
    35    14    13   ar
    36    16    17   ar
    37    33    37    1
    38    13    17   ar
    39    13     4    1
    40     4     2   ar
    41    41    42    1
    42     3     9    1
    43     3     1   ar
    44     2     1   ar
    45     2     5    1
    46    42    43    1
    47    42    44    1
    48     1    10    1
