@<TRIPOS>MOLECULE
mol_data/opt/cam/geoms/mol2/4af4af-4af4af-.out
 46 49 0 0 0
SMALL
GASTEIGER

@<TRIPOS>ATOM
      1 C          -0.2196    0.0623    0.5100 C.ar    1  LIG1       -0.0610
      2 C           1.1680    0.1066    0.4774 C.ar    1  LIG1       -0.0505
      3 C          -0.9443    1.1921    0.1565 C.ar    1  LIG1       -0.0583
      4 C           1.8684    1.2545    0.0998 C.ar    1  LIG1        0.0237
      5 H           1.7391   -0.7684    0.7694 H       1  LIG1        0.0625
      6 C          -0.2772    2.3488   -0.2221 C.ar    1  LIG1       -0.0196
      7 C           1.1142    2.3858   -0.2511 C.ar    1  LIG1        0.1245
      8 H          -0.8381    3.2366   -0.5046 H       1  LIG1        0.0654
      9 H          -2.0291    1.1803    0.1760 H       1  LIG1        0.0619
     10 H          -0.7277   -0.8457    0.8150 H       1  LIG1        0.0618
     11 O           1.7783    3.5133   -0.6344 O.3     1  LIG1       -0.5062
     12 H           1.1341    4.1845   -0.8878 H       1  LIG1        0.2922
     13 C           4.1159    2.3050    0.5631 C.ar    1  LIG1       -0.0531
     14 C           5.4976    2.2270    0.5597 C.ar    1  LIG1       -0.0500
     15 C           3.3533    1.2417    0.0669 C.ar    1  LIG1       -0.0109
     16 C           6.1769    1.1063    0.0742 C.ar    1  LIG1        0.0237
     17 H           6.0804    3.0460    0.9702 H       1  LIG1        0.0625
     18 C           4.0178    0.1249   -0.4357 C.ar    1  LIG1       -0.0117
     19 C           5.4065    0.0510   -0.4361 C.ar    1  LIG1        0.1251
     20 H           3.4675   -0.7041   -0.8658 H       1  LIG1        0.0660
     21 H           3.6232    3.1849    0.9549 H       1  LIG1        0.0624
     22 O           5.9570   -1.0719   -0.9716 O.3     1  LIG1       -0.5061
     23 H           6.9165   -0.9611   -1.0196 H       1  LIG1        0.2922
     24 C           8.3551   -0.0612    0.5579 C.ar    1  LIG1       -0.0531
     25 C           9.7442   -0.0716    0.5544 C.ar    1  LIG1       -0.0500
     26 C           7.6592    1.0521    0.0758 C.ar    1  LIG1       -0.0109
     27 C          10.5002    1.0016    0.0843 C.ar    1  LIG1        0.0237
     28 H          10.2685   -0.9319    0.9569 H       1  LIG1        0.0625
     29 C           8.4027    2.1336   -0.3992 C.ar    1  LIG1       -0.0117
     30 C           9.7926    2.1186   -0.3922 C.ar    1  LIG1        0.1251
     31 H           7.8821    2.9988   -0.8023 H       1  LIG1        0.0660
     32 H           7.8118   -0.8986    0.9831 H       1  LIG1        0.0624
     33 O          10.5041    3.1749   -0.8715 O.3     1  LIG1       -0.5061
     34 H           9.8922    3.8423   -1.2036 H       1  LIG1        0.2922
     35 C          12.7714    2.0106    0.5064 C.ar    1  LIG1       -0.0537
     36 C          14.1516    1.8876    0.5430 C.ar    1  LIG1       -0.0577
     37 C          11.9839    0.9313    0.0883 C.ar    1  LIG1       -0.0110
     38 C          14.7750    0.7035    0.1657 C.ar    1  LIG1       -0.0201
     39 H          14.7573    2.7253    0.8735 H       1  LIG1        0.0619
     40 C          12.6097   -0.2546   -0.2937 C.ar    1  LIG1       -0.0124
     41 C          13.9959   -0.3689   -0.2552 C.ar    1  LIG1        0.1174
     42 H          12.0330   -1.1021   -0.6462 H       1  LIG1        0.0660
     43 H          15.8580    0.6152    0.1941 H       1  LIG1        0.0654
     44 H          12.2989    2.9387    0.7998 H       1  LIG1        0.0624
     45 O          14.5326   -1.5580   -0.6481 O.3     1  LIG1       -0.5067
     46 H          15.4935   -1.5074   -0.5890 H       1  LIG1        0.2921
@<TRIPOS>BOND
     1    34    33    1
     2    23    22    1
     3    22    19    1
     4    12    11    1
     5    33    30    1
     6    20    18    1
     7    31    29    1
     8    45    46    1
     9    45    41    1
    10    42    40    1
    11    11     7    1
    12     8     6    1
    13    19    18   ar
    14    19    16   ar
    15    18    15   ar
    16    29    30   ar
    17    29    26   ar
    18    30    27   ar
    19    40    41   ar
    20    40    37   ar
    21    41    38   ar
    22     7     6   ar
    23     7     4   ar
    24     6     3   ar
    25    15     4    1
    26    15    13   ar
    27    16    26    1
    28    16    14   ar
    29    26    24   ar
    30    27    37    1
    31    27    25   ar
    32    37    35   ar
    33     4     2   ar
    34     3     9    1
    35     3     1   ar
    36    38    43    1
    37    38    36   ar
    38     2     1   ar
    39     2     5    1
    40    35    36   ar
    41    35    44    1
    42     1    10    1
    43    36    39    1
    44    25    24   ar
    45    25    28    1
    46    24    32    1
    47    14    13   ar
    48    14    17    1
    49    13    21    1
