@<TRIPOS>MOLECULE
mol_data/opt/cam/geoms/mol2/4af4af.out
 24 25 0 0 0
SMALL
GASTEIGER

@<TRIPOS>ATOM
      1 C          -0.0025    0.1013    0.5392 C.ar    1  LIG1       -0.0610
      2 C           1.3843    0.1363    0.4748 C.ar    1  LIG1       -0.0505
      3 C          -0.7299    1.2156    0.1450 C.ar    1  LIG1       -0.0583
      4 C           2.0822    1.2593    0.0244 C.ar    1  LIG1        0.0237
      5 H           1.9575   -0.7259    0.7986 H       1  LIG1        0.0625
      6 C          -0.0656    2.3487   -0.3032 C.ar    1  LIG1       -0.0196
      7 C           1.3249    2.3766   -0.3632 C.ar    1  LIG1        0.1245
      8 H          -0.6283    3.2254   -0.6154 H       1  LIG1        0.0654
      9 H          -1.8141    1.2107    0.1878 H       1  LIG1        0.0619
     10 H          -0.5078   -0.7876    0.9003 H       1  LIG1        0.0618
     11 O           1.9846    3.4845   -0.8094 O.3     1  LIG1       -0.5062
     12 H           1.3370    4.1378   -1.0985 H       1  LIG1        0.2922
     13 C           4.2175    0.0843   -0.5087 C.ar    1  LIG1       -0.0537
     14 C           5.6062    0.0300   -0.5383 C.ar    1  LIG1       -0.0577
     15 C           3.5663    1.2305   -0.0459 C.ar    1  LIG1       -0.0110
     16 C           6.3697    1.1056   -0.1130 C.ar    1  LIG1       -0.0201
     17 H           6.1007   -0.8636   -0.9057 H       1  LIG1        0.0619
     18 C           4.3370    2.3154    0.3784 C.ar    1  LIG1       -0.0124
     19 C           5.7249    2.2521    0.3441 C.ar    1  LIG1        0.1174
     20 H           3.8471    3.2167    0.7315 H       1  LIG1        0.0660
     21 H           7.4532    1.0823   -0.1315 H       1  LIG1        0.0654
     22 H           3.6341   -0.7567   -0.8662 H       1  LIG1        0.0624
     23 O           6.5070    3.2898    0.7545 O.3     1  LIG1       -0.5067
     24 H           5.9411    4.0210    1.0281 H       1  LIG1        0.2921
@<TRIPOS>BOND
     1    12    11    1
     2    17    14    1
     3    22    13    1
     4    11     7    1
     5     8     6    1
     6    14    13   ar
     7    14    16   ar
     8    13    15   ar
     9     7     6   ar
    10     7     4   ar
    11     6     3   ar
    12    21    16    1
    13    16    19   ar
    14    15     4    1
    15    15    18   ar
    16     4     2   ar
    17     3     9    1
    18     3     1   ar
    19    19    18   ar
    20    19    23    1
    21    18    20    1
    22     2     1   ar
    23     2     5    1
    24     1    10    1
    25    23    24    1
