@<TRIPOS>MOLECULE
mol_data/opt/cam/geoms/mol2/4af4af4af4af-.out
 46 49 0 0 0
SMALL
GASTEIGER

@<TRIPOS>ATOM
      1 C          -0.1796    0.6213    1.2733 C.ar    1  LIG1       -0.0610
      2 C           1.2049    0.6847    1.1910 C.ar    1  LIG1       -0.0505
      3 C          -0.9476    1.1912    0.2673 C.ar    1  LIG1       -0.0583
      4 C           1.8615    1.3052    0.1253 C.ar    1  LIG1        0.0237
      5 H           1.8083    0.2560    1.9841 H       1  LIG1        0.0625
      6 C          -0.3254    1.8192   -0.8025 C.ar    1  LIG1       -0.0196
      7 C           1.0632    1.8804   -0.8769 C.ar    1  LIG1        0.1245
      8 H          -0.9199    2.2671   -1.5954 H       1  LIG1        0.0654
      9 H          -2.0310    1.1540    0.3115 H       1  LIG1        0.0619
     10 H          -0.6523    0.1359    2.1198 H       1  LIG1        0.0618
     11 O           1.6819    2.4906   -1.9290 O.3     1  LIG1       -0.5062
     12 H           1.0133    2.7699   -2.5653 H       1  LIG1        0.2922
     13 C           4.0705    0.1897    0.4647 C.ar    1  LIG1       -0.0531
     14 C           5.4563    0.2107    0.4613 C.ar    1  LIG1       -0.0500
     15 C           3.3454    1.3185    0.0772 C.ar    1  LIG1       -0.0109
     16 C           6.1873    1.3369    0.0778 C.ar    1  LIG1        0.0237
     17 H           6.0004   -0.6729    0.7775 H       1  LIG1        0.0625
     18 C           4.0598    2.4524   -0.3089 C.ar    1  LIG1       -0.0117
     19 C           5.4491    2.4667   -0.3086 C.ar    1  LIG1        0.1251
     20 H           3.5227    3.3399   -0.6268 H       1  LIG1        0.0660
     21 H           3.5474   -0.7146    0.7549 H       1  LIG1        0.0624
     22 O           6.1286    3.5869   -0.6930 O.3     1  LIG1       -0.5061
     23 H           5.4926    4.2403   -1.0069 H       1  LIG1        0.2922
     24 C           8.3381    0.1445   -0.3577 C.ar    1  LIG1       -0.0531
     25 C           9.7226    0.0852   -0.3275 C.ar    1  LIG1       -0.0500
     26 C           7.6703    1.2950    0.0679 C.ar    1  LIG1       -0.0109
     27 C          10.5072    1.1494    0.1201 C.ar    1  LIG1        0.0237
     28 H          10.2221   -0.8217   -0.6518 H       1  LIG1        0.0625
     29 C           8.4400    2.3690    0.5150 C.ar    1  LIG1       -0.0117
     30 C           9.8277    2.3021    0.5433 C.ar    1  LIG1        0.1251
     31 H           7.9486    3.2809    0.8374 H       1  LIG1        0.0660
     32 H           7.7721   -0.7020   -0.7299 H       1  LIG1        0.0624
     33 O          10.5641    3.3656    0.9773 O.3     1  LIG1       -0.5061
     34 H           9.9657    4.0965    1.1709 H       1  LIG1        0.2922
     35 C          12.7625    1.4967    1.1918 C.ar    1  LIG1       -0.0537
     36 C          14.1388    1.3343    1.1733 C.ar    1  LIG1       -0.0577
     37 C          11.9884    1.0423    0.1169 C.ar    1  LIG1       -0.0110
     38 C          14.7735    0.7258    0.0961 C.ar    1  LIG1       -0.0201
     39 H          14.7327    1.6835    2.0120 H       1  LIG1        0.0619
     40 C          12.6268    0.4369   -0.9652 C.ar    1  LIG1       -0.0124
     41 C          14.0089    0.2789   -0.9759 C.ar    1  LIG1        0.1174
     42 H          12.0628    0.0970   -1.8261 H       1  LIG1        0.0660
     43 H          15.8538    0.6039    0.0867 H       1  LIG1        0.0654
     44 H          12.2808    1.9759    2.0338 H       1  LIG1        0.0624
     45 O          14.5591   -0.3187   -2.0712 O.3     1  LIG1       -0.5067
     46 H          15.5164   -0.3552   -1.9630 H       1  LIG1        0.2921
@<TRIPOS>BOND
     1    12    11    1
     2    45    46    1
     3    45    41    1
     4    11     7    1
     5    42    40    1
     6     8     6    1
     7    23    22    1
     8    41    40   ar
     9    41    38   ar
    10    40    37   ar
    11     7     6   ar
    12     7     4   ar
    13     6     3   ar
    14    32    24    1
    15    22    19    1
    16    28    25    1
    17    20    18    1
    18    24    25   ar
    19    24    26   ar
    20    25    27   ar
    21    18    19   ar
    22    18    15   ar
    23    19    16   ar
    24    26    16    1
    25    26    29   ar
    26    15     4    1
    27    15    13   ar
    28    16    14   ar
    29    43    38    1
    30    38    36   ar
    31    37    27    1
    32    37    35   ar
    33    27    30   ar
    34     4     2   ar
    35     3     9    1
    36     3     1   ar
    37    14    13   ar
    38    14    17    1
    39    13    21    1
    40    29    30   ar
    41    29    31    1
    42    30    33    1
    43    33    34    1
    44    36    35   ar
    45    36    39    1
    46     2     1   ar
    47     2     5    1
    48    35    44    1
    49     1    10    1
