@<TRIPOS>MOLECULE
mol_data/opt/cam/geoms/mol2/4af4af4af-4af-.out
 46 49 0 0 0
SMALL
GASTEIGER

@<TRIPOS>ATOM
      1 C          -0.1762    0.2472    0.9487 C.ar    1  LIG1       -0.0610
      2 C           1.2089    0.3217    0.8858 C.ar    1  LIG1       -0.0505
      3 C          -0.9397    1.1551    0.2281 C.ar    1  LIG1       -0.0583
      4 C           1.8708    1.2830    0.1179 C.ar    1  LIG1        0.0237
      5 H           1.8088   -0.3747    1.4621 H       1  LIG1        0.0625
      6 C          -0.3122    2.1255   -0.5404 C.ar    1  LIG1       -0.0196
      7 C           1.0769    2.1946   -0.5973 C.ar    1  LIG1        0.1245
      8 H          -0.9030    2.8398   -1.1091 H       1  LIG1        0.0654
      9 H          -2.0233    1.1160    0.2634 H       1  LIG1        0.0619
     10 H          -0.6526   -0.5103    1.5610 H       1  LIG1        0.0618
     11 O           1.7000    3.1419   -1.3566 O.3     1  LIG1       -0.5062
     12 H           1.0327    3.6437   -1.8390 H       1  LIG1        0.2922
     13 C           4.0659    0.0969    0.0105 C.ar    1  LIG1       -0.0531
     14 C           5.4520    0.1024    0.0098 C.ar    1  LIG1       -0.0500
     15 C           3.3547    1.2971    0.0690 C.ar    1  LIG1       -0.0109
     16 C           6.1955    1.2826    0.0658 C.ar    1  LIG1        0.0237
     17 H           5.9865   -0.8411   -0.0241 H       1  LIG1        0.0625
     18 C           4.0821    2.4859    0.1221 C.ar    1  LIG1       -0.0117
     19 C           5.4717    2.4841    0.1213 C.ar    1  LIG1        0.1251
     20 H           3.5555    3.4341    0.1537 H       1  LIG1        0.0660
     21 H           3.5320   -0.8448   -0.0503 H       1  LIG1        0.0624
     22 O           6.1659    3.6577    0.1652 O.3     1  LIG1       -0.5061
     23 H           5.5379    4.3889    0.1365 H       1  LIG1        0.2922
     24 C           8.4601    2.0512    0.8707 C.ar    1  LIG1       -0.0531
     25 C           9.8389    1.9344    0.8563 C.ar    1  LIG1       -0.0500
     26 C           7.6787    1.2341    0.0456 C.ar    1  LIG1       -0.0109
     27 C          10.4979    1.0127    0.0382 C.ar    1  LIG1        0.0237
     28 H          10.4352    2.5566    1.5164 H       1  LIG1        0.0625
     29 C           8.3241    0.3241   -0.7895 C.ar    1  LIG1       -0.0117
     30 C           9.7099    0.2095   -0.7991 C.ar    1  LIG1        0.1251
     31 H           7.7617   -0.2994   -1.4750 H       1  LIG1        0.0660
     32 H           7.9836    2.7707    1.5232 H       1  LIG1        0.0624
     33 O          10.2393   -0.6935   -1.6691 O.3     1  LIG1       -0.5061
     34 H          11.2023   -0.6081   -1.6670 H       1  LIG1        0.2922
     35 C          12.7625    2.0746   -0.0443 C.ar    1  LIG1       -0.0537
     36 C          14.1460    1.9839   -0.0253 C.ar    1  LIG1       -0.0577
     37 C          11.9793    0.9171    0.0429 C.ar    1  LIG1       -0.0110
     38 C          14.7793    0.7501    0.0703 C.ar    1  LIG1       -0.0201
     39 H          14.7464    2.8852   -0.0959 H       1  LIG1        0.0619
     40 C          12.6166   -0.3226    0.1439 C.ar    1  LIG1       -0.0124
     41 C          14.0078   -0.4043    0.1566 C.ar    1  LIG1        0.1174
     42 H          12.0466   -1.2384    0.2604 H       1  LIG1        0.0660
     43 H          15.8641    0.6848    0.0800 H       1  LIG1        0.0654
     44 H          12.2777    3.0393   -0.1418 H       1  LIG1        0.0624
     45 O          14.5533   -1.6454    0.2639 O.3     1  LIG1       -0.5067
     46 H          15.5147   -1.5728    0.2814 H       1  LIG1        0.2921
@<TRIPOS>BOND
     1    12    11    1
     2    33    34    1
     3    33    30    1
     4    31    29    1
     5    11     7    1
     6     8     6    1
     7    30    29   ar
     8    30    27   ar
     9    29    26   ar
    10     7     6   ar
    11     7     4   ar
    12     6     3   ar
    13    44    35    1
    14    39    36    1
    15    21    13    1
    16    35    36   ar
    17    35    37   ar
    18    36    38   ar
    19    17    14    1
    20    14    13   ar
    21    14    16   ar
    22    13    15   ar
    23    27    37    1
    24    27    25   ar
    25    37    40   ar
    26    26    16    1
    27    26    24   ar
    28    16    19   ar
    29    15     4    1
    30    15    18   ar
    31    38    43    1
    32    38    41   ar
    33     4     2   ar
    34    19    18   ar
    35    19    22    1
    36    18    20    1
    37    23    22    1
    38    40    41   ar
    39    40    42    1
    40    41    45    1
    41     3     9    1
    42     3     1   ar
    43    45    46    1
    44    25    24   ar
    45    25    28    1
    46    24    32    1
    47     2     1   ar
    48     2     5    1
    49     1    10    1
