@<TRIPOS>MOLECULE
mol_data/opt/cam/geoms/mol2/4af4af4af-4af.out
 46 49 0 0 0
SMALL
GASTEIGER

@<TRIPOS>ATOM
      1 C          -0.1846    0.0386   -0.5364 C.ar    1  LIG1       -0.0610
      2 C           1.2004    0.1289   -0.4985 C.ar    1  LIG1       -0.0505
      3 C          -0.9485    1.1061   -0.0854 C.ar    1  LIG1       -0.0583
      4 C           1.8617    1.2624   -0.0192 C.ar    1  LIG1        0.0237
      5 H           1.8007   -0.6961   -0.8672 H       1  LIG1        0.0625
      6 C          -0.3216    2.2483    0.3925 C.ar    1  LIG1       -0.0196
      7 C           1.0675    2.3319    0.4259 C.ar    1  LIG1        0.1245
      8 H          -0.9128    3.0886    0.7490 H       1  LIG1        0.0654
      9 H          -2.0322    1.0577   -0.1068 H       1  LIG1        0.0619
     10 H          -0.6607   -0.8563   -0.9213 H       1  LIG1        0.0618
     11 O           1.6901    3.4492    0.9014 O.3     1  LIG1       -0.5062
     12 H           1.0223    4.0615    1.2318 H       1  LIG1        0.2922
     13 C           4.0594    0.1527    0.4006 C.ar    1  LIG1       -0.0531
     14 C           5.4455    0.1612    0.3988 C.ar    1  LIG1       -0.0500
     15 C           3.3456    1.2911    0.0204 C.ar    1  LIG1       -0.0109
     16 C           6.1862    1.2846    0.0269 C.ar    1  LIG1        0.0237
     17 H           5.9821   -0.7249    0.7214 H       1  LIG1        0.0625
     18 C           4.0703    2.4241   -0.3487 C.ar    1  LIG1       -0.0117
     19 C           5.4598    2.4266   -0.3453 C.ar    1  LIG1        0.1251
     20 H           3.5417    3.3245   -0.6439 H       1  LIG1        0.0660
     21 H           3.5276   -0.7339    0.7270 H       1  LIG1        0.0624
     22 O           6.1517    3.5390   -0.7263 O.3     1  LIG1       -0.5061
     23 H           5.5208    4.2247   -0.9749 H       1  LIG1        0.2922
     24 C           8.4462    2.2957    0.5147 C.ar    1  LIG1       -0.0531
     25 C           9.8253    2.1859    0.5450 C.ar    1  LIG1       -0.0500
     26 C           7.6695    1.2371    0.0297 C.ar    1  LIG1       -0.0109
     27 C          10.4888    1.0373    0.1055 C.ar    1  LIG1        0.0237
     28 H          10.4181    3.0025    0.9459 H       1  LIG1        0.0625
     29 C           8.3194    0.0922   -0.4276 C.ar    1  LIG1       -0.0117
     30 C           9.7055   -0.0136   -0.3936 C.ar    1  LIG1        0.1251
     31 H           7.7597   -0.7351   -0.8486 H       1  LIG1        0.0660
     32 H           7.9654    3.1969    0.8711 H       1  LIG1        0.0624
     33 O          10.2418   -1.1635   -0.8858 O.3     1  LIG1       -0.5061
     34 H          11.2049   -1.0779   -0.9068 H       1  LIG1        0.2922
     35 C          12.6209   -0.1641    0.6842 C.ar    1  LIG1       -0.0537
     36 C          14.0123   -0.2161    0.7123 C.ar    1  LIG1       -0.0577
     37 C          11.9703    0.9499    0.1416 C.ar    1  LIG1       -0.0110
     38 C          14.7747    0.8252    0.2109 C.ar    1  LIG1       -0.0201
     39 H          14.5075   -1.0803    1.1435 H       1  LIG1        0.0619
     40 C          12.7431    1.9984   -0.3655 C.ar    1  LIG1       -0.0124
     41 C          14.1316    1.9395   -0.3266 C.ar    1  LIG1        0.1174
     42 H          12.2480    2.8593   -0.8074 H       1  LIG1        0.0660
     43 H          15.8581    0.8004    0.2254 H       1  LIG1        0.0654
     44 H          12.0387   -0.9677    1.1232 H       1  LIG1        0.0624
     45 O          14.9159    2.9388   -0.8106 O.3     1  LIG1       -0.5067
     46 H          14.3579    3.6456   -1.1557 H       1  LIG1        0.2921
@<TRIPOS>BOND
     1    46    45    1
     2    23    22    1
     3    10     1    1
     4    34    33    1
     5    33    30    1
     6     5     2    1
     7    31    29    1
     8    45    41    1
     9    42    40    1
    10    22    19    1
    11    20    18    1
    12     1     2   ar
    13     1     3   ar
    14     2     4   ar
    15    29    30   ar
    16    29    26   ar
    17    30    27   ar
    18    40    41   ar
    19    40    37   ar
    20    18    19   ar
    21    18    15   ar
    22    19    16   ar
    23    41    38   ar
    24     9     3    1
    25     3     6   ar
    26     4    15    1
    27     4     7   ar
    28    15    13   ar
    29    16    26    1
    30    16    14   ar
    31    26    24   ar
    32    27    37    1
    33    27    25   ar
    34    37    35   ar
    35    38    43    1
    36    38    36   ar
    37     6     7   ar
    38     6     8    1
    39    14    13   ar
    40    14    17    1
    41    13    21    1
    42     7    11    1
    43    24    25   ar
    44    24    32    1
    45    25    28    1
    46    35    36   ar
    47    35    44    1
    48    36    39    1
    49    11    12    1
