@<TRIPOS>MOLECULE
mol_data/opt/cam/geoms/mol2/4af4af-.out
 24 25 0 0 0
SMALL
GASTEIGER

@<TRIPOS>ATOM
      1 C          -0.0271    0.1295    0.4855 C.ar    1  LIG1       -0.0610
      2 C           1.3617    0.1445    0.4821 C.ar    1  LIG1       -0.0505
      3 C          -0.7199    1.2587    0.0717 C.ar    1  LIG1       -0.0583
      4 C           2.0939    1.2618    0.0752 C.ar    1  LIG1        0.0237
      5 H           1.9080   -0.7297    0.8205 H       1  LIG1        0.0625
      6 C          -0.0205    2.3857   -0.3372 C.ar    1  LIG1       -0.0196
      7 C           1.3717    2.3935   -0.3365 C.ar    1  LIG1        0.1245
      8 H          -0.5565    3.2728   -0.6665 H       1  LIG1        0.0654
      9 H          -1.8048    1.2698    0.0674 H       1  LIG1        0.0619
     10 H          -0.5607   -0.7552    0.8146 H       1  LIG1        0.0618
     11 O           2.0681    3.4908   -0.7478 O.3     1  LIG1       -0.5062
     12 H           1.4450    4.1650   -1.0423 H       1  LIG1        0.2922
     13 C           4.3477    2.2807    0.5667 C.ar    1  LIG1       -0.0537
     14 C           5.7299    2.1815    0.5958 C.ar    1  LIG1       -0.0577
     15 C           3.5796    1.2182    0.0757 C.ar    1  LIG1       -0.0110
     16 C           6.3751    1.0376    0.1395 C.ar    1  LIG1       -0.0201
     17 H           6.3201    3.0060    0.9829 H       1  LIG1        0.0619
     18 C           4.2275    0.0732   -0.3857 C.ar    1  LIG1       -0.0124
     19 C           5.6156   -0.0176   -0.3539 C.ar    1  LIG1        0.1174
     20 H           3.6659   -0.7586   -0.7952 H       1  LIG1        0.0660
     21 H           7.4597    0.9675    0.1625 H       1  LIG1        0.0654
     22 H           3.8578    3.1779    0.9212 H       1  LIG1        0.0624
     23 O           6.1749   -1.1674   -0.8264 O.3     1  LIG1       -0.5067
     24 H           7.1346   -1.1021   -0.7618 H       1  LIG1        0.2921
@<TRIPOS>BOND
     1    12    11    1
     2    23    24    1
     3    23    19    1
     4    20    18    1
     5    11     7    1
     6     8     6    1
     7    18    19   ar
     8    18    15   ar
     9    19    16   ar
    10     6     7   ar
    11     6     3   ar
    12     7     4   ar
    13     9     3    1
    14     3     1   ar
    15     4    15    1
    16     4     2   ar
    17    15    13   ar
    18    16    21    1
    19    16    14   ar
    20     2     1   ar
    21     2     5    1
    22     1    10    1
    23    13    14   ar
    24    13    22    1
    25    14    17    1
