@<TRIPOS>MOLECULE
mol_data/opt/cam/geoms/mol2/4af4af-4af-4af.out
 46 49 0 0 0
SMALL
GASTEIGER

@<TRIPOS>ATOM
      1 C          -0.2394    0.0250   -0.0576 C.ar    1  LIG1       -0.0610
      2 C           1.1489    0.0561   -0.0420 C.ar    1  LIG1       -0.0505
      3 C          -0.9471    1.2157    0.0292 C.ar    1  LIG1       -0.0583
      4 C           1.8666    1.2500    0.0590 C.ar    1  LIG1        0.0237
      5 H           1.7064   -0.8733   -0.0922 H       1  LIG1        0.0625
      6 C          -0.2626    2.4188    0.1320 C.ar    1  LIG1       -0.0196
      7 C           1.1292    2.4418    0.1484 C.ar    1  LIG1        0.1245
      8 H          -0.8101    3.3563    0.1962 H       1  LIG1        0.0654
      9 H          -2.0321    1.2148    0.0203 H       1  LIG1        0.0619
     10 H          -0.7614   -0.9226   -0.1307 H       1  LIG1        0.0618
     11 O           1.8105    3.6195    0.2363 O.3     1  LIG1       -0.5062
     12 H           1.1778    4.3470    0.2453 H       1  LIG1        0.2922
     13 C           4.1088    2.0096    0.9336 C.ar    1  LIG1       -0.0531
     14 C           5.4895    1.9172    0.9294 C.ar    1  LIG1       -0.0500
     15 C           3.3517    1.2270    0.0547 C.ar    1  LIG1       -0.0109
     16 C           6.1736    1.0545    0.0686 C.ar    1  LIG1        0.0237
     17 H           6.0674    2.5112    1.6305 H       1  LIG1        0.0625
     18 C           4.0213    0.3756   -0.8215 C.ar    1  LIG1       -0.0117
     19 C           5.4092    0.2858   -0.8215 C.ar    1  LIG1        0.1251
     20 H           3.4768   -0.2189   -1.5463 H       1  LIG1        0.0660
     21 H           3.6125    2.6829    1.6199 H       1  LIG1        0.0624
     22 O           5.9635   -0.5572   -1.7346 O.3     1  LIG1       -0.5061
     23 H           6.9249   -0.4571   -1.7160 H       1  LIG1        0.2922
     24 C           8.4196    2.1595    0.0744 C.ar    1  LIG1       -0.0531
     25 C           9.8022    2.0911    0.1062 C.ar    1  LIG1       -0.0500
     26 C           7.6558    0.9869    0.0842 C.ar    1  LIG1       -0.0109
     27 C          10.4818    0.8715    0.1456 C.ar    1  LIG1        0.0237
     28 H          10.3851    3.0070    0.1127 H       1  LIG1        0.0625
     29 C           8.3221   -0.2400    0.1157 C.ar    1  LIG1       -0.0117
     30 C           9.7137   -0.3026    0.1436 C.ar    1  LIG1        0.1251
     31 H           7.7738   -1.1753    0.1584 H       1  LIG1        0.0660
     32 H           7.9219    3.1218    0.0337 H       1  LIG1        0.0624
     33 O          10.2655   -1.5424    0.1603 O.3     1  LIG1       -0.5061
     34 H          11.2284   -1.4626    0.1082 H       1  LIG1        0.2922
     35 C          12.6505    0.0535    1.1170 C.ar    1  LIG1       -0.0537
     36 C          14.0433    0.0295    1.1217 C.ar    1  LIG1       -0.0577
     37 C          11.9659    0.8226    0.1699 C.ar    1  LIG1       -0.0110
     38 C          14.7711    0.7617    0.1996 C.ar    1  LIG1       -0.0201
     39 H          14.5665   -0.5624    1.8657 H       1  LIG1        0.0619
     40 C          12.7032    1.5595   -0.7611 C.ar    1  LIG1       -0.0124
     41 C          14.0934    1.5339   -0.7434 C.ar    1  LIG1        0.1174
     42 H          12.1805    2.1444   -1.5135 H       1  LIG1        0.0660
     43 H          15.8548    0.7543    0.1901 H       1  LIG1        0.0654
     44 H          12.0958   -0.4876    1.8767 H       1  LIG1        0.0624
     45 O          14.8460    2.2349   -1.6306 O.3     1  LIG1       -0.5067
     46 H          14.2686    2.7234   -2.2292 H       1  LIG1        0.2921
@<TRIPOS>BOND
     1    46    45    1
     2    22    23    1
     3    22    19    1
     4    45    41    1
     5    20    18    1
     6    42    40    1
     7    18    19   ar
     8    18    15   ar
     9    19    16   ar
    10    40    41   ar
    11    40    37   ar
    12    41    38   ar
    13    10     1    1
    14     5     2    1
    15     1     2   ar
    16     1     3   ar
    17     2     4   ar
    18     9     3    1
    19     3     6   ar
    20    32    24    1
    21    15     4    1
    22    15    13   ar
    23     4     7   ar
    24    16    26    1
    25    16    14   ar
    26    24    26   ar
    27    24    25   ar
    28    26    29   ar
    29    25    28    1
    30    25    27   ar
    31    34    33    1
    32    29    30   ar
    33    29    31    1
    34     6     7   ar
    35     6     8    1
    36    30    27   ar
    37    30    33    1
    38    27    37    1
    39     7    11    1
    40    37    35   ar
    41    43    38    1
    42    38    36   ar
    43    11    12    1
    44    14    13   ar
    45    14    17    1
    46    13    21    1
    47    35    36   ar
    48    35    44    1
    49    36    39    1
