@<TRIPOS>MOLECULE
mol_data/opt/cam/geoms/mol2/4af4af4af.out
 35 37 0 0 0
SMALL
GASTEIGER

@<TRIPOS>ATOM
      1 C          -0.0586    0.2822    1.0244 C.ar    1  LIG1       -0.0610
      2 C           1.3245    0.3497    0.9229 C.ar    1  LIG1       -0.0505
      3 C          -0.8384    1.1673    0.2931 C.ar    1  LIG1       -0.0583
      4 C           1.9682    1.2820    0.1054 C.ar    1  LIG1        0.0237
      5 H           1.9375   -0.3284    1.5071 H       1  LIG1        0.0625
      6 C          -0.2290    2.1087   -0.5245 C.ar    1  LIG1       -0.0196
      7 C           1.1583    2.1712   -0.6198 C.ar    1  LIG1        0.1245
      8 H          -0.8329    2.8051   -1.1017 H       1  LIG1        0.0654
      9 H          -1.9209    1.1331    0.3579 H       1  LIG1        0.0619
     10 H          -0.5208   -0.4522    1.6747 H       1  LIG1        0.0618
     11 O           1.7640    3.0897   -1.4270 O.3     1  LIG1       -0.5062
     12 H           1.0859    3.5775   -1.9088 H       1  LIG1        0.2922
     13 C           4.1583    0.0873   -0.0176 C.ar    1  LIG1       -0.0531
     14 C           5.5439    0.0894   -0.0546 C.ar    1  LIG1       -0.0500
     15 C           3.4503    1.2903    0.0176 C.ar    1  LIG1       -0.0109
     16 C           6.2910    1.2688   -0.0600 C.ar    1  LIG1        0.0237
     17 H           6.0757   -0.8560   -0.0690 H       1  LIG1        0.0625
     18 C           4.1811    2.4782    0.0123 C.ar    1  LIG1       -0.0117
     19 C           5.5701    2.4726   -0.0243 C.ar    1  LIG1        0.1251
     20 H           3.6571    3.4282    0.0270 H       1  LIG1        0.0660
     21 H           3.6217   -0.8548   -0.0319 H       1  LIG1        0.0624
     22 O           6.2661    3.6472   -0.0315 O.3     1  LIG1       -0.5061
     23 H           5.6381    4.3769   -0.0869 H       1  LIG1        0.2922
     24 C           8.3998    0.2740   -0.9478 C.ar    1  LIG1       -0.0537
     25 C           9.7864    0.1841   -0.9819 C.ar    1  LIG1       -0.0577
     26 C           7.7734    1.2132   -0.1241 C.ar    1  LIG1       -0.0110
     27 C          10.5734    1.0204   -0.2056 C.ar    1  LIG1       -0.0201
     28 H          10.2612   -0.5454   -1.6304 H       1  LIG1        0.0619
     29 C           8.5683    2.0585    0.6541 C.ar    1  LIG1       -0.0124
     30 C           9.9540    1.9620    0.6120 C.ar    1  LIG1        0.1174
     31 H           8.0984    2.8001    1.2913 H       1  LIG1        0.0660
     32 H          11.6558    0.9668   -0.2216 H       1  LIG1        0.0654
     33 H           7.7992   -0.3710   -1.5791 H       1  LIG1        0.0624
     34 O          10.7583    2.7677    1.3615 O.3     1  LIG1       -0.5067
     35 H          10.2085    3.3814    1.8624 H       1  LIG1        0.2921
@<TRIPOS>BOND
     1    12    11    1
     2    28    25    1
     3    33    24    1
     4    11     7    1
     5     8     6    1
     6    25    24   ar
     7    25    27   ar
     8    24    26   ar
     9     7     6   ar
    10     7     4   ar
    11     6     3   ar
    12    32    27    1
    13    27    30   ar
    14    26    16    1
    15    26    29   ar
    16    23    22    1
    17    17    14    1
    18    16    14   ar
    19    16    19   ar
    20    14    13   ar
    21    21    13    1
    22    22    19    1
    23    19    18   ar
    24    13    15   ar
    25    18    15   ar
    26    18    20    1
    27    15     4    1
    28     4     2   ar
    29     3     9    1
    30     3     1   ar
    31    30    29   ar
    32    30    34    1
    33    29    31    1
    34     2     1   ar
    35     2     5    1
    36     1    10    1
    37    34    35    1
