@<TRIPOS>MOLECULE
mol_data/opt/cam/geoms/mol2/4af4af-4af.out
 35 37 0 0 0
SMALL
GASTEIGER

@<TRIPOS>ATOM
      1 C          -0.1309    0.0483    0.3011 C.ar    1  LIG1       -0.0610
      2 C           1.2574    0.0800    0.2985 C.ar    1  LIG1       -0.0505
      3 C          -0.8381    1.2181    0.0608 C.ar    1  LIG1       -0.0583
      4 C           1.9758    1.2541    0.0616 C.ar    1  LIG1        0.0237
      5 H           1.8145   -0.8283    0.5028 H       1  LIG1        0.0625
      6 C          -0.1530    2.4016   -0.1764 C.ar    1  LIG1       -0.0196
      7 C           1.2389    2.4257   -0.1762 C.ar    1  LIG1        0.1245
      8 H          -0.7000    3.3215   -0.3695 H       1  LIG1        0.0654
      9 H          -1.9232    1.2167    0.0595 H       1  LIG1        0.0619
     10 H          -0.6532   -0.8819    0.4955 H       1  LIG1        0.0618
     11 O           1.9207    3.5809   -0.4211 O.3     1  LIG1       -0.5062
     12 H           1.2878    4.2834   -0.6097 H       1  LIG1        0.2922
     13 C           4.2243    2.2221    0.6755 C.ar    1  LIG1       -0.0531
     14 C           5.6051    2.1290    0.6878 C.ar    1  LIG1       -0.0500
     15 C           3.4609    1.2277    0.0538 C.ar    1  LIG1       -0.0109
     16 C           6.2821    1.0592    0.0964 C.ar    1  LIG1        0.0237
     17 H           6.1883    2.8926    1.1934 H       1  LIG1        0.0625
     18 C           4.1238    0.1638   -0.5546 C.ar    1  LIG1       -0.0117
     19 C           5.5115    0.0738   -0.5378 C.ar    1  LIG1        0.1251
     20 H           3.5736   -0.6075   -1.0813 H       1  LIG1        0.0660
     21 H           3.7330    3.0604    1.1513 H       1  LIG1        0.0624
     22 O           6.0615   -0.9917   -1.1806 O.3     1  LIG1       -0.5061
     23 H           7.0234   -0.8912   -1.1905 H       1  LIG1        0.2922
     24 C           8.4315   -0.1791    0.5083 C.ar    1  LIG1       -0.0537
     25 C           9.8237   -0.2159    0.5266 C.ar    1  LIG1       -0.0577
     26 C           7.7649    0.9877    0.1177 C.ar    1  LIG1       -0.0110
     27 C          10.5707    0.8922    0.1645 C.ar    1  LIG1       -0.0201
     28 H          10.3314   -1.1225    0.8398 H       1  LIG1        0.0619
     29 C           8.5221    2.1038   -0.2493 C.ar    1  LIG1       -0.0124
     30 C           9.9114    2.0588   -0.2211 C.ar    1  LIG1        0.1174
     31 H           8.0144    3.0084   -0.5739 H       1  LIG1        0.0660
     32 H          11.6543    0.8800    0.1737 H       1  LIG1        0.0654
     33 H           7.8614   -1.0410    0.8391 H       1  LIG1        0.0624
     34 O          10.6811    3.1229   -0.5715 O.3     1  LIG1       -0.5067
     35 H          10.1129    3.8620   -0.8186 H       1  LIG1        0.2921
@<TRIPOS>BOND
     1    23    22    1
     2    22    19    1
     3    20    18    1
     4    35    34    1
     5    12    11    1
     6    31    29    1
     7    34    30    1
     8    18    19   ar
     9    18    15   ar
    10    19    16   ar
    11    11     7    1
    12     8     6    1
    13    29    30   ar
    14    29    26   ar
    15    30    27   ar
    16     6     7   ar
    17     6     3   ar
    18     7     4   ar
    19    15     4    1
    20    15    13   ar
    21     9     3    1
    22     3     1   ar
    23     4     2   ar
    24    16    26    1
    25    16    14   ar
    26    26    24   ar
    27    27    32    1
    28    27    25   ar
    29     2     1   ar
    30     2     5    1
    31     1    10    1
    32    24    25   ar
    33    24    33    1
    34    25    28    1
    35    13    14   ar
    36    13    21    1
    37    14    17    1
