@<TRIPOS>MOLECULE
mol_data/opt/cam/geoms/mol2/4af4af-4af-4af-.out
 46 49 0 0 0
SMALL
GASTEIGER

@<TRIPOS>ATOM
      1 C          -0.2509    0.0890    0.1191 C.ar    1  LIG1       -0.0610
      2 C           1.1374    0.0990    0.0871 C.ar    1  LIG1       -0.0505
      3 C          -0.9382    1.2932    0.1808 C.ar    1  LIG1       -0.0583
      4 C           1.8751    1.2845    0.1153 C.ar    1  LIG1        0.0237
      5 H           1.6798   -0.8402    0.0565 H       1  LIG1        0.0625
      6 C          -0.2334    2.4886    0.2114 C.ar    1  LIG1       -0.0196
      7 C           1.1583    2.4905    0.1802 C.ar    1  LIG1        0.1245
      8 H          -0.7650    3.4363    0.2554 H       1  LIG1        0.0654
      9 H          -2.0228    1.3089    0.2081 H       1  LIG1        0.0619
     10 H          -0.7885   -0.8526    0.1023 H       1  LIG1        0.0618
     11 O           1.8591    3.6598    0.1969 O.3     1  LIG1       -0.5062
     12 H           1.2375    4.3969    0.1966 H       1  LIG1        0.2922
     13 C           4.1555    2.0415    0.8871 C.ar    1  LIG1       -0.0531
     14 C           5.5338    1.9276    0.8417 C.ar    1  LIG1       -0.0500
     15 C           3.3588    1.2385    0.0633 C.ar    1  LIG1       -0.0109
     16 C           6.1766    1.0225   -0.0072 C.ar    1  LIG1        0.0237
     17 H           6.1433    2.5384    1.5004 H       1  LIG1        0.0625
     18 C           3.9868    0.3444   -0.8011 C.ar    1  LIG1       -0.0117
     19 C           5.3725    0.2329   -0.8423 C.ar    1  LIG1        0.1251
     20 H           3.4102   -0.2683   -1.4847 H       1  LIG1        0.0660
     21 H           3.6916    2.7477    1.5630 H       1  LIG1        0.0624
     22 O           5.8846   -0.6525   -1.7397 O.3     1  LIG1       -0.5061
     23 H           6.8476   -0.5678   -1.7543 H       1  LIG1        0.2922
     24 C           8.4380    2.0902   -0.1214 C.ar    1  LIG1       -0.0531
     25 C           9.8196    2.0002   -0.1333 C.ar    1  LIG1       -0.0500
     26 C           7.6575    0.9317   -0.0372 C.ar    1  LIG1       -0.0109
     27 C          10.4817    0.7722   -0.0643 C.ar    1  LIG1        0.0237
     28 H          10.4166    2.9051   -0.1874 H       1  LIG1        0.0625
     29 C           8.3058   -0.3036    0.0234 C.ar    1  LIG1       -0.0117
     30 C           9.6964   -0.3881    0.0082 C.ar    1  LIG1        0.1251
     31 H           7.7452   -1.2273    0.1229 H       1  LIG1        0.0660
     32 H           7.9540    3.0580   -0.1868 H       1  LIG1        0.0624
     33 O          10.2278   -1.6360    0.0588 O.3     1  LIG1       -0.5061
     34 H          11.1890   -1.5782   -0.0319 H       1  LIG1        0.2922
     35 C          12.6860    1.3989   -1.0692 C.ar    1  LIG1       -0.0537
     36 C          14.0717    1.3441   -1.0831 C.ar    1  LIG1       -0.0577
     37 C          11.9652    0.7058   -0.0898 C.ar    1  LIG1       -0.0110
     38 C          14.7658    0.5981   -0.1378 C.ar    1  LIG1       -0.0201
     39 H          14.6249    1.8818   -1.8462 H       1  LIG1        0.0619
     40 C          12.6628   -0.0403    0.8636 C.ar    1  LIG1       -0.0124
     41 C          14.0555   -0.0938    0.8383 C.ar    1  LIG1        0.1174
     42 H          12.1431   -0.5515    1.6674 H       1  LIG1        0.0660
     43 H          15.8515    0.5555   -0.1566 H       1  LIG1        0.0654
     44 H          12.1526    1.9659   -1.8237 H       1  LIG1        0.0624
     45 O          14.6624   -0.8346    1.8022 O.3     1  LIG1       -0.5067
     46 H          15.6193   -0.7826    1.6946 H       1  LIG1        0.2921
@<TRIPOS>BOND
     1    39    36    1
     2    44    35    1
     3    23    22    1
     4    22    19    1
     5    20    18    1
     6    36    35   ar
     7    36    38   ar
     8    35    37   ar
     9    19    18   ar
    10    19    16   ar
    11    18    15   ar
    12    28    25    1
    13    32    24    1
    14    43    38    1
    15    38    41   ar
    16    25    24   ar
    17    25    27   ar
    18    24    26   ar
    19    37    27    1
    20    37    40   ar
    21    27    30   ar
    22    26    16    1
    23    26    29   ar
    24    34    33    1
    25    16    14   ar
    26    30    29   ar
    27    30    33    1
    28    29    31    1
    29     5     2    1
    30    15     4    1
    31    15    13   ar
    32     2     4   ar
    33     2     1   ar
    34    10     1    1
    35     4     7   ar
    36     1     3   ar
    37     7    11    1
    38     7     6   ar
    39     3     9    1
    40     3     6   ar
    41    12    11    1
    42     6     8    1
    43    41    40   ar
    44    41    45    1
    45    14    13   ar
    46    14    17    1
    47    40    42    1
    48    13    21    1
    49    46    45    1
