@<TRIPOS>MOLECULE
mol_data/opt/cam/geoms/mol2/4af4af4af4af.out
 46 49 0 0 0
SMALL
GASTEIGER

@<TRIPOS>ATOM
      1 C          -0.1342    0.5466    1.3979 C.ar    1  LIG1       -0.0610
      2 C           1.2455    0.6364    1.2705 C.ar    1  LIG1       -0.0505
      3 C          -0.9453    1.0978    0.4156 C.ar    1  LIG1       -0.0583
      4 C           1.8547    1.2659    0.1822 C.ar    1  LIG1        0.0237
      5 H           1.8825    0.2221    2.0448 H       1  LIG1        0.0625
      6 C          -0.3706    1.7340   -0.6757 C.ar    1  LIG1       -0.0196
      7 C           1.0134    1.8221   -0.7952 C.ar    1  LIG1        0.1245
      8 H          -0.9992    2.1673   -1.4501 H       1  LIG1        0.0654
      9 H          -2.0258    1.0396    0.4952 H       1  LIG1        0.0619
     10 H          -0.5697    0.0549    2.2606 H       1  LIG1        0.0618
     11 O           1.5861    2.4407   -1.8682 O.3     1  LIG1       -0.5062
     12 H           0.8921    2.7048   -2.4836 H       1  LIG1        0.2922
     13 C           4.0947    0.1939    0.4496 C.ar    1  LIG1       -0.0531
     14 C           5.4790    0.2420    0.4015 C.ar    1  LIG1       -0.0500
     15 C           3.3356    1.3081    0.0859 C.ar    1  LIG1       -0.0109
     16 C           6.1750    1.3822   -0.0051 C.ar    1  LIG1        0.0237
     17 H           6.0501   -0.6307    0.6997 H       1  LIG1        0.0625
     18 C           4.0147    2.4558   -0.3223 C.ar    1  LIG1       -0.0117
     19 C           5.4027    2.4975   -0.3666 C.ar    1  LIG1        0.1251
     20 H           3.4502    3.3327   -0.6219 H       1  LIG1        0.0660
     21 H           3.5989   -0.7201    0.7565 H       1  LIG1        0.0624
     22 O           6.0477    3.6312   -0.7709 O.3     1  LIG1       -0.5061
     23 H           5.3896    4.2719   -1.0647 H       1  LIG1        0.2922
     24 C           8.3336    0.2304   -0.5072 C.ar    1  LIG1       -0.0531
     25 C           9.7190    0.1987   -0.5238 C.ar    1  LIG1       -0.0500
     26 C           7.6572    1.3693   -0.0638 C.ar    1  LIG1       -0.0109
     27 C          10.4982    1.2804   -0.1084 C.ar    1  LIG1        0.0237
     28 H          10.2249   -0.6999   -0.8607 H       1  LIG1        0.0625
     29 C           8.4206    2.4593    0.3544 C.ar    1  LIG1       -0.0117
     30 C           9.8093    2.4197    0.3359 C.ar    1  LIG1        0.1251
     31 H           7.9224    3.3620    0.6921 H       1  LIG1        0.0660
     32 H           7.7725   -0.6290   -0.8565 H       1  LIG1        0.0624
     33 O          10.5366    3.4998    0.7478 O.3     1  LIG1       -0.5061
     34 H           9.9290    4.2232    0.9414 H       1  LIG1        0.2922
     35 C          12.5982    0.5816   -1.2602 C.ar    1  LIG1       -0.0537
     36 C          13.9821    0.4626   -1.3079 C.ar    1  LIG1       -0.0577
     37 C          11.9795    1.2007   -0.1706 C.ar    1  LIG1       -0.0110
     38 C          14.7748    0.9542   -0.2824 C.ar    1  LIG1       -0.0201
     39 H          14.4506   -0.0149   -2.1626 H       1  LIG1        0.0619
     40 C          12.7804    1.6997    0.8598 C.ar    1  LIG1       -0.0124
     41 C          14.1635    1.5773    0.8023 C.ar    1  LIG1        0.1174
     42 H          12.3176    2.1929    1.7079 H       1  LIG1        0.0660
     43 H          15.8555    0.8734   -0.3040 H       1  LIG1        0.0654
     44 H          11.9940    0.2133   -2.0816 H       1  LIG1        0.0624
     45 O          14.9727    2.0495    1.7925 O.3     1  LIG1       -0.5067
     46 H          14.4283    2.4721    2.4669 H       1  LIG1        0.2921
@<TRIPOS>BOND
     1    12    11    1
     2    39    36    1
     3    44    35    1
     4    11     7    1
     5     8     6    1
     6    36    35   ar
     7    36    38   ar
     8    35    37   ar
     9    23    22    1
    10    28    25    1
    11    32    24    1
    12     7     6   ar
    13     7     4   ar
    14    22    19    1
    15     6     3   ar
    16    20    18    1
    17    25    24   ar
    18    25    27   ar
    19    24    26   ar
    20    19    18   ar
    21    19    16   ar
    22    18    15   ar
    23    43    38    1
    24    38    41   ar
    25    37    27    1
    26    37    40   ar
    27    27    30   ar
    28    26    16    1
    29    26    29   ar
    30    16    14   ar
    31    15     4    1
    32    15    13   ar
    33     4     2   ar
    34    30    29   ar
    35    30    33    1
    36    29    31    1
    37    14    13   ar
    38    14    17    1
    39     3     9    1
    40     3     1   ar
    41    13    21    1
    42    33    34    1
    43    41    40   ar
    44    41    45    1
    45    40    42    1
    46     2     1   ar
    47     2     5    1
    48     1    10    1
    49    45    46    1
