@<TRIPOS>MOLECULE
mol_data/opt/cam/geoms/mol2/4af4af-4af4af.out
 46 49 0 0 0
SMALL
GASTEIGER

@<TRIPOS>ATOM
      1 C          -0.2224    0.0465    0.5455 C.ar    1  LIG1       -0.0610
      2 C           1.1647    0.0951    0.5018 C.ar    1  LIG1       -0.0505
      3 C          -0.9538    1.1682    0.1806 C.ar    1  LIG1       -0.0583
      4 C           1.8580    1.2396    0.1019 C.ar    1  LIG1        0.0237
      5 H           1.7410   -0.7736    0.8027 H       1  LIG1        0.0625
      6 C          -0.2937    2.3215   -0.2201 C.ar    1  LIG1       -0.0196
      7 C           1.0972    2.3631   -0.2600 C.ar    1  LIG1        0.1245
      8 H          -0.8600    3.2031   -0.5115 H       1  LIG1        0.0654
      9 H          -2.0383    1.1530    0.2084 H       1  LIG1        0.0619
     10 H          -0.7250   -0.8586    0.8679 H       1  LIG1        0.0618
     11 O           1.7545    3.4872   -0.6644 O.3     1  LIG1       -0.5062
     12 H           1.1061    4.1529   -0.9216 H       1  LIG1        0.2922
     13 C           4.1048    2.3042    0.5349 C.ar    1  LIG1       -0.0531
     14 C           5.4867    2.2315    0.5222 C.ar    1  LIG1       -0.0500
     15 C           3.3427    1.2318    0.0580 C.ar    1  LIG1       -0.0109
     16 C           6.1667    1.1073    0.0456 C.ar    1  LIG1        0.0237
     17 H           6.0691    3.0577    0.9183 H       1  LIG1        0.0625
     18 C           4.0077    0.1114   -0.4356 C.ar    1  LIG1       -0.0117
     19 C           5.3966    0.0428   -0.4458 C.ar    1  LIG1        0.1251
     20 H           3.4573   -0.7249   -0.8513 H       1  LIG1        0.0660
     21 H           3.6115    3.1870    0.9193 H       1  LIG1        0.0624
     22 O           5.9475   -1.0846   -0.9715 O.3     1  LIG1       -0.5061
     23 H           6.9060   -0.9701   -1.0291 H       1  LIG1        0.2922
     24 C           8.3530   -0.0458    0.5280 C.ar    1  LIG1       -0.0531
     25 C           9.7418   -0.0519    0.5134 C.ar    1  LIG1       -0.0500
     26 C           7.6491    1.0584    0.0368 C.ar    1  LIG1       -0.0109
     27 C          10.4916    1.0166    0.0220 C.ar    1  LIG1        0.0237
     28 H          10.2719   -0.9048    0.9237 H       1  LIG1        0.0625
     29 C           8.3856    2.1364   -0.4564 C.ar    1  LIG1       -0.0117
     30 C           9.7755    2.1258   -0.4602 C.ar    1  LIG1        0.1251
     31 H           7.8591    2.9958   -0.8643 H       1  LIG1        0.0660
     32 H           7.8160   -0.8795    0.9684 H       1  LIG1        0.0624
     33 O          10.4779    3.1832   -0.9537 O.3     1  LIG1       -0.5061
     34 H           9.8593    3.8350   -1.3043 H       1  LIG1        0.2922
     35 C          12.6062   -0.2522   -0.3444 C.ar    1  LIG1       -0.0537
     36 C          13.9928   -0.3474   -0.3175 C.ar    1  LIG1       -0.0577
     37 C          11.9748    0.9428    0.0091 C.ar    1  LIG1       -0.0110
     38 C          14.7729    0.7350    0.0571 C.ar    1  LIG1       -0.0201
     39 H          14.4725   -1.2790   -0.6001 H       1  LIG1        0.0619
     40 C          12.7623    2.0347    0.3822 C.ar    1  LIG1       -0.0124
     41 C          14.1480    1.9299    0.4051 C.ar    1  LIG1        0.1174
     42 H          12.2882    2.9727    0.6511 H       1  LIG1        0.0660
     43 H          15.8550    0.6801    0.0813 H       1  LIG1        0.0654
     44 H          12.0109   -1.1009   -0.6620 H       1  LIG1        0.0624
     45 O          14.9467    2.9717    0.7683 O.3     1  LIG1       -0.5067
     46 H          14.3957    3.7378    0.9668 H       1  LIG1        0.2921
@<TRIPOS>BOND
     1    34    33    1
     2    23    22    1
     3    22    19    1
     4    33    30    1
     5    12    11    1
     6    31    29    1
     7    20    18    1
     8    11     7    1
     9    44    35    1
    10    39    36    1
    11     8     6    1
    12    30    29   ar
    13    30    27   ar
    14    29    26   ar
    15    19    18   ar
    16    19    16   ar
    17    18    15   ar
    18    35    36   ar
    19    35    37   ar
    20    36    38   ar
    21     7     6   ar
    22     7     4   ar
    23     6     3   ar
    24    37    27    1
    25    37    40   ar
    26    27    25   ar
    27    26    16    1
    28    26    24   ar
    29    16    14   ar
    30    38    43    1
    31    38    41   ar
    32    15     4    1
    33    15    13   ar
    34     4     2   ar
    35     3     9    1
    36     3     1   ar
    37    40    41   ar
    38    40    42    1
    39    41    45    1
    40     2     1   ar
    41     2     5    1
    42    25    24   ar
    43    25    28    1
    44    14    13   ar
    45    14    17    1
    46    24    32    1
    47    13    21    1
    48     1    10    1
    49    45    46    1
