@<TRIPOS>MOLECULE
mol_data/opt/cam/geoms/mol2/4af6el-6he12hi12ae13ea6da-6ld-.out
 96 103 0 0 0
SMALL
GASTEIGER

@<TRIPOS>ATOM
      1 C          -0.3284   -0.4860   -0.4808 C.ar    1  LIG1       -0.0610
      2 C           1.0532   -0.3580   -0.5597 C.ar    1  LIG1       -0.0505
      3 C          -1.0073    0.1207    0.5673 C.ar    1  LIG1       -0.0583
      4 C           1.7753    0.3694    0.3847 C.ar    1  LIG1        0.0263
      5 H           1.5939   -0.8158   -1.3823 H       1  LIG1        0.0625
      6 C          -0.3086    0.8381    1.5296 C.ar    1  LIG1       -0.0196
      7 C           1.0754    0.9600    1.4459 C.ar    1  LIG1        0.1246
      8 H          -0.8363    1.3005    2.3599 H       1  LIG1        0.0654
      9 H          -2.0862    0.0346    0.6446 H       1  LIG1        0.0619
     10 H          -0.8679   -1.0486   -1.2344 H       1  LIG1        0.0618
     11 O           1.8014    1.6188    2.3852 O.3     1  LIG1       -0.5062
     12 H           1.2072    2.0490    3.0107 H       1  LIG1        0.2922
     13 C           3.9199    1.6902    0.0907 C.ar    1  LIG1        0.1219
     14 C           3.2518    0.4780    0.2797 C.ar    1  LIG1        0.0229
     15 C           4.0408   -0.6696    0.3451 C.ar    1  LIG1       -0.0073
     16 C           5.4192   -0.5946    0.2272 C.ar    1  LIG1        0.1467
     17 C           6.0235    0.6733    0.0140 C.ar    1  LIG1        0.1172
     18 N           5.2515    1.7575   -0.0344 N.ar    1  LIG1       -0.2340
     19 H           3.5529   -1.6207    0.5148 H       1  LIG1        0.0662
     20 C           3.2132    2.9369   -0.0136 C.1     1  LIG1       -0.0492
     21 C           2.6336    3.9857   -0.1197 C.1     1  LIG1       -0.1124
     22 H           2.1210    4.9153   -0.2093 H       1  LIG1        0.1232
     23 O           6.2289   -1.6761    0.3280 O.3     1  LIG1       -0.4929
     24 C           5.6579   -2.9248    0.6646 C.3     1  LIG1        0.0789
     25 H           6.4912   -3.6213    0.7481 H       1  LIG1        0.0660
     26 H           5.1278   -2.8764    1.6220 H       1  LIG1        0.0660
     27 H           4.9702   -3.2769   -0.1124 H       1  LIG1        0.0660
     28 C           8.1414    2.0898    0.2196 C.ar    1  LIG1        0.1264
     29 C           7.4841    0.8638   -0.1342 C.ar    1  LIG1        0.0447
     30 C           8.3006   -0.1178   -0.6703 C.ar    1  LIG1       -0.0316
     31 C           9.6860    0.0383   -0.7918 C.ar    1  LIG1        0.0545
     32 C          10.2427    1.2298   -0.2767 C.ar    1  LIG1        0.1253
     33 N           9.4738    2.2099    0.1829 N.ar    1  LIG1       -0.2274
     34 H           7.8630   -1.0377   -1.0299 H       1  LIG1        0.0638
     35 N           7.4807    3.1812    0.6470 N.pl3   1  LIG1       -0.3426
     36 H           8.0335    4.0191    0.7750 H       1  LIG1        0.1437
     37 H           6.4851    3.2224    0.4808 H       1  LIG1        0.1437
     38 C          10.4310   -0.9561   -1.4889 C.1     1  LIG1       -0.0674
     39 C          11.0287   -1.8179   -2.0877 C.1     1  LIG1       -0.1138
     40 H          11.5467   -2.5503   -2.6622 H       1  LIG1        0.1232
     41 C          11.6753    1.4994   -0.2100 C.ar    1  LIG1        0.1760
     42 C          12.8120    0.7584    0.0357 C.ar    1  LIG1        0.0762
     43 C          13.8970    1.6883    0.1388 C.ar    1  LIG1        0.0197
     44 C          13.3398    2.9211   -0.0540 C.ar    1  LIG1        0.1754
     45 O          12.0141    2.8292   -0.2540 O.2     1  LIG1       -0.4480
     46 N          12.9504   -0.5964    0.2886 N.pl3   1  LIG1       -0.3548
     47 H          12.2588   -1.1827   -0.1618 H       1  LIG1        0.1424
     48 H          13.8846   -0.9393    0.1147 H       1  LIG1        0.1424
     49 C          15.3130    1.3405    0.4597 C.3     1  LIG1       -0.0342
     50 H          15.8555    2.2092    0.8385 H       1  LIG1        0.0279
     51 H          15.8581    0.9642   -0.4138 H       1  LIG1        0.0279
     52 H          15.3525    0.5657    1.2319 H       1  LIG1        0.0279
     53 C          13.9168    4.2415   -0.0955 C.ar    1  LIG1        0.1722
     54 C          15.1676    4.7011   -0.3685 C.ar    1  LIG1        0.0034
     55 C          15.1222    6.1274   -0.2502 C.ar    1  LIG1        0.0726
     56 C          13.8296    6.4348    0.1053 C.ar    1  LIG1        0.1684
     57 O          13.0969    5.2916    0.1928 O.2     1  LIG1       -0.4489
     58 H          16.0225    4.1179   -0.6710 H       1  LIG1        0.0669
     59 C          16.1878    7.0077   -0.5719 C.1     1  LIG1       -0.0658
     60 C          17.1093    7.7148   -0.8860 C.1     1  LIG1       -0.1138
     61 H          17.9107    8.3619   -1.1580 H       1  LIG1        0.1232
     62 C          13.0949    7.6551    0.3278 C.ar    1  LIG1        0.0993
     63 C          13.4833    8.9188    0.7760 C.ar    1  LIG1        0.0536
     64 C          12.3276    9.7341    0.7418 C.ar    1  LIG1       -0.0202
     65 C          11.2661    8.9675    0.3057 C.ar    1  LIG1        0.0509
     66 N          11.7536    7.7029    0.0702 N.ar    1  LIG1       -0.3507
     67 H          11.2211    6.8951   -0.2218 H       1  LIG1        0.1660
     68 C          14.7487    9.3174    1.2814 C.1     1  LIG1       -0.0674
     69 C          15.7944    9.6876    1.7485 C.1     1  LIG1       -0.1138
     70 H          16.7288    9.9920    2.1595 H       1  LIG1        0.1232
     71 H          12.2871   10.7666    1.0536 H       1  LIG1        0.0651
     72 C           8.7502    8.5856    0.1118 C.ar    1  LIG1        0.1498
     73 C           9.8931    9.4042    0.0812 C.ar    1  LIG1        0.0342
     74 C           9.6438   10.7585   -0.1874 C.ar    1  LIG1       -0.0479
     75 C           8.3586   11.2088   -0.3977 C.ar    1  LIG1       -0.0348
     76 C           7.2967   10.2964   -0.3529 C.ar    1  LIG1        0.0776
     77 N           7.5034    9.0096   -0.1007 N.ar    1  LIG1       -0.2355
     78 H          10.4790   11.4450   -0.2596 H       1  LIG1        0.0626
     79 N           8.8882    6.0426    0.6300 N.1     1  LIG1       -0.1893
     80 C           8.8376    7.1742    0.4029 C.1     1  LIG1        0.1198
     81 H           8.1728   12.2516   -0.6287 H       1  LIG1        0.0639
     82 C           5.0034   10.0630   -1.4255 C.ar    1  LIG1        0.2239
     83 C           5.8972   10.7427   -0.5584 C.ar    1  LIG1        0.0631
     84 C           5.4042   11.8548    0.0912 C.ar    1  LIG1       -0.0286
     85 C           4.0726   12.2529   -0.1003 C.ar    1  LIG1        0.0707
     86 C           3.2840   11.4908   -0.9536 C.ar    1  LIG1        0.0488
     87 N           3.7419   10.4249   -1.6040 N.ar    1  LIG1       -0.2195
     88 H           6.0395   12.4129    0.7706 H       1  LIG1        0.0639
     89 H           2.2432   11.7543   -1.1198 H       1  LIG1        0.0844
     90 O           5.4817    9.0284   -2.1098 O.3     1  LIG1       -0.4792
     91 C           4.5858    8.3292   -2.9726 C.3     1  LIG1        0.0804
     92 H           5.1768    7.5248   -3.4067 H       1  LIG1        0.0660
     93 H           3.7444    7.9224   -2.4089 H       1  LIG1        0.0660
     94 H           4.2009    8.9894   -3.7524 H       1  LIG1        0.0660
     95 N           3.1024   14.3262    1.1058 N.1     1  LIG1       -0.1908
     96 C           3.5353   13.3980    0.5676 C.1     1  LIG1        0.1007
@<TRIPOS>BOND
     1    94    91    1
     2    92    91    1
     3    91    93    1
     4    91    90    1
     5    40    39    1
     6    90    82    1
     7    39    38    3
     8    87    82   ar
     9    87    86   ar
    10    38    31    1
    11    82    83   ar
    12     5     2    1
    13    10     1    1
    14    61    60    1
    15    89    86    1
    16    34    30    1
    17    86    85   ar
    18    60    59    3
    19    31    30   ar
    20    31    32   ar
    21    58    54    1
    22    30    29   ar
    23    81    75    1
    24    59    55    1
    25     2     1   ar
    26     2     4   ar
    27    83    76    1
    28    83    84   ar
    29     1     3   ar
    30    51    49    1
    31    75    76   ar
    32    75    74   ar
    33    54    55   ar
    34    54    53   ar
    35    76    77   ar
    36    32    41    1
    37    32    33   ar
    38    78    74    1
    39    45    41   ar
    40    45    44   ar
    41    55    56   ar
    42    67    66    1
    43    41    42   ar
    44    22    21    1
    45    74    73   ar
    46    47    46    1
    47    29    17    1
    48    29    28   ar
    49    21    20    3
    50    27    24    1
    51    77    72   ar
    52    85    84   ar
    53    85    96    1
    54    53    44    1
    55    53    57   ar
    56    44    43   ar
    57    18    17   ar
    58    18    13   ar
    59    20    13    1
    60    17    16   ar
    61    42    43   ar
    62    42    46    1
    63    66    65   ar
    64    66    62   ar
    65    73    72   ar
    66    73    65    1
    67    13    14   ar
    68    84    88    1
    69    56    57   ar
    70    56    62    1
    71    72    80    1
    72    48    46    1
    73    43    49    1
    74    33    28   ar
    75    28    35    1
    76    16    23    1
    77    16    15   ar
    78    14    15   ar
    79    14     4    1
    80    65    64   ar
    81    62    63   ar
    82    23    24    1
    83    15    19    1
    84     4     7   ar
    85    80    79    3
    86    49    50    1
    87    49    52    1
    88    37    35    1
    89     3     9    1
    90     3     6   ar
    91    96    95    3
    92    35    36    1
    93    24    25    1
    94    24    26    1
    95    64    63   ar
    96    64    71    1
    97    63    68    1
    98    68    69    3
    99     7     6   ar
   100     7    11    1
   101     6     8    1
   102    69    70    1
   103    11    12    1
