@<TRIPOS>MOLECULE
mol_data/opt/cam/geoms/mol2/4ag.out
 13 13 0 0 0
SMALL
GASTEIGER

@<TRIPOS>ATOM
      1 C           0.0362   -0.0152    0.0005 C.ar    1  LIG1       -0.0617
      2 C           1.4264   -0.0279    0.0001 C.ar    1  LIG1       -0.0607
      3 C          -0.6343    1.2015    0.0004 C.ar    1  LIG1       -0.0607
      4 C           2.1415    1.1618   -0.0004 C.ar    1  LIG1       -0.0486
      5 H           1.9623   -0.9716    0.0003 H       1  LIG1        0.0618
      6 C           0.0733    2.3973   -0.0002 C.ar    1  LIG1       -0.0486
      7 C           1.4668    2.3825   -0.0006 C.ar    1  LIG1        0.0047
      8 H          -0.4636    3.3406   -0.0003 H       1  LIG1        0.0628
      9 H           3.2267    1.1429   -0.0008 H       1  LIG1        0.0628
     10 H          -1.7193    1.2258    0.0007 H       1  LIG1        0.0618
     11 H          -0.5198   -0.9464    0.0010 H       1  LIG1        0.0618
     12 S           2.4445    3.8702   -0.0013 S.3     1  LIG1       -0.1426
     13 H           1.4209    4.7382   -0.0013 H       1  LIG1        0.1071
@<TRIPOS>BOND
     1    12    13    1
     2    12     7    1
     3     9     4    1
     4     7     4   ar
     5     7     6   ar
     6     4     2   ar
     7     8     6    1
     8     6     3   ar
     9     2     5    1
    10     2     1   ar
    11     3     1   ar
    12     3    10    1
    13     1    11    1
