@<TRIPOS>MOLECULE
mol_data/opt/cam/geoms/mol2/4ag4ag4ag-.out
 35 37 0 0 0
SMALL
GASTEIGER

@<TRIPOS>ATOM
      1 C          -0.0995    0.0173    0.4045 C.ar    1  LIG1       -0.0611
      2 C           1.2852    0.0918    0.3914 C.ar    1  LIG1       -0.0530
      3 C          -0.8430    1.1178   -0.0012 C.ar    1  LIG1       -0.0607
      4 C           1.9555    1.2464   -0.0204 C.ar    1  LIG1       -0.0047
      5 H           1.8773   -0.7568    0.7186 H       1  LIG1        0.0624
      6 C          -0.2000    2.2734   -0.4192 C.ar    1  LIG1       -0.0480
      7 C           1.1933    2.3490   -0.4393 C.ar    1  LIG1        0.0124
      8 H          -0.7900    3.1255   -0.7410 H       1  LIG1        0.0629
      9 H          -1.9274    1.0813    0.0043 H       1  LIG1        0.0618
     10 H          -0.5931   -0.8906    0.7334 H       1  LIG1        0.0618
     11 S           2.0172    3.8184   -1.0302 S.3     1  LIG1       -0.1420
     12 H           0.9009    4.4353   -1.4493 H       1  LIG1        0.1071
     13 C           4.1568    0.2702   -0.6984 C.ar    1  LIG1       -0.0534
     14 C           5.5414    0.2629   -0.6593 C.ar    1  LIG1       -0.0524
     15 C           3.4435    1.2517   -0.0101 C.ar    1  LIG1       -0.0158
     16 C           6.2642    1.2186    0.0574 C.ar    1  LIG1       -0.0047
     17 H           6.0920   -0.4911   -1.2124 H       1  LIG1        0.0624
     18 C           4.1534    2.2023    0.7211 C.ar    1  LIG1       -0.0402
     19 C           5.5467    2.1970    0.7636 C.ar    1  LIG1        0.0130
     20 H           3.6030    2.9481    1.2845 H       1  LIG1        0.0635
     21 H           3.6233   -0.4748   -1.2786 H       1  LIG1        0.0624
     22 S           6.4272    3.3916    1.7542 S.3     1  LIG1       -0.1420
     23 H           5.3309    3.9714    2.2678 H       1  LIG1        0.1071
     24 C           8.3966   -0.0229    0.4522 C.ar    1  LIG1       -0.0539
     25 C           9.7825   -0.1013    0.4180 C.ar    1  LIG1       -0.0602
     26 C           7.7508    1.1486    0.0544 C.ar    1  LIG1       -0.0158
     27 C          10.5407    0.9800   -0.0077 C.ar    1  LIG1       -0.0485
     28 H          10.2804   -1.0114    0.7363 H       1  LIG1        0.0618
     29 C           8.5154    2.2294   -0.3883 C.ar    1  LIG1       -0.0408
     30 C           9.9053    2.1522   -0.4154 C.ar    1  LIG1        0.0053
     31 H           8.0136    3.1298   -0.7259 H       1  LIG1        0.0635
     32 H          11.6239    0.9163   -0.0201 H       1  LIG1        0.0628
     33 H           7.8083   -0.8647    0.8014 H       1  LIG1        0.0624
     34 S          10.9233    3.4955   -0.9851 S.3     1  LIG1       -0.1426
     35 H           9.9538    4.4221   -1.0375 H       1  LIG1        0.1071
@<TRIPOS>BOND
     1    12    11    1
     2    21    13    1
     3    17    14    1
     4    35    34    1
     5    11     7    1
     6    34    30    1
     7     8     6    1
     8    31    29    1
     9    13    14   ar
    10    13    15   ar
    11    14    16   ar
    12     7     6   ar
    13     7     4   ar
    14     6     3   ar
    15    30    29   ar
    16    30    27   ar
    17    29    26   ar
    18     4    15    1
    19     4     2   ar
    20    32    27    1
    21    15    18   ar
    22    27    25   ar
    23     3     9    1
    24     3     1   ar
    25    26    16    1
    26    26    24   ar
    27    16    19   ar
    28     2     1   ar
    29     2     5    1
    30     1    10    1
    31    25    24   ar
    32    25    28    1
    33    24    33    1
    34    18    19   ar
    35    18    20    1
    36    19    22    1
    37    22    23    1
