@<TRIPOS>MOLECULE
mol_data/opt/cam/geoms/mol2/4ag4ag4ag-4ag-.out
 46 49 0 0 0
SMALL
GASTEIGER

@<TRIPOS>ATOM
      1 C          -0.1624    0.0114    0.7045 C.ar    1  LIG1       -0.0611
      2 C           1.2191    0.1196    0.6524 C.ar    1  LIG1       -0.0530
      3 C          -0.9441    1.0206    0.1577 C.ar    1  LIG1       -0.0607
      4 C           1.8486    1.2187    0.0627 C.ar    1  LIG1       -0.0047
      5 H           1.8409   -0.6558    1.0882 H       1  LIG1        0.0624
      6 C          -0.3419    2.1190   -0.4376 C.ar    1  LIG1       -0.0480
      7 C           1.0481    2.2275   -0.4972 C.ar    1  LIG1        0.0124
      8 H          -0.9617    2.8987   -0.8684 H       1  LIG1        0.0629
      9 H          -2.0267    0.9567    0.1906 H       1  LIG1        0.0618
     10 H          -0.6239   -0.8512    1.1726 H       1  LIG1        0.0618
     11 S           1.8192    3.6154   -1.3133 S.3     1  LIG1       -0.1420
     12 H           0.6791    4.1352   -1.7951 H       1  LIG1        0.1071
     13 C           4.0663    0.2123   -0.5095 C.ar    1  LIG1       -0.0534
     14 C           5.4508    0.2488   -0.4997 C.ar    1  LIG1       -0.0524
     15 C           3.3358    1.2651    0.0416 C.ar    1  LIG1       -0.0158
     16 C           6.1568    1.3195    0.0527 C.ar    1  LIG1       -0.0047
     17 H           6.0140   -0.5631   -0.9482 H       1  LIG1        0.0624
     18 C           4.0291    2.3321    0.6100 C.ar    1  LIG1       -0.0402
     19 C           5.4225    2.3711    0.6237 C.ar    1  LIG1        0.0130
     20 H           3.4659    3.1376    1.0688 H       1  LIG1        0.0635
     21 H           3.5454   -0.6244   -0.9622 H       1  LIG1        0.0624
     22 S           6.2823    3.7214    1.4116 S.3     1  LIG1       -0.1420
     23 H           5.1775    4.3377    1.8604 H       1  LIG1        0.1071
     24 C           8.3358    0.2005    0.5569 C.ar    1  LIG1       -0.0534
     25 C           9.7194    0.1642    0.5024 C.ar    1  LIG1       -0.0524
     26 C           7.6437    1.2895    0.0266 C.ar    1  LIG1       -0.0158
     27 C          10.4616    1.1962   -0.0750 C.ar    1  LIG1       -0.0047
     28 H          10.2540   -0.6757    0.9340 H       1  LIG1        0.0624
     29 C           8.3730    2.3187   -0.5664 C.ar    1  LIG1       -0.0402
     30 C           9.7652    2.2846   -0.6241 C.ar    1  LIG1        0.0130
     31 H           7.8382    3.1523   -1.0084 H       1  LIG1        0.0635
     32 H           7.7870   -0.6075    1.0285 H       1  LIG1        0.0624
     33 S          10.6706    3.5883   -1.4388 S.3     1  LIG1       -0.1420
     34 H           9.5867    4.2618   -1.8553 H       1  LIG1        0.1071
     35 C          12.5597   -0.0242   -0.6704 C.ar    1  LIG1       -0.0539
     36 C          13.9434   -0.1397   -0.6619 C.ar    1  LIG1       -0.0602
     37 C          11.9459    1.0906   -0.0972 C.ar    1  LIG1       -0.0158
     38 C          14.7311    0.8481   -0.0882 C.ar    1  LIG1       -0.0485
     39 H          14.4162   -1.0041   -1.1164 H       1  LIG1        0.0618
     40 C          12.7401    2.0753    0.4927 C.ar    1  LIG1       -0.0408
     41 C          14.1279    1.9618    0.4947 C.ar    1  LIG1        0.0053
     42 H          12.2630    2.9277    0.9642 H       1  LIG1        0.0635
     43 H          15.8124    0.7573   -0.0960 H       1  LIG1        0.0628
     44 H          11.9483   -0.7906   -1.1344 H       1  LIG1        0.0624
     45 S          15.1827    3.1809    1.2472 S.3     1  LIG1       -0.1426
     46 H          14.2371    4.1123    1.4465 H       1  LIG1        0.1071
@<TRIPOS>BOND
     1    34    33    1
     2    12    11    1
     3    33    30    1
     4    11     7    1
     5    44    35    1
     6    39    36    1
     7    31    29    1
     8    21    13    1
     9    17    14    1
    10     8     6    1
    11    35    36   ar
    12    35    37   ar
    13    36    38   ar
    14    30    29   ar
    15    30    27   ar
    16    29    26   ar
    17    13    14   ar
    18    13    15   ar
    19    14    16   ar
    20     7     6   ar
    21     7     4   ar
    22     6     3   ar
    23    37    27    1
    24    37    40   ar
    25    43    38    1
    26    38    41   ar
    27    27    25   ar
    28    26    16    1
    29    26    24   ar
    30    15     4    1
    31    15    18   ar
    32    16    19   ar
    33     4     2   ar
    34     3     9    1
    35     3     1   ar
    36    40    41   ar
    37    40    42    1
    38    41    45    1
    39    25    24   ar
    40    25    28    1
    41    24    32    1
    42    18    19   ar
    43    18    20    1
    44    19    22    1
    45     2     1   ar
    46     2     5    1
    47     1    10    1
    48    45    46    1
    49    22    23    1
