@<TRIPOS>MOLECULE
mol_data/opt/cam/geoms/mol2/4ag4ag-4ag4ag-.out
 46 49 0 0 0
SMALL
GASTEIGER

@<TRIPOS>ATOM
      1 C          -0.1584   -0.0132   -0.6889 C.ar    1  LIG1       -0.0611
      2 C           1.2228    0.0978   -0.6347 C.ar    1  LIG1       -0.0530
      3 C          -0.9431    1.0079   -0.1693 C.ar    1  LIG1       -0.0607
      4 C           1.8491    1.2115   -0.0695 C.ar    1  LIG1       -0.0047
      5 H           1.8469   -0.6872   -1.0495 H       1  LIG1        0.0624
      6 C          -0.3441    2.1211    0.4015 C.ar    1  LIG1       -0.0480
      7 C           1.0456    2.2325    0.4632 C.ar    1  LIG1        0.0124
      8 H          -0.9662    2.9103    0.8112 H       1  LIG1        0.0629
      9 H          -2.0255    0.9420   -0.2043 H       1  LIG1        0.0618
     10 H          -0.6174   -0.8874   -1.1377 H       1  LIG1        0.0618
     11 S           1.8124    3.6406    1.2482 S.3     1  LIG1       -0.1420
     12 H           0.6701    4.1706    1.7135 H       1  LIG1        0.1071
     13 C           4.0658    0.2217    0.5343 C.ar    1  LIG1       -0.0534
     14 C           5.4504    0.2595    0.5284 C.ar    1  LIG1       -0.0524
     15 C           3.3361    1.2601   -0.0445 C.ar    1  LIG1       -0.0158
     16 C           6.1571    1.3174   -0.0472 C.ar    1  LIG1       -0.0047
     17 H           6.0129   -0.5407    0.9982 H       1  LIG1        0.0624
     18 C           4.0303    2.3139   -0.6360 C.ar    1  LIG1       -0.0402
     19 C           5.4237    2.3542   -0.6459 C.ar    1  LIG1        0.0130
     20 H           3.4678    3.1075   -1.1160 H       1  LIG1        0.0635
     21 H           3.5443   -0.6045    1.0053 H       1  LIG1        0.0624
     22 S           6.2847    3.6861   -1.4632 S.3     1  LIG1       -0.1420
     23 H           5.1809    4.2901   -1.9305 H       1  LIG1        0.1071
     24 C           8.3390    0.1891   -0.5169 C.ar    1  LIG1       -0.0534
     25 C           9.7225    0.1558   -0.4568 C.ar    1  LIG1       -0.0524
     26 C           7.6440    1.2898   -0.0154 C.ar    1  LIG1       -0.0158
     27 C          10.4616    1.2022    0.0981 C.ar    1  LIG1       -0.0047
     28 H          10.2594   -0.6937   -0.8662 H       1  LIG1        0.0624
     29 C           8.3701    2.3338    0.5551 C.ar    1  LIG1       -0.0402
     30 C           9.7622    2.3027    0.6184 C.ar    1  LIG1        0.0130
     31 H           7.8329    3.1772    0.9751 H       1  LIG1        0.0635
     32 H           7.7927   -0.6306   -0.9707 H       1  LIG1        0.0624
     33 S          10.6633    3.6267    1.4045 S.3     1  LIG1       -0.1420
     34 H           9.5773    4.3088    1.8009 H       1  LIG1        0.1071
     35 C          12.5589   -0.0011    0.7298 C.ar    1  LIG1       -0.0539
     36 C          13.9427   -0.1152    0.7288 C.ar    1  LIG1       -0.0602
     37 C          11.9459    1.0988    0.1279 C.ar    1  LIG1       -0.0158
     38 C          14.7314    0.8593    0.1342 C.ar    1  LIG1       -0.0485
     39 H          14.4149   -0.9680    1.2056 H       1  LIG1        0.0618
     40 C          12.7411    2.0700   -0.4829 C.ar    1  LIG1       -0.0408
     41 C          14.1290    1.9580   -0.4774 C.ar    1  LIG1        0.0053
     42 H          12.2648    2.9103   -0.9764 H       1  LIG1        0.0635
     43 H          15.8127    0.7700    0.1479 H       1  LIG1        0.0628
     44 H          11.9467   -0.7569    1.2101 H       1  LIG1        0.0624
     45 S          15.1851    3.1598   -1.2555 S.3     1  LIG1       -0.1426
     46 H          14.2393    4.0852   -1.4800 H       1  LIG1        0.1071
@<TRIPOS>BOND
     1    23    22    1
     2    46    45    1
     3    22    19    1
     4    45    41    1
     5    10     1    1
     6    20    18    1
     7     5     2    1
     8    42    40    1
     9    32    24    1
    10    28    25    1
    11     1     2   ar
    12     1     3   ar
    13    19    18   ar
    14    19    16   ar
    15    18    15   ar
    16     2     4   ar
    17    24    25   ar
    18    24    26   ar
    19    40    41   ar
    20    40    37   ar
    21    41    38   ar
    22    25    27   ar
    23     9     3    1
    24     3     6   ar
    25     4    15    1
    26     4     7   ar
    27    16    26    1
    28    16    14   ar
    29    15    13   ar
    30    26    29   ar
    31    27    37    1
    32    27    30   ar
    33    37    35   ar
    34    38    43    1
    35    38    36   ar
    36     6     7   ar
    37     6     8    1
    38     7    11    1
    39    14    13   ar
    40    14    17    1
    41    13    21    1
    42    29    30   ar
    43    29    31    1
    44    30    33    1
    45    36    35   ar
    46    36    39    1
    47    35    44    1
    48    11    12    1
    49    33    34    1
