@<TRIPOS>MOLECULE
mol_data/opt/cam/geoms/mol2/4ag4ag4ag.out
 35 37 0 0 0
SMALL
GASTEIGER

@<TRIPOS>ATOM
      1 C          -0.0145    0.5206    1.3303 C.ar    1  LIG1       -0.0611
      2 C           1.3627    0.5688    1.1756 C.ar    1  LIG1       -0.0530
      3 C          -0.8235    1.2049    0.4327 C.ar    1  LIG1       -0.0607
      4 C           1.9611    1.2884    0.1382 C.ar    1  LIG1       -0.0047
      5 H           2.0063    0.0492    1.8782 H       1  LIG1        0.0624
      6 C          -0.2527    1.9218   -0.6084 C.ar    1  LIG1       -0.0480
      7 C           1.1326    1.9666   -0.7705 C.ar    1  LIG1        0.0124
      8 H          -0.8940    2.4471   -1.3087 H       1  LIG1        0.0629
      9 H          -1.9032    1.1825    0.5379 H       1  LIG1        0.0618
     10 H          -0.4514   -0.0426    2.1477 H       1  LIG1        0.0618
     11 S           1.8610    2.8432   -2.1445 S.3     1  LIG1       -0.1420
     12 H           0.6979    3.1249   -2.7527 H       1  LIG1        0.1071
     13 C           4.1505    0.0909   -0.0409 C.ar    1  LIG1       -0.0534
     14 C           5.5341    0.1010   -0.1012 C.ar    1  LIG1       -0.0524
     15 C           3.4455    1.2923    0.0333 C.ar    1  LIG1       -0.0158
     16 C           6.2645    1.2912   -0.0911 C.ar    1  LIG1       -0.0047
     17 H           6.0781   -0.8366   -0.1515 H       1  LIG1        0.0624
     18 C           4.1633    2.4865    0.0493 C.ar    1  LIG1       -0.0402
     19 C           5.5556    2.5008   -0.0230 C.ar    1  LIG1        0.0130
     20 H           3.6213    3.4230    0.1249 H       1  LIG1        0.0635
     21 H           3.6100   -0.8493   -0.0596 H       1  LIG1        0.0624
     22 S           6.4410    4.0499   -0.0577 S.3     1  LIG1       -0.1420
     23 H           5.3521    4.8197   -0.2120 H       1  LIG1        0.1071
     24 C           8.3671    0.5352   -1.2096 C.ar    1  LIG1       -0.0539
     25 C           9.7515    0.4455   -1.2629 C.ar    1  LIG1       -0.0602
     26 C           7.7490    1.2251   -0.1654 C.ar    1  LIG1       -0.0158
     27 C          10.5363    1.0406   -0.2853 C.ar    1  LIG1       -0.0485
     28 H          10.2274   -0.0840   -2.0818 H       1  LIG1        0.0618
     29 C           8.5404    1.8080    0.8257 C.ar    1  LIG1       -0.0408
     30 C           9.9292    1.7247    0.7667 C.ar    1  LIG1        0.0053
     31 H           8.0616    2.3161    1.6560 H       1  LIG1        0.0635
     32 H          11.6182    0.9787   -0.3409 H       1  LIG1        0.0628
     33 H           7.7581    0.0848   -1.9860 H       1  LIG1        0.0624
     34 S          10.9800    2.4363    2.0139 S.3     1  LIG1       -0.1426
     35 H          10.0362    3.1745    2.6187 H       1  LIG1        0.1071
@<TRIPOS>BOND
     1    12    11    1
     2    11     7    1
     3    28    25    1
     4    33    24    1
     5     8     6    1
     6    25    24   ar
     7    25    27   ar
     8    24    26   ar
     9     7     6   ar
    10     7     4   ar
    11     6     3   ar
    12    32    27    1
    13    27    30   ar
    14    23    22    1
    15    26    16    1
    16    26    29   ar
    17    17    14    1
    18    14    16   ar
    19    14    13   ar
    20    16    19   ar
    21    21    13    1
    22    22    19    1
    23    13    15   ar
    24    19    18   ar
    25    15    18   ar
    26    15     4    1
    27    18    20    1
    28     4     2   ar
    29     3     9    1
    30     3     1   ar
    31    30    29   ar
    32    30    34    1
    33    29    31    1
    34     2     1   ar
    35     2     5    1
    36     1    10    1
    37    34    35    1
