@<TRIPOS>MOLECULE
mol_data/opt/cam/geoms/mol2/4ag4ag-4ag.out
 35 37 0 0 0
SMALL
GASTEIGER

@<TRIPOS>ATOM
      1 C          -0.1011    0.0248   -0.4102 C.ar    1  LIG1       -0.0611
      2 C           1.2836    0.0961   -0.3916 C.ar    1  LIG1       -0.0530
      3 C          -0.8438    1.1316   -0.0204 C.ar    1  LIG1       -0.0607
      4 C           1.9549    1.2538    0.0101 C.ar    1  LIG1       -0.0047
      5 H           1.8752   -0.7575   -0.7065 H       1  LIG1        0.0624
      6 C          -0.1998    2.2903    0.3874 C.ar    1  LIG1       -0.0480
      7 C           1.1936    2.3628    0.4131 C.ar    1  LIG1        0.0124
      8 H          -0.7892    3.1474    0.6969 H       1  LIG1        0.0629
      9 H          -1.9283    1.0976   -0.0304 H       1  LIG1        0.0618
     10 H          -0.5954   -0.8856   -0.7311 H       1  LIG1        0.0618
     11 S           2.0183    3.8368    0.9910 S.3     1  LIG1       -0.1420
     12 H           0.9017    4.4612    1.3979 H       1  LIG1        0.1071
     13 C           4.1508    0.2801    0.7092 C.ar    1  LIG1       -0.0534
     14 C           5.5355    0.2690    0.6766 C.ar    1  LIG1       -0.0524
     15 C           3.4430    1.2554    0.0066 C.ar    1  LIG1       -0.0158
     16 C           6.2638    1.2148   -0.0477 C.ar    1  LIG1       -0.0047
     17 H           6.0817   -0.4799    1.2408 H       1  LIG1        0.0624
     18 C           4.1585    2.1959   -0.7321 C.ar    1  LIG1       -0.0402
     19 C           5.5520    2.1868   -0.7682 C.ar    1  LIG1        0.0130
     20 H           3.6125    2.9366   -1.3065 H       1  LIG1        0.0635
     21 H           3.6127   -0.4570    1.2955 H       1  LIG1        0.0624
     22 S           6.4399    3.3680   -1.7682 S.3     1  LIG1       -0.1420
     23 H           5.3473    3.9444   -2.2934 H       1  LIG1        0.1071
     24 C           8.3950   -0.0362   -0.4186 C.ar    1  LIG1       -0.0539
     25 C           9.7806   -0.1174   -0.3772 C.ar    1  LIG1       -0.0602
     26 C           7.7502    1.1413   -0.0370 C.ar    1  LIG1       -0.0158
     27 C          10.5394    0.9668    0.0398 C.ar    1  LIG1       -0.0485
     28 H          10.2776   -1.0322   -0.6829 H       1  LIG1        0.0618
     29 C           8.5154    2.2252    0.3969 C.ar    1  LIG1       -0.0408
     30 C           9.9050    2.1451    0.4313 C.ar    1  LIG1        0.0053
     31 H           8.0143    3.1306    0.7220 H       1  LIG1        0.0635
     32 H          11.6224    0.9006    0.0578 H       1  LIG1        0.0628
     33 H           7.8063   -0.8804   -0.7609 H       1  LIG1        0.0624
     34 S          10.9236    3.4923    0.9904 S.3     1  LIG1       -0.1426
     35 H           9.9562    4.4217    1.0281 H       1  LIG1        0.1071
@<TRIPOS>BOND
     1    23    22    1
     2    22    19    1
     3    20    18    1
     4    19    18   ar
     5    19    16   ar
     6    33    24    1
     7    18    15   ar
     8    10     1    1
     9     5     2    1
    10    28    25    1
    11    24    25   ar
    12    24    26   ar
    13     1     2   ar
    14     1     3   ar
    15     2     4   ar
    16    25    27   ar
    17    16    26    1
    18    16    14   ar
    19    26    29   ar
    20     9     3    1
    21     3     6   ar
    22    15     4    1
    23    15    13   ar
    24     4     7   ar
    25    27    32    1
    26    27    30   ar
    27     6     7   ar
    28     6     8    1
    29    29    30   ar
    30    29    31    1
    31     7    11    1
    32    30    34    1
    33    14    13   ar
    34    14    17    1
    35    13    21    1
    36    34    35    1
    37    11    12    1
