@<TRIPOS>MOLECULE
mol_data/opt/cam/geoms/mol2/4ag4ag-4ag-4ag-.out
 46 49 0 0 0
SMALL
GASTEIGER

@<TRIPOS>ATOM
      1 C          -0.1602   -0.0001   -0.6986 C.ar    1  LIG1       -0.0611
      2 C           1.2211    0.1088   -0.6437 C.ar    1  LIG1       -0.0530
      3 C          -0.9436    1.0193   -0.1736 C.ar    1  LIG1       -0.0607
      4 C           1.8488    1.2187   -0.0726 C.ar    1  LIG1       -0.0047
      5 H           1.8442   -0.6748   -1.0626 H       1  LIG1        0.0624
      6 C          -0.3432    2.1286    0.4031 C.ar    1  LIG1       -0.0480
      7 C           1.0466    2.2379    0.4655 C.ar    1  LIG1        0.0124
      8 H          -0.9643    2.9164    0.8170 H       1  LIG1        0.0629
      9 H          -2.0262    0.9550   -0.2090 H       1  LIG1        0.0618
     10 H          -0.6204   -0.8713   -1.1519 H       1  LIG1        0.0618
     11 S           1.8152    3.6408    1.2580 S.3     1  LIG1       -0.1420
     12 H           0.6735    4.1698    1.7260 H       1  LIG1        0.1071
     13 C           4.0642    0.2227    0.5262 C.ar    1  LIG1       -0.0534
     14 C           5.4488    0.2588    0.5206 C.ar    1  LIG1       -0.0524
     15 C           3.3359    1.2652   -0.0472 C.ar    1  LIG1       -0.0158
     16 C           6.1569    1.3188   -0.0495 C.ar    1  LIG1       -0.0047
     17 H           6.0102   -0.5447    0.9861 H       1  LIG1        0.0624
     18 C           4.0315    2.3211   -0.6331 C.ar    1  LIG1       -0.0402
     19 C           5.4249    2.3596   -0.6427 C.ar    1  LIG1        0.0130
     20 H           3.4700    3.1180   -1.1089 H       1  LIG1        0.0635
     21 H           3.5415   -0.6052    0.9928 H       1  LIG1        0.0624
     22 S           6.2878    3.6947   -1.4529 S.3     1  LIG1       -0.1420
     23 H           5.1847    4.3027   -1.9170 H       1  LIG1        0.1071
     24 C           8.3374    0.1901   -0.5249 C.ar    1  LIG1       -0.0534
     25 C           9.7208    0.1546   -0.4649 C.ar    1  LIG1       -0.0524
     26 C           7.6438    1.2890   -0.0176 C.ar    1  LIG1       -0.0158
     27 C          10.4613    1.1971    0.0956 C.ar    1  LIG1       -0.0047
     28 H          10.2566   -0.6934   -0.8787 H       1  LIG1        0.0624
     29 C           8.3712    2.3290    0.5584 C.ar    1  LIG1       -0.0402
     30 C           9.7633    2.2958    0.6216 C.ar    1  LIG1        0.0130
     31 H           7.8351    3.1709    0.9828 H       1  LIG1        0.0635
     32 H           7.7900   -0.6265   -0.9831 H       1  LIG1        0.0624
     33 S          10.6661    3.6144    1.4147 S.3     1  LIG1       -0.1420
     34 H           9.5810    4.2959    1.8147 H       1  LIG1        0.1071
     35 C          12.5569   -0.0123    0.7210 C.ar    1  LIG1       -0.0539
     36 C          13.9406   -0.1282    0.7195 C.ar    1  LIG1       -0.0602
     37 C          11.9455    1.0916    0.1249 C.ar    1  LIG1       -0.0158
     38 C          14.7306    0.8484    0.1302 C.ar    1  LIG1       -0.0485
     39 H          14.4116   -0.9841    1.1918 H       1  LIG1        0.0618
     40 C          12.7420    2.0649   -0.4807 C.ar    1  LIG1       -0.0408
     41 C          14.1297    1.9511   -0.4757 C.ar    1  LIG1        0.0053
     42 H          12.2668    2.9084   -0.9698 H       1  LIG1        0.0635
     43 H          15.8118    0.7576    0.1435 H       1  LIG1        0.0628
     44 H          11.9437   -0.7697    1.1972 H       1  LIG1        0.0624
     45 S          15.1874    3.1556   -1.2473 S.3     1  LIG1       -0.1426
     46 H          14.2429    4.0835   -1.4670 H       1  LIG1        0.1071
@<TRIPOS>BOND
     1    23    22    1
     2    46    45    1
     3    22    19    1
     4    45    41    1
     5    10     1    1
     6    20    18    1
     7     5     2    1
     8    32    24    1
     9    42    40    1
    10    28    25    1
    11     1     2   ar
    12     1     3   ar
    13     2     4   ar
    14    19    18   ar
    15    19    16   ar
    16    18    15   ar
    17    24    25   ar
    18    24    26   ar
    19    40    41   ar
    20    40    37   ar
    21    41    38   ar
    22    25    27   ar
    23     9     3    1
    24     3     6   ar
    25     4    15    1
    26     4     7   ar
    27    16    26    1
    28    16    14   ar
    29    15    13   ar
    30    26    29   ar
    31    27    37    1
    32    27    30   ar
    33    37    35   ar
    34    38    43    1
    35    38    36   ar
    36     6     7   ar
    37     6     8    1
    38     7    11    1
    39    14    13   ar
    40    14    17    1
    41    13    21    1
    42    29    30   ar
    43    29    31    1
    44    30    33    1
    45    36    35   ar
    46    36    39    1
    47    35    44    1
    48    11    12    1
    49    33    34    1
