@<TRIPOS>MOLECULE
mol_data/opt/cam/geoms/mol2/4ag4ag-.out
 24 25 0 0 0
SMALL
GASTEIGER

@<TRIPOS>ATOM
      1 C           0.0232    0.1269   -0.7495 C.ar    1  LIG1       -0.0611
      2 C           1.4036    0.1578   -0.6200 C.ar    1  LIG1       -0.0530
      3 C          -0.7267    1.2018   -0.2906 C.ar    1  LIG1       -0.0607
      4 C           2.0632    1.2433   -0.0383 C.ar    1  LIG1       -0.0047
      5 H           2.0019   -0.6700   -0.9867 H       1  LIG1        0.0624
      6 C          -0.0946    2.2887    0.2950 C.ar    1  LIG1       -0.0480
      7 C           1.2938    2.3197    0.4320 C.ar    1  LIG1        0.0124
      8 H          -0.6900    3.1208    0.6569 H       1  LIG1        0.0629
      9 H          -1.8076    1.1988   -0.3850 H       1  LIG1        0.0618
     10 H          -0.4617   -0.7272   -1.2095 H       1  LIG1        0.0618
     11 S           2.0996    3.6956    1.2349 S.3     1  LIG1       -0.1420
     12 H           0.9670    4.3035    1.6222 H       1  LIG1        0.1071
     13 C           4.1760    0.1408    0.7162 C.ar    1  LIG1       -0.0539
     14 C           5.5616    0.0884    0.7885 C.ar    1  LIG1       -0.0602
     15 C           3.5475    1.2060    0.0693 C.ar    1  LIG1       -0.0158
     16 C           6.3370    1.0915    0.2244 C.ar    1  LIG1       -0.0485
     17 H           6.0451   -0.7374    1.3001 H       1  LIG1        0.0618
     18 C           4.3305    2.2045   -0.5121 C.ar    1  LIG1       -0.0408
     19 C           5.7198    2.1556   -0.4317 C.ar    1  LIG1        0.0053
     20 H           3.8450    3.0165   -1.0430 H       1  LIG1        0.0635
     21 H           7.4189    1.0517    0.2970 H       1  LIG1        0.0628
     22 H           3.5732   -0.6362    1.1738 H       1  LIG1        0.0624
     23 S           6.7607    3.3953   -1.1704 S.3     1  LIG1       -0.1426
     24 H           5.7931    4.2920   -1.4177 H       1  LIG1        0.1071
@<TRIPOS>BOND
     1    24    23    1
     2    10     1    1
     3    23    19    1
     4    20    18    1
     5     5     2    1
     6     1     2   ar
     7     1     3   ar
     8     2     4   ar
     9    18    19   ar
    10    18    15   ar
    11    19    16   ar
    12     9     3    1
    13     3     6   ar
    14     4    15    1
    15     4     7   ar
    16    15    13   ar
    17    16    21    1
    18    16    14   ar
    19     6     7   ar
    20     6     8    1
    21     7    11    1
    22    13    14   ar
    23    13    22    1
    24    14    17    1
    25    11    12    1
