@<TRIPOS>MOLECULE
mol_data/opt/cam/geoms/mol2/4ag4ag-4ag-4ag.out
 46 49 0 0 0
SMALL
GASTEIGER

@<TRIPOS>ATOM
      1 C          -0.1929    1.3596   -1.3177 C.ar    1  LIG1       -0.0611
      2 C           1.1914    1.3730   -1.2351 C.ar    1  LIG1       -0.0530
      3 C          -0.9428    1.3209   -0.1497 C.ar    1  LIG1       -0.0607
      4 C           1.8545    1.3494   -0.0056 C.ar    1  LIG1       -0.0047
      5 H           1.7887    1.3881   -2.1412 H       1  LIG1        0.0624
      6 C          -0.3069    1.3014    1.0828 C.ar    1  LIG1       -0.0480
      7 C           1.0857    1.3212    1.1692 C.ar    1  LIG1        0.0124
      8 H          -0.9022    1.2775    1.9899 H       1  LIG1        0.0629
      9 H          -2.0269    1.3067   -0.1924 H       1  LIG1        0.0618
     10 H          -0.6809    1.3737   -2.2861 H       1  LIG1        0.0618
     11 S           1.9002    1.3507    2.7569 S.3     1  LIG1       -0.1420
     12 H           0.7774    1.4978    3.4780 H       1  LIG1        0.1071
     13 C           4.0813    0.3563    0.6243 C.ar    1  LIG1       -0.0534
     14 C           5.4656    0.3877    0.5820 C.ar    1  LIG1       -0.0524
     15 C           3.3425    1.3671    0.0087 C.ar    1  LIG1       -0.0158
     16 C           6.1626    1.4091   -0.0667 C.ar    1  LIG1       -0.0047
     17 H           6.0354   -0.4101    1.0470 H       1  LIG1        0.0624
     18 C           4.0272    2.3920   -0.6415 C.ar    1  LIG1       -0.0402
     19 C           5.4198    2.4299   -0.6807 C.ar    1  LIG1        0.0130
     20 H           3.4526    3.1856   -1.1081 H       1  LIG1        0.0635
     21 H           3.5727   -0.4634    1.1191 H       1  LIG1        0.0624
     22 S           6.2683    3.7893   -1.4667 S.3     1  LIG1       -0.1420
     23 H           5.1672    4.5269   -1.6803 H       1  LIG1        0.1071
     24 C           8.3508    1.3024    1.1382 C.ar    1  LIG1       -0.0534
     25 C           9.7344    1.2384    1.1317 C.ar    1  LIG1       -0.0524
     26 C           7.6496    1.3783   -0.0654 C.ar    1  LIG1       -0.0158
     27 C          10.4677    1.2472   -0.0567 C.ar    1  LIG1       -0.0047
     28 H          10.2748    1.1719    2.0704 H       1  LIG1        0.0624
     29 C           8.3701    1.3824   -1.2582 C.ar    1  LIG1       -0.0402
     30 C           9.7633    1.3288   -1.2680 C.ar    1  LIG1        0.0130
     31 H           7.8296    1.4220   -2.1978 H       1  LIG1        0.0635
     32 H           7.8084    1.3028    2.0775 H       1  LIG1        0.0624
     33 S          10.6599    1.3887   -2.8091 S.3     1  LIG1       -0.1420
     34 H           9.5964    1.6999   -3.5671 H       1  LIG1        0.1071
     35 C          12.6634    0.1578   -0.6190 C.ar    1  LIG1       -0.0539
     36 C          14.0468    0.1024   -0.5074 C.ar    1  LIG1       -0.0602
     37 C          11.9527    1.1805    0.0108 C.ar    1  LIG1       -0.0158
     38 C          14.7370    1.0553    0.2274 C.ar    1  LIG1       -0.0485
     39 H          14.5952   -0.6962   -0.9960 H       1  LIG1        0.0618
     40 C          12.6493    2.1337    0.7557 C.ar    1  LIG1       -0.0408
     41 C          14.0359    2.0782    0.8651 C.ar    1  LIG1        0.0053
     42 H          12.0930    2.9297    1.2402 H       1  LIG1        0.0635
     43 H          15.8184    1.0069    0.3044 H       1  LIG1        0.0628
     44 H          12.1318   -0.6003   -1.1831 H       1  LIG1        0.0624
     45 S          14.9706    3.2676    1.8015 S.3     1  LIG1       -0.1426
     46 H          13.9437    4.0754    2.1087 H       1  LIG1        0.1071
@<TRIPOS>BOND
     1    34    33    1
     2    33    30    1
     3    10     1    1
     4    31    29    1
     5     5     2    1
     6    23    22    1
     7    22    19    1
     8     1     2   ar
     9     1     3   ar
    10    30    29   ar
    11    30    27   ar
    12    29    26   ar
    13     2     4   ar
    14    44    35    1
    15    20    18    1
    16    39    36    1
    17    19    18   ar
    18    19    16   ar
    19    18    15   ar
    20    35    36   ar
    21    35    37   ar
    22    36    38   ar
    23     9     3    1
    24     3     6   ar
    25    16    26    1
    26    16    14   ar
    27    26    24   ar
    28    27    37    1
    29    27    25   ar
    30     4    15    1
    31     4     7   ar
    32    15    13   ar
    33    37    40   ar
    34    38    43    1
    35    38    41   ar
    36    14    13   ar
    37    14    17    1
    38    13    21    1
    39    40    41   ar
    40    40    42    1
    41    41    45    1
    42     6     7   ar
    43     6     8    1
    44    25    24   ar
    45    25    28    1
    46    24    32    1
    47     7    11    1
    48    45    46    1
    49    11    12    1
