@<TRIPOS>MOLECULE
mol_data/opt/cam/geoms/mol2/4ag4ag-4ag4ag.out
 46 49 0 0 0
SMALL
GASTEIGER

@<TRIPOS>ATOM
      1 C          -0.1609    0.0032   -0.6958 C.ar    1  LIG1       -0.0611
      2 C           1.2204    0.1120   -0.6421 C.ar    1  LIG1       -0.0530
      3 C          -0.9438    1.0187   -0.1624 C.ar    1  LIG1       -0.0607
      4 C           1.8487    1.2180   -0.0641 C.ar    1  LIG1       -0.0047
      5 H           1.8431   -0.6685   -1.0674 H       1  LIG1        0.0624
      6 C          -0.3428    2.1240    0.4212 C.ar    1  LIG1       -0.0480
      7 C           1.0471    2.2332    0.4823 C.ar    1  LIG1        0.0124
      8 H          -0.9634    2.9088    0.8415 H       1  LIG1        0.0629
      9 H          -2.0263    0.9544   -0.1968 H       1  LIG1        0.0618
     10 H          -0.6215   -0.8649   -1.1546 H       1  LIG1        0.0618
     11 S           1.8165    3.6306    1.2836 S.3     1  LIG1       -0.1420
     12 H           0.6755    4.1561    1.7569 H       1  LIG1        0.1071
     13 C           4.0652    0.2184    0.5243 C.ar    1  LIG1       -0.0534
     14 C           5.4498    0.2548    0.5170 C.ar    1  LIG1       -0.0524
     15 C           3.3358    1.2646   -0.0406 C.ar    1  LIG1       -0.0158
     16 C           6.1569    1.3189   -0.0466 C.ar    1  LIG1       -0.0047
     17 H           6.0121   -0.5518    0.9761 H       1  LIG1        0.0624
     18 C           4.0303    2.3249   -0.6201 C.ar    1  LIG1       -0.0402
     19 C           5.4237    2.3638   -0.6314 C.ar    1  LIG1        0.0130
     20 H           3.4680    3.1249   -1.0895 H       1  LIG1        0.0635
     21 H           3.5435   -0.6130    0.9859 H       1  LIG1        0.0624
     22 S           6.2851    3.7047   -1.4334 S.3     1  LIG1       -0.1420
     23 H           5.1813    4.3157   -1.8917 H       1  LIG1        0.1071
     24 C           8.3369    0.1941   -0.5332 C.ar    1  LIG1       -0.0534
     25 C           9.7204    0.1585   -0.4754 C.ar    1  LIG1       -0.0524
     26 C           7.6438    1.2893   -0.0172 C.ar    1  LIG1       -0.0158
     27 C          10.4615    1.1972    0.0913 C.ar    1  LIG1       -0.0047
     28 H          10.2558   -0.6864   -0.8960 H       1  LIG1        0.0624
     29 C           8.3718    2.3254    0.5651 C.ar    1  LIG1       -0.0402
     30 C           9.7640    2.2920    0.6260 C.ar    1  LIG1        0.0130
     31 H           7.8362    3.1642    0.9962 H       1  LIG1        0.0635
     32 H           7.7890   -0.6194   -0.9963 H       1  LIG1        0.0624
     33 S          10.6677    3.6052    1.4271 S.3     1  LIG1       -0.1420
     34 H           9.5830    4.2836    1.8334 H       1  LIG1        0.1071
     35 C          12.5583   -0.0160    0.7051 C.ar    1  LIG1       -0.0539
     36 C          13.9420   -0.1316    0.7008 C.ar    1  LIG1       -0.0602
     37 C          11.9457    1.0919    0.1176 C.ar    1  LIG1       -0.0158
     38 C          14.7309    0.8493    0.1171 C.ar    1  LIG1       -0.0485
     39 H          14.4139   -0.9907    1.1663 H       1  LIG1        0.0618
     40 C          12.7411    2.0696   -0.4822 C.ar    1  LIG1       -0.0408
     41 C          14.1288    1.9561   -0.4801 C.ar    1  LIG1        0.0053
     42 H          12.2650    2.9165   -0.9647 H       1  LIG1        0.0635
     43 H          15.8122    0.7587    0.1282 H       1  LIG1        0.0628
     44 H          11.9459   -0.7770    1.1769 H       1  LIG1        0.0624
     45 S          15.1852    3.1663   -1.2448 S.3     1  LIG1       -0.1426
     46 H          14.2401    4.0955   -1.4564 H       1  LIG1        0.1071
@<TRIPOS>BOND
     1    23    22    1
     2    46    45    1
     3    22    19    1
     4    45    41    1
     5    10     1    1
     6    20    18    1
     7     5     2    1
     8    32    24    1
     9    42    40    1
    10    28    25    1
    11     1     2   ar
    12     1     3   ar
    13     2     4   ar
    14    19    18   ar
    15    19    16   ar
    16    18    15   ar
    17    24    25   ar
    18    24    26   ar
    19    40    41   ar
    20    40    37   ar
    21    41    38   ar
    22    25    27   ar
    23     9     3    1
    24     3     6   ar
    25     4    15    1
    26     4     7   ar
    27    16    26    1
    28    16    14   ar
    29    15    13   ar
    30    26    29   ar
    31    27    37    1
    32    27    30   ar
    33    38    43    1
    34    38    36   ar
    35    37    35   ar
    36     6     7   ar
    37     6     8    1
    38     7    11    1
    39    14    13   ar
    40    14    17    1
    41    13    21    1
    42    29    30   ar
    43    29    31    1
    44    30    33    1
    45    36    35   ar
    46    36    39    1
    47    35    44    1
    48    11    12    1
    49    33    34    1
