@<TRIPOS>MOLECULE
mol_data/opt/cam/geoms/mol2/4ag4ag4ag4ag-.out
 46 49 0 0 0
SMALL
GASTEIGER

@<TRIPOS>ATOM
      1 C          -0.1475    0.5151    1.2736 C.ar    1  LIG1       -0.0611
      2 C           1.2327    0.5861    1.1595 C.ar    1  LIG1       -0.0530
      3 C          -0.9413    1.1372    0.3189 C.ar    1  LIG1       -0.0607
      4 C           1.8488    1.2683    0.1074 C.ar    1  LIG1       -0.0047
      5 H           1.8641    0.1151    1.9060 H       1  LIG1        0.0624
      6 C          -0.3524    1.8156   -0.7379 C.ar    1  LIG1       -0.0480
      7 C           1.0362    1.8836   -0.8585 C.ar    1  LIG1        0.0124
      8 H          -0.9816    2.2920   -1.4827 H       1  LIG1        0.0629
      9 H          -2.0231    1.0959    0.3914 H       1  LIG1        0.0618
     10 H          -0.5988   -0.0177    2.1035 H       1  LIG1        0.0618
     11 S           1.7909    2.7095   -2.2497 S.3     1  LIG1       -0.1420
     12 H           0.6424    2.9402   -2.9054 H       1  LIG1        0.1071
     13 C           4.0671    0.1125    0.0505 C.ar    1  LIG1       -0.0534
     14 C           5.4514    0.1503    0.0343 C.ar    1  LIG1       -0.0524
     15 C           3.3354    1.3003    0.0487 C.ar    1  LIG1       -0.0158
     16 C           6.1564    1.3557    0.0153 C.ar    1  LIG1       -0.0047
     17 H           6.0156   -0.7766    0.0434 H       1  LIG1        0.0624
     18 C           4.0277    2.5095    0.0341 C.ar    1  LIG1       -0.0402
     19 C           5.4210    2.5514    0.0060 C.ar    1  LIG1        0.0130
     20 H           3.4644    3.4362    0.0501 H       1  LIG1        0.0635
     21 H           3.5469   -0.8393    0.0563 H       1  LIG1        0.0624
     22 S           6.2750    4.1166   -0.0696 S.3     1  LIG1       -0.1420
     23 H           5.1768    4.8540   -0.2982 H       1  LIG1        0.1071
     24 C           8.3153    0.5939   -0.9913 C.ar    1  LIG1       -0.0534
     25 C           9.6993    0.5400   -0.9891 C.ar    1  LIG1       -0.0524
     26 C           7.6430    1.3183   -0.0068 C.ar    1  LIG1       -0.0158
     27 C          10.4618    1.1942   -0.0194 C.ar    1  LIG1       -0.0047
     28 H          10.2181   -0.0074   -1.7694 H       1  LIG1        0.0624
     29 C           8.3924    1.9633    0.9754 C.ar    1  LIG1       -0.0402
     30 C           9.7853    1.9091    0.9816 C.ar    1  LIG1        0.0130
     31 H           7.8738    2.5003    1.7624 H       1  LIG1        0.0635
     32 H           7.7508    0.0912   -1.7691 H       1  LIG1        0.0624
     33 S          10.7164    2.6957    2.2847 S.3     1  LIG1       -0.1420
     34 H           9.6462    3.1062    2.9833 H       1  LIG1        0.1071
     35 C          12.5601   -0.1604   -0.1033 C.ar    1  LIG1       -0.0539
     36 C          13.9423   -0.2573   -0.1937 C.ar    1  LIG1       -0.0602
     37 C          11.9453    1.0924   -0.0806 C.ar    1  LIG1       -0.0158
     38 C          14.7276    0.8847   -0.2595 C.ar    1  LIG1       -0.0485
     39 H          14.4161   -1.2334   -0.2028 H       1  LIG1        0.0618
     40 C          12.7368    2.2393   -0.1627 C.ar    1  LIG1       -0.0408
     41 C          14.1232    2.1411   -0.2459 C.ar    1  LIG1        0.0053
     42 H          12.2583    3.2126   -0.1751 H       1  LIG1        0.0635
     43 H          15.8080    0.8017   -0.3177 H       1  LIG1        0.0628
     44 H          11.9510   -1.0554   -0.0354 H       1  LIG1        0.0624
     45 S          15.1741    3.5715   -0.3663 S.3     1  LIG1       -0.1426
     46 H          14.2303    4.4881   -0.1011 H       1  LIG1        0.1071
@<TRIPOS>BOND
     1    12    11    1
     2    11     7    1
     3    28    25    1
     4    32    24    1
     5     8     6    1
     6    24    25   ar
     7    24    26   ar
     8    25    27   ar
     9     7     6   ar
    10     7     4   ar
    11     6     3   ar
    12    45    41    1
    13    45    46    1
    14    43    38    1
    15    23    22    1
    16    38    41   ar
    17    38    36   ar
    18    41    40   ar
    19    39    36    1
    20    36    35   ar
    21    42    40    1
    22    40    37   ar
    23    35    37   ar
    24    35    44    1
    25    37    27    1
    26    22    19    1
    27    27    30   ar
    28    26    16    1
    29    26    29   ar
    30    19    16   ar
    31    19    18   ar
    32    16    14   ar
    33    18    15   ar
    34    18    20    1
    35    14    17    1
    36    14    13   ar
    37    15    13   ar
    38    15     4    1
    39    13    21    1
    40     4     2   ar
    41     3     9    1
    42     3     1   ar
    43    29    30   ar
    44    29    31    1
    45    30    33    1
    46     2     1   ar
    47     2     5    1
    48     1    10    1
    49    33    34    1
