@<TRIPOS>MOLECULE
mol_data/opt/cam/geoms/mol2/4ag4ag4ag-4ag.out
 46 49 0 0 0
SMALL
GASTEIGER

@<TRIPOS>ATOM
      1 C          -0.1598   -0.0042    0.6990 C.ar    1  LIG1       -0.0611
      2 C           1.2215    0.1061    0.6464 C.ar    1  LIG1       -0.0530
      3 C          -0.9434    1.0096    0.1635 C.ar    1  LIG1       -0.0607
      4 C           1.8490    1.2120    0.0673 C.ar    1  LIG1       -0.0047
      5 H           1.8447   -0.6730    1.0734 H       1  LIG1        0.0624
      6 C          -0.3432    2.1148   -0.4211 C.ar    1  LIG1       -0.0480
      7 C           1.0466    2.2255   -0.4813 C.ar    1  LIG1        0.0124
      8 H          -0.9644    2.8982   -0.8431 H       1  LIG1        0.0629
      9 H          -2.0259    0.9440    0.1971 H       1  LIG1        0.0618
     10 H          -0.6198   -0.8722    1.1587 H       1  LIG1        0.0618
     11 S           1.8151    3.6227   -1.2838 S.3     1  LIG1       -0.1420
     12 H           0.6738    4.1461   -1.7589 H       1  LIG1        0.1071
     13 C           4.0671    0.2141   -0.5177 C.ar    1  LIG1       -0.0534
     14 C           5.4516    0.2522   -0.5092 C.ar    1  LIG1       -0.0524
     15 C           3.3360    1.2604    0.0450 C.ar    1  LIG1       -0.0158
     16 C           6.1570    1.3180    0.0534 C.ar    1  LIG1       -0.0047
     17 H           6.0153   -0.5544   -0.9666 H       1  LIG1        0.0624
     18 C           4.0288    2.3223    0.6236 C.ar    1  LIG1       -0.0402
     19 C           5.4221    2.3628    0.6361 C.ar    1  LIG1        0.0130
     20 H           3.4651    3.1223    1.0913 H       1  LIG1        0.0635
     21 H           3.5467   -0.6185   -0.9785 H       1  LIG1        0.0624
     22 S           6.2812    3.7059    1.4369 S.3     1  LIG1       -0.1420
     23 H           5.1763    4.3163    1.8933 H       1  LIG1        0.1071
     24 C           8.3379    0.1965    0.5435 C.ar    1  LIG1       -0.0534
     25 C           9.7215    0.1624    0.4870 C.ar    1  LIG1       -0.0524
     26 C           7.6440    1.2901    0.0253 C.ar    1  LIG1       -0.0158
     27 C          10.4618    1.2012   -0.0806 C.ar    1  LIG1       -0.0047
     28 H          10.2576   -0.6813    0.9093 H       1  LIG1        0.0624
     29 C           8.3713    2.3262   -0.5579 C.ar    1  LIG1       -0.0402
     30 C           9.7635    2.2943   -0.6175 C.ar    1  LIG1        0.0130
     31 H           7.8350    3.1637   -0.9906 H       1  LIG1        0.0635
     32 H           7.7906   -0.6170    1.0074 H       1  LIG1        0.0624
     33 S          10.6664    3.6075   -1.4198 S.3     1  LIG1       -0.1420
     34 H           9.5812    4.2840   -1.8280 H       1  LIG1        0.1071
     35 C          12.5606   -0.0105   -0.6908 C.ar    1  LIG1       -0.0539
     36 C          13.9445   -0.1245   -0.6851 C.ar    1  LIG1       -0.0602
     37 C          11.9462    1.0975   -0.1055 C.ar    1  LIG1       -0.0158
     38 C          14.7317    0.8583   -0.1022 C.ar    1  LIG1       -0.0485
     39 H          14.4178   -0.9836   -1.1490 H       1  LIG1        0.0618
     40 C          12.7400    2.0771    0.4936 C.ar    1  LIG1       -0.0408
     41 C          14.1278    1.9652    0.4928 C.ar    1  LIG1        0.0053
     42 H          12.2624    2.9241    0.9744 H       1  LIG1        0.0635
     43 H          15.8131    0.7689   -0.1122 H       1  LIG1        0.0628
     44 H          11.9496   -0.7729   -1.1620 H       1  LIG1        0.0624
     45 S          15.1821    3.1777    1.2567 S.3     1  LIG1       -0.1426
     46 H          14.2357    4.1061    1.4662 H       1  LIG1        0.1071
@<TRIPOS>BOND
     1    34    33    1
     2    12    11    1
     3    33    30    1
     4    11     7    1
     5    44    35    1
     6    39    36    1
     7    31    29    1
     8    21    13    1
     9    17    14    1
    10     8     6    1
    11    35    36   ar
    12    35    37   ar
    13    36    38   ar
    14    30    29   ar
    15    30    27   ar
    16    29    26   ar
    17    13    14   ar
    18    13    15   ar
    19    14    16   ar
    20     7     6   ar
    21     7     4   ar
    22     6     3   ar
    23    43    38    1
    24    37    27    1
    25    37    40   ar
    26    38    41   ar
    27    27    25   ar
    28    26    16    1
    29    26    24   ar
    30    15     4    1
    31    15    18   ar
    32    16    19   ar
    33     4     2   ar
    34     3     9    1
    35     3     1   ar
    36    25    24   ar
    37    25    28    1
    38    41    40   ar
    39    41    45    1
    40    40    42    1
    41    24    32    1
    42    18    19   ar
    43    18    20    1
    44    19    22    1
    45     2     1   ar
    46     2     5    1
    47     1    10    1
    48    45    46    1
    49    22    23    1
