@<TRIPOS>MOLECULE
mol_data/opt/cam/geoms/mol2/4ag4ag4ag4ag.out
 46 49 0 0 0
SMALL
GASTEIGER

@<TRIPOS>ATOM
      1 C          -0.0607    1.0459    1.7631 C.ar    1  LIG1       -0.0611
      2 C           1.3109    1.0935    1.5644 C.ar    1  LIG1       -0.0530
      3 C          -0.9108    1.2084    0.6771 C.ar    1  LIG1       -0.0607
      4 C           1.8632    1.3004    0.2978 C.ar    1  LIG1       -0.0047
      5 H           1.9855    0.9807    2.4070 H       1  LIG1        0.0624
      6 C          -0.3858    1.4100   -0.5908 C.ar    1  LIG1       -0.0480
      7 C           0.9941    1.4519   -0.7947 C.ar    1  LIG1        0.0124
      8 H          -1.0585    1.5288   -1.4340 H       1  LIG1        0.0629
      9 H          -1.9870    1.1775    0.8116 H       1  LIG1        0.0618
     10 H          -0.4617    0.8880    2.7583 H       1  LIG1        0.0618
     11 S           1.6667    1.6549   -2.4359 S.3     1  LIG1       -0.1420
     12 H           0.4891    1.5619   -3.0737 H       1  LIG1        0.1071
     13 C           4.1201    0.2674    0.6112 C.ar    1  LIG1       -0.0534
     14 C           5.5005    0.3226    0.5141 C.ar    1  LIG1       -0.0524
     15 C           3.3444    1.3357    0.1601 C.ar    1  LIG1       -0.0158
     16 C           6.1583    1.4282   -0.0295 C.ar    1  LIG1       -0.0047
     17 H           6.0992   -0.5081    0.8734 H       1  LIG1        0.0624
     18 C           3.9895    2.4464   -0.3800 C.ar    1  LIG1       -0.0402
     19 C           5.3783    2.5004   -0.4906 C.ar    1  LIG1        0.0130
     20 H           3.3926    3.2875   -0.7159 H       1  LIG1        0.0635
     21 H           3.6368   -0.6085    1.0301 H       1  LIG1        0.0624
     22 S           6.1690    3.9130   -1.2418 S.3     1  LIG1       -0.1420
     23 H           5.0359    4.4720   -1.6952 H       1  LIG1        0.1071
     24 C           8.3057    0.3633   -0.7430 C.ar    1  LIG1       -0.0534
     25 C           9.6899    0.3372   -0.7801 C.ar    1  LIG1       -0.0524
     26 C           7.6434    1.4138   -0.1071 C.ar    1  LIG1       -0.0158
     27 C          10.4630    1.3419   -0.1943 C.ar    1  LIG1       -0.0047
     28 H          10.2001   -0.4857   -1.2701 H       1  LIG1        0.0624
     29 C           8.4040    2.4198    0.4855 C.ar    1  LIG1       -0.0402
     30 C           9.7973    2.4025    0.4399 C.ar    1  LIG1        0.0130
     31 H           7.8954    3.2295    0.9976 H       1  LIG1        0.0635
     32 H           7.7319   -0.4264   -1.2158 H       1  LIG1        0.0624
     33 S          10.7403    3.7361    1.1592 S.3     1  LIG1       -0.1420
     34 H           9.6858    4.5355    1.3855 H       1  LIG1        0.1071
     35 C          12.5682    1.1200   -1.5218 C.ar    1  LIG1       -0.0539
     36 C          13.9493    1.0028   -1.6007 C.ar    1  LIG1       -0.0602
     37 C          11.9456    1.2509   -0.2793 C.ar    1  LIG1       -0.0158
     38 C          14.7266    1.0178   -0.4511 C.ar    1  LIG1       -0.0485
     39 H          14.4291    0.9106   -2.5696 H       1  LIG1        0.0618
     40 C          12.7286    1.2477    0.8762 C.ar    1  LIG1       -0.0408
     41 C          14.1145    1.1392    0.7954 C.ar    1  LIG1        0.0053
     42 H          12.2448    1.3152    1.8449 H       1  LIG1        0.0635
     43 H          15.8067    0.9409   -0.5210 H       1  LIG1        0.0628
     44 H          11.9661    1.1271   -2.4240 H       1  LIG1        0.0624
     45 S          15.1534    1.1135    2.2399 S.3     1  LIG1       -0.1426
     46 H          14.2243    1.5294    3.1147 H       1  LIG1        0.1071
@<TRIPOS>BOND
     1    12    11    1
     2    39    36    1
     3    11     7    1
     4    44    35    1
     5    23    22    1
     6    36    35   ar
     7    36    38   ar
     8    35    37   ar
     9     8     6    1
    10    28    25    1
    11    22    19    1
    12    32    24    1
    13     7     6   ar
    14     7     4   ar
    15    25    24   ar
    16    25    27   ar
    17    24    26   ar
    18    20    18    1
    19     6     3   ar
    20    43    38    1
    21    19    18   ar
    22    19    16   ar
    23    38    41   ar
    24    18    15   ar
    25    37    27    1
    26    37    40   ar
    27    27    30   ar
    28    26    16    1
    29    26    29   ar
    30    16    14   ar
    31    15     4    1
    32    15    13   ar
    33     4     2   ar
    34    30    29   ar
    35    30    33    1
    36    29    31    1
    37    14    13   ar
    38    14    17    1
    39    13    21    1
    40     3     9    1
    41     3     1   ar
    42    41    40   ar
    43    41    45    1
    44    40    42    1
    45    33    34    1
    46     2     1   ar
    47     2     5    1
    48     1    10    1
    49    45    46    1
