@<TRIPOS>MOLECULE
mol_data/opt/cam/geoms/mol2/4ag4ag.out
 24 25 0 0 0
SMALL
GASTEIGER

@<TRIPOS>ATOM
      1 C           0.0209    0.1349    0.7537 C.ar    1  LIG1       -0.0611
      2 C           1.4016    0.1641    0.6272 C.ar    1  LIG1       -0.0530
      3 C          -0.7275    1.2058    0.2831 C.ar    1  LIG1       -0.0607
      4 C           2.0630    1.2440    0.0370 C.ar    1  LIG1       -0.0047
      5 H           1.9987   -0.6605    1.0030 H       1  LIG1        0.0624
      6 C          -0.0936    2.2870   -0.3110 C.ar    1  LIG1       -0.0480
      7 C           1.2951    2.3162   -0.4450 C.ar    1  LIG1        0.0124
      8 H          -0.6878    3.1159   -0.6820 H       1  LIG1        0.0629
      9 H          -1.8086    1.2040    0.3750 H       1  LIG1        0.0618
     10 H          -0.4654   -0.7148    1.2204 H       1  LIG1        0.0618
     11 S           2.1033    3.6844   -1.2587 S.3     1  LIG1       -0.1420
     12 H           0.9719    4.2891   -1.6543 H       1  LIG1        0.1071
     13 C           4.1772    0.1338   -0.7022 C.ar    1  LIG1       -0.0539
     14 C           5.5630    0.0802   -0.7708 C.ar    1  LIG1       -0.0602
     15 C           3.5476    1.2051   -0.0667 C.ar    1  LIG1       -0.0158
     16 C           6.3373    1.0882   -0.2141 C.ar    1  LIG1       -0.0485
     17 H           6.0473   -0.7505   -1.2735 H       1  LIG1        0.0618
     18 C           4.3296    2.2087    0.5073 C.ar    1  LIG1       -0.0408
     19 C           5.7191    2.1585    0.4306 C.ar    1  LIG1        0.0053
     20 H           3.8432    3.0257    1.0295 H       1  LIG1        0.0635
     21 H           7.4194    1.0473   -0.2838 H       1  LIG1        0.0628
     22 H           3.5752   -0.6472   -1.1541 H       1  LIG1        0.0624
     23 S           6.7587    3.4046    1.1604 S.3     1  LIG1       -0.1426
     24 H           5.7908    4.3039    1.3969 H       1  LIG1        0.1071
@<TRIPOS>BOND
     1    12    11    1
     2    17    14    1
     3    11     7    1
     4    22    13    1
     5    14    13   ar
     6    14    16   ar
     7    13    15   ar
     8     8     6    1
     9     7     6   ar
    10     7     4   ar
    11     6     3   ar
    12    21    16    1
    13    16    19   ar
    14    15     4    1
    15    15    18   ar
    16     4     2   ar
    17     3     9    1
    18     3     1   ar
    19    19    18   ar
    20    19    23    1
    21    18    20    1
    22     2     1   ar
    23     2     5    1
    24     1    10    1
    25    23    24    1
