@<TRIPOS>MOLECULE
mol_data/opt/cam/geoms/mol2/4ag4ag-4ag-.out
 35 37 0 0 0
SMALL
GASTEIGER

@<TRIPOS>ATOM
      1 C          -0.0796    0.8183   -1.2650 C.ar    1  LIG1       -0.0611
      2 C           1.3033    0.8212   -1.1604 C.ar    1  LIG1       -0.0530
      3 C          -0.8403    1.3478   -0.2309 C.ar    1  LIG1       -0.0607
      4 C           1.9544    1.3444   -0.0406 C.ar    1  LIG1       -0.0047
      5 H           1.9082    0.3968   -1.9553 H       1  LIG1        0.0624
      6 C          -0.2161    1.8766    0.8893 C.ar    1  LIG1       -0.0480
      7 C           1.1753    1.8866    0.9944 C.ar    1  LIG1        0.0124
      8 H          -0.8193    2.2933    1.6894 H       1  LIG1        0.0629
      9 H          -1.9236    1.3524   -0.2916 H       1  LIG1        0.0618
     10 H          -0.5586    0.4012   -2.1440 H       1  LIG1        0.0618
     11 S           1.9787    2.6147    2.4118 S.3     1  LIG1       -0.1420
     12 H           0.8587    3.1205    2.9525 H       1  LIG1        0.1071
     13 C           4.1299    0.6666    1.0306 C.ar    1  LIG1       -0.0534
     14 C           5.5150    0.6353    1.0219 C.ar    1  LIG1       -0.0524
     15 C           3.4417    1.3163    0.0056 C.ar    1  LIG1       -0.0158
     16 C           6.2620    1.2373    0.0076 C.ar    1  LIG1       -0.0047
     17 H           6.0462    0.1360    1.8256 H       1  LIG1        0.0624
     18 C           4.1762    1.9116   -1.0180 C.ar    1  LIG1       -0.0402
     19 C           5.5694    1.8774   -1.0322 C.ar    1  LIG1        0.0130
     20 H           3.6405    2.4161   -1.8157 H       1  LIG1        0.0635
     21 H           3.5813    0.1795    1.8289 H       1  LIG1        0.0624
     22 S           6.4819    2.6090   -2.3804 S.3     1  LIG1       -0.1420
     23 H           5.4031    2.9235   -3.1150 H       1  LIG1        0.1071
     24 C           8.3822   -0.0777    0.1571 C.ar    1  LIG1       -0.0539
     25 C           9.7662   -0.1472    0.2448 C.ar    1  LIG1       -0.0602
     26 C           7.7472    1.1618    0.0649 C.ar    1  LIG1       -0.0158
     27 C          10.5334    1.0090    0.2385 C.ar    1  LIG1       -0.0485
     28 H          10.2557   -1.1136    0.3080 H       1  LIG1        0.0618
     29 C           8.5205    2.3239    0.0757 C.ar    1  LIG1       -0.0408
     30 C           9.9088    2.2526    0.1553 C.ar    1  LIG1        0.0053
     31 H           8.0268    3.2890    0.0371 H       1  LIG1        0.0635
     32 H          11.6153    0.9467    0.2937 H       1  LIG1        0.0628
     33 H           7.7873   -0.9846    0.1450 H       1  LIG1        0.0624
     34 S          10.9367    3.7046    0.1888 S.3     1  LIG1       -0.1426
     35 H           9.9852    4.5843   -0.1608 H       1  LIG1        0.1071
@<TRIPOS>BOND
     1    23    22    1
     2    22    19    1
     3    10     1    1
     4     5     2    1
     5    20    18    1
     6     1     2   ar
     7     1     3   ar
     8     2     4   ar
     9    19    18   ar
    10    19    16   ar
    11    18    15   ar
    12     9     3    1
    13     3     6   ar
    14    35    34    1
    15     4    15    1
    16     4     7   ar
    17    15    13   ar
    18    16    26    1
    19    16    14   ar
    20    31    29    1
    21    26    29   ar
    22    26    24   ar
    23    29    30   ar
    24    33    24    1
    25    30    34    1
    26    30    27   ar
    27    24    25   ar
    28    27    25   ar
    29    27    32    1
    30    25    28    1
    31     6     7   ar
    32     6     8    1
    33     7    11    1
    34    14    13   ar
    35    14    17    1
    36    13    21    1
    37    11    12    1
