@<TRIPOS>MOLECULE
mol_data/opt/cam/geoms/mol2/4ah12ee4ii-13hd-.out
 52 55 0 0 0
SMALL
GASTEIGER

@<TRIPOS>ATOM
      1 C          -0.1170    0.0626   -0.4847 C.ar    1  LIG1       -0.0610
      2 C           1.2587    0.1546   -0.5926 C.ar    1  LIG1       -0.0493
      3 C          -0.7909    0.9705    0.3274 C.ar    1  LIG1       -0.0600
      4 C           1.9917    1.1297    0.0963 C.ar    1  LIG1        0.0391
      5 H           1.7954   -0.5398   -1.2277 H       1  LIG1        0.0625
      6 C          -0.0925    1.9473    1.0123 C.ar    1  LIG1       -0.0404
      7 C           1.3027    2.0527    0.9194 C.ar    1  LIG1        0.0354
      8 H          -0.6234    2.6511    1.6472 H       1  LIG1        0.0636
      9 H          -1.8708    0.9210    0.4247 H       1  LIG1        0.0618
     10 H          -0.6578   -0.7010   -1.0317 H       1  LIG1        0.0618
     11 N           1.9563    3.0056    1.6767 N.pl3   1  LIG1       -0.3574
     12 H           2.8645    3.3038    1.3618 H       1  LIG1        0.1423
     13 H           1.3772    3.7410    2.0490 H       1  LIG1        0.1423
     14 C           3.4447    1.1390   -0.0493 C.ar    1  LIG1        0.1540
     15 C           4.3706    0.1613   -0.3054 C.ar    1  LIG1        0.0864
     16 C           5.6600    0.8179   -0.3606 C.ar    1  LIG1        0.0864
     17 C           5.4353    2.1425   -0.1135 C.ar    1  LIG1        0.1525
     18 O           4.0938    2.3346    0.0602 O.2     1  LIG1       -0.4522
     19 C           4.1582   -1.2314   -0.4731 C.1     1  LIG1       -0.0646
     20 C           4.0073   -2.4168   -0.6186 C.1     1  LIG1       -0.1138
     21 H           3.8738   -3.4673   -0.7373 H       1  LIG1        0.1232
     22 C           6.8869    0.1858   -0.6908 C.1     1  LIG1       -0.0646
     23 C           7.9107   -0.3725   -0.9889 C.1     1  LIG1       -0.1138
     24 H           8.8128   -0.8704   -1.2609 H       1  LIG1        0.1232
     25 C           7.4493    3.4447    0.6719 C.ar    1  LIG1       -0.0391
     26 C           8.1442    4.6495    0.6287 C.ar    1  LIG1       -0.0487
     27 C           6.2623    3.3514   -0.0726 C.ar    1  LIG1        0.0217
     28 C           7.7180    5.7586   -0.1105 C.ar    1  LIG1        0.0033
     29 H           9.0475    4.7467    1.2228 H       1  LIG1        0.0627
     30 C           5.8199    4.4635   -0.7958 C.ar    1  LIG1       -0.0472
     31 C           6.5173    5.6625   -0.8425 C.ar    1  LIG1       -0.0406
     32 H           4.9017    4.3713   -1.3678 H       1  LIG1        0.0627
     33 C           7.9597    2.3270    1.5399 C.3     1  LIG1       -0.0390
     34 H           8.6626    2.7106    2.2820 H       1  LIG1        0.0278
     35 H           8.4699    1.5614    0.9506 H       1  LIG1        0.0278
     36 H           7.1435    1.8261    2.0661 H       1  LIG1        0.0278
     37 C           5.9853    6.7862   -1.6967 C.3     1  LIG1       -0.0391
     38 H           5.2965    6.3988   -2.4499 H       1  LIG1        0.0278
     39 H           6.7885    7.3159   -2.2140 H       1  LIG1        0.0278
     40 H           5.4214    7.5249   -1.1133 H       1  LIG1        0.0278
     41 C           8.5582    6.9599   -0.0896 C.ar    1  LIG1        0.0690
     42 C           9.9372    7.0704   -0.0807 C.ar    1  LIG1        0.0678
     43 C          10.2507    8.4639   -0.0160 C.ar    1  LIG1        0.0902
     44 C           9.0563    9.1593    0.0238 C.ar    1  LIG1        0.0215
     45 N           8.0576    8.2565   -0.0304 N.ar    1  LIG1       -0.3580
     46 H           7.0792    8.4797    0.0337 H       1  LIG1        0.1654
     47 H           8.8757   10.2210    0.0810 H       1  LIG1        0.0820
     48 N          10.8768    6.0468   -0.0903 N.pl3   1  LIG1       -0.3553
     49 H          10.5694    5.2050   -0.5582 H       1  LIG1        0.1424
     50 H          11.7914    6.3393   -0.4078 H       1  LIG1        0.1424
     51 N          12.6478    9.4064   -0.0373 N.1     1  LIG1       -0.1908
     52 C          11.5598    9.0081   -0.0204 C.1     1  LIG1        0.1025
@<TRIPOS>BOND
     1    38    37    1
     2    39    37    1
     3    37    40    1
     4    37    31    1
     5    32    30    1
     6    24    23    1
     7     5     2    1
     8    10     1    1
     9    23    22    3
    10    31    30   ar
    11    31    28   ar
    12    30    27   ar
    13    21    20    1
    14    22    16    1
    15    20    19    3
    16     2     1   ar
    17     2     4   ar
    18    49    48    1
    19     1     3   ar
    20    19    15    1
    21    50    48    1
    22    16    15   ar
    23    16    17   ar
    24    15    14   ar
    25    17    27    1
    26    17    18   ar
    27    28    41    1
    28    28    26   ar
    29    48    42    1
    30    41    42   ar
    31    41    45   ar
    32    42    43   ar
    33    27    25   ar
    34    14    18   ar
    35    14     4    1
    36    51    52    3
    37    45    44   ar
    38    45    46    1
    39    52    43    1
    40    43    44   ar
    41    44    47    1
    42     4     7   ar
    43     3     9    1
    44     3     6   ar
    45    26    25   ar
    46    26    29    1
    47    25    33    1
    48     7     6   ar
    49     7    11    1
    50    35    33    1
    51     6     8    1
    52    12    11    1
    53    33    36    1
    54    33    34    1
    55    11    13    1
