@<TRIPOS>MOLECULE
mol_data/opt/cam/geoms/mol2/4ah12ha6ih-12ah.out
 46 49 0 0 0
SMALL
GASTEIGER

@<TRIPOS>ATOM
      1 C          -0.0423   -0.2266    0.5441 C.ar    1  LIG1       -0.0610
      2 C           1.3231    0.0017    0.6119 C.ar    1  LIG1       -0.0492
      3 C          -0.8414    0.6726   -0.1532 C.ar    1  LIG1       -0.0600
      4 C           1.9261    1.0996   -0.0168 C.ar    1  LIG1        0.0397
      5 H           1.9512   -0.6716    1.1863 H       1  LIG1        0.0625
      6 C          -0.2756    1.7818   -0.7588 C.ar    1  LIG1       -0.0404
      7 C           1.1026    2.0230   -0.7055 C.ar    1  LIG1        0.0354
      8 H          -0.9052    2.4920   -1.2878 H       1  LIG1        0.0636
      9 H          -1.9136    0.5174   -0.2191 H       1  LIG1        0.0618
     10 H          -0.4775   -1.0859    1.0419 H       1  LIG1        0.0618
     11 N           1.6104    3.1660   -1.2969 N.pl3   1  LIG1       -0.3574
     12 H           2.6085    3.2253   -1.4133 H       1  LIG1        0.1423
     13 H           1.0647    3.5607   -2.0458 H       1  LIG1        0.1423
     14 C           3.3788    1.2214    0.0295 C.ar    1  LIG1        0.1579
     15 C           4.3848    0.2917    0.1039 C.ar    1  LIG1        0.0716
     16 C           5.6109    1.0190    0.1477 C.ar    1  LIG1        0.0056
     17 C           5.2920    2.3434    0.0819 C.ar    1  LIG1        0.1393
     18 O           3.9445    2.4770    0.0119 O.2     1  LIG1       -0.4528
     19 N           4.2649   -1.0982    0.1727 N.pl3   1  LIG1       -0.3550
     20 H           3.4106   -1.4440   -0.2454 H       1  LIG1        0.1424
     21 H           5.0658   -1.5801   -0.2127 H       1  LIG1        0.1424
     22 H           6.6025    0.6014    0.2443 H       1  LIG1        0.0674
     23 C           5.6828    4.8151    0.4839 C.ar    1  LIG1        0.0498
     24 C           6.1171    3.5464    0.0420 C.ar    1  LIG1        0.0401
     25 C           7.4132    3.4399   -0.4560 C.ar    1  LIG1       -0.0265
     26 C           8.2646    4.5370   -0.4962 C.ar    1  LIG1        0.0546
     27 C           7.7484    5.7563   -0.0157 C.ar    1  LIG1        0.1268
     28 N           6.4982    5.8628    0.4385 N.ar    1  LIG1       -0.2462
     29 H           7.7591    2.4864   -0.8446 H       1  LIG1        0.0644
     30 C           4.3151    5.0765    1.0571 C.3     1  LIG1       -0.0216
     31 H           4.0706    4.3687    1.8532 H       1  LIG1        0.0293
     32 H           3.5250    4.9826    0.3074 H       1  LIG1        0.0293
     33 H           4.3041    6.0894    1.4582 H       1  LIG1        0.0293
     34 N           9.5660    4.4182   -0.9787 N.pl3   1  LIG1       -0.3562
     35 H           9.7128    3.6086   -1.5652 H       1  LIG1        0.1424
     36 H           9.9250    5.2628   -1.4044 H       1  LIG1        0.1424
     37 C           8.5559    6.9782    0.0022 C.ar    1  LIG1        0.1565
     38 C           9.9014    7.2118    0.0947 C.ar    1  LIG1        0.0065
     39 C          10.0701    8.6322    0.1063 C.ar    1  LIG1        0.0635
     40 C           8.8163    9.1515    0.0115 C.ar    1  LIG1        0.1132
     41 O           7.8906    8.1529   -0.0450 O.2     1  LIG1       -0.4595
     42 H           8.4334   10.1587   -0.0153 H       1  LIG1        0.1049
     43 H          10.6743    6.4687    0.2221 H       1  LIG1        0.0674
     44 N          11.2856    9.3045    0.2662 N.pl3   1  LIG1       -0.3555
     45 H          12.0503    8.8658   -0.2285 H       1  LIG1        0.1424
     46 H          11.2370   10.2859    0.0286 H       1  LIG1        0.1424
@<TRIPOS>BOND
     1    13    11    1
     2    35    34    1
     3    12    11    1
     4    36    34    1
     5    11     7    1
     6     8     6    1
     7    34    26    1
     8    29    25    1
     9     6     7   ar
    10     6     3   ar
    11     7     4   ar
    12    26    25   ar
    13    26    27   ar
    14    25    24   ar
    15    20    19    1
    16    45    44    1
    17     9     3    1
    18    21    19    1
    19     3     1   ar
    20    41    37   ar
    21    41    40   ar
    22     4    14    1
    23     4     2   ar
    24    27    37    1
    25    27    28   ar
    26    42    40    1
    27    37    38   ar
    28    40    39   ar
    29    18    14   ar
    30    18    17   ar
    31    46    44    1
    32    14    15   ar
    33    24    17    1
    34    24    23   ar
    35    17    16   ar
    36    38    39   ar
    37    38    43    1
    38    15    16   ar
    39    15    19    1
    40    39    44    1
    41    16    22    1
    42    32    30    1
    43    28    23   ar
    44    23    30    1
    45     1     2   ar
    46     1    10    1
    47     2     5    1
    48    30    33    1
    49    30    31    1
