@<TRIPOS>MOLECULE
mol_data/opt/cam/geoms/mol2/4ai.out
 15 15 0 0 0
SMALL
GASTEIGER

@<TRIPOS>ATOM
      1 C           0.0290   -0.0203   -0.0091 C.ar    1  LIG1       -0.0617
      2 C           1.4187   -0.0405   -0.0022 C.ar    1  LIG1       -0.0615
      3 C          -0.6366    1.1999   -0.0018 C.ar    1  LIG1       -0.0615
      4 C           2.1342    1.1507    0.0105 C.ar    1  LIG1       -0.0588
      5 H           1.9491   -0.9877   -0.0029 H       1  LIG1        0.0618
      6 C           0.0840    2.3881    0.0109 C.ar    1  LIG1       -0.0588
      7 C           1.4789    2.3821    0.0142 C.ar    1  LIG1       -0.0504
      8 H          -0.4439    3.3377    0.0205 H       1  LIG1        0.0620
      9 H           3.2205    1.1262    0.0197 H       1  LIG1        0.0620
     10 H          -1.7217    1.2278   -0.0021 H       1  LIG1        0.0618
     11 H          -0.5317   -0.9494   -0.0160 H       1  LIG1        0.0618
     12 C           2.2573    3.6718   -0.0038 C.3     1  LIG1       -0.0397
     13 H           1.7096    4.4757    0.4940 H       1  LIG1        0.0278
     14 H           2.4547    3.9990   -1.0304 H       1  LIG1        0.0278
     15 H           3.2238    3.5618    0.4940 H       1  LIG1        0.0278
@<TRIPOS>BOND
     1    14    12    1
     2    11     1    1
     3     1     2   ar
     4     1     3   ar
     5    12     7    1
     6    12    15    1
     7    12    13    1
     8     5     2    1
     9     2     4   ar
    10    10     3    1
    11     3     6   ar
    12     4     7   ar
    13     4     9    1
    14     6     7   ar
    15     6     8    1
