@<TRIPOS>MOLECULE
mol_data/opt/cam/geoms/mol2/4ai13eh-4il-12ff.out
 53 56 0 0 0
SMALL
GASTEIGER

@<TRIPOS>ATOM
      1 C          -0.1877    0.7413   -0.6099 C.ar    1  LIG1       -0.0611
      2 C           1.1864    0.7427   -0.7901 C.ar    1  LIG1       -0.0523
      3 C          -0.7314    1.3366    0.5210 C.ar    1  LIG1       -0.0615
      4 C           2.0429    1.3294    0.1488 C.ar    1  LIG1        0.0025
      5 H           1.6177    0.2849   -1.6726 H       1  LIG1        0.0624
      6 C           0.1101    1.9116    1.4628 C.ar    1  LIG1       -0.0582
      7 C           1.4959    1.9182    1.3057 C.ar    1  LIG1       -0.0413
      8 H          -0.3143    2.3587    2.3573 H       1  LIG1        0.0620
      9 H          -1.8054    1.3459    0.6758 H       1  LIG1        0.0618
     10 H          -0.8304    0.2813   -1.3532 H       1  LIG1        0.0618
     11 C           2.3474    2.5251    2.3940 C.3     1  LIG1       -0.0391
     12 H           1.8026    2.5328    3.3404 H       1  LIG1        0.0278
     13 H           2.6150    3.5671    2.1808 H       1  LIG1        0.0278
     14 H           3.2764    1.9708    2.5409 H       1  LIG1        0.0278
     15 C           3.4890    1.2895   -0.1164 C.ar    1  LIG1        0.0646
     16 C           4.2813    0.2563   -0.6127 C.ar    1  LIG1        0.0711
     17 C           5.6221    0.7436   -0.7034 C.ar    1  LIG1        0.0664
     18 C           5.6242    2.0506   -0.2633 C.ar    1  LIG1        0.0694
     19 N           4.3139    2.3542    0.0706 N.ar    1  LIG1       -0.3517
     20 H           4.0233    3.2531    0.4168 H       1  LIG1        0.1660
     21 C           3.8885   -1.0566   -0.9798 C.1     1  LIG1       -0.0657
     22 C           3.6175   -2.1811   -1.3226 C.1     1  LIG1       -0.1138
     23 H           3.3591   -3.1766   -1.5998 H       1  LIG1        0.1232
     24 N           6.7097   -0.0075   -1.1565 N.pl3   1  LIG1       -0.3554
     25 H           6.4124   -0.8397   -1.6506 H       1  LIG1        0.1424
     26 H           7.3601    0.5289   -1.7160 H       1  LIG1        0.1424
     27 C           7.8976    2.8605    0.4684 C.ar    1  LIG1       -0.0404
     28 C           8.8405    3.8818    0.4686 C.ar    1  LIG1       -0.0439
     29 C           6.6796    3.0714   -0.2071 C.ar    1  LIG1        0.0065
     30 C           8.6299    5.1232   -0.1474 C.ar    1  LIG1        0.0629
     31 H           9.7768    3.7216    0.9907 H       1  LIG1        0.0629
     32 C           6.4560    4.3092   -0.8147 C.ar    1  LIG1       -0.0098
     33 C           7.3971    5.3271   -0.7854 C.ar    1  LIG1        0.1315
     34 H           5.5223    4.4995   -1.3353 H       1  LIG1        0.0661
     35 C           8.1697    1.5901    1.2292 C.3     1  LIG1       -0.0391
     36 H           9.1276    1.6515    1.7497 H       1  LIG1        0.0278
     37 H           8.1770    0.7106    0.5797 H       1  LIG1        0.0278
     38 H           7.3878    1.4133    1.9742 H       1  LIG1        0.0278
     39 O           7.0721    6.5354   -1.3518 O.3     1  LIG1       -0.4944
     40 C           7.3054    6.6196   -2.7474 C.3     1  LIG1        0.0788
     41 H           6.9529    7.6020   -3.0651 H       1  LIG1        0.0660
     42 H           8.3722    6.5297   -2.9754 H       1  LIG1        0.0660
     43 H           6.7507    5.8453   -3.2913 H       1  LIG1        0.0660
     44 C           9.6730    6.1369   -0.0607 C.ar    1  LIG1        0.1833
     45 C          10.7523    6.2644    0.7688 C.ar    1  LIG1        0.2052
     46 C          11.4437    7.4462    0.3778 C.ar    1  LIG1        0.1976
     47 C          10.7572    7.9709   -0.6664 C.ar    1  LIG1        0.1377
     48 O           9.6829    7.1861   -0.9401 O.2     1  LIG1       -0.4553
     49 H          10.8902    8.8459   -1.2815 H       1  LIG1        0.1069
     50 O          11.1262    5.4483    1.7860 O.3     1  LIG1       -0.5008
     51 H          11.8997    5.8453    2.2085 H       1  LIG1        0.2924
     52 O          12.5687    7.8328    1.0401 O.3     1  LIG1       -0.5012
     53 H          12.8682    8.6902    0.7187 H       1  LIG1        0.2924
@<TRIPOS>BOND
     1    43    40    1
     2    41    40    1
     3    42    40    1
     4    40    39    1
     5    26    24    1
     6     5     2    1
     7    25    24    1
     8    23    22    1
     9    10     1    1
    10    39    33    1
    11    34    32    1
    12    22    21    3
    13    49    47    1
    14    24    17    1
    15    21    16    1
    16    48    47   ar
    17    48    44   ar
    18    32    33   ar
    19    32    29   ar
    20     2     1   ar
    21     2     4   ar
    22    33    30   ar
    23    17    16   ar
    24    17    18   ar
    25    47    46   ar
    26    16    15   ar
    27     1     3   ar
    28    18    29    1
    29    18    19   ar
    30    29    27   ar
    31    30    44    1
    32    30    28   ar
    33    15    19   ar
    34    15     4    1
    35    44    45   ar
    36    19    20    1
    37     4     7   ar
    38    46    45   ar
    39    46    52    1
    40    27    28   ar
    41    27    35    1
    42    28    31    1
    43     3     9    1
    44     3     6   ar
    45    37    35    1
    46    53    52    1
    47    45    50    1
    48    35    36    1
    49    35    38    1
    50     7     6   ar
    51     7    11    1
    52     6     8    1
    53    50    51    1
    54    13    11    1
    55    11    14    1
    56    11    12    1
