@<TRIPOS>MOLECULE
mol_data/opt/cam/geoms/mol2/4ai12ll6hi-6al-.out
 57 60 0 0 0
SMALL
GASTEIGER

@<TRIPOS>ATOM
      1 C          -0.2563    0.0347   -1.3286 C.ar    1  LIG1       -0.0611
      2 C           1.1037    0.1313   -1.0801 C.ar    1  LIG1       -0.0507
      3 C          -1.1051    1.0442   -0.8942 C.ar    1  LIG1       -0.0615
      4 C           1.6358    1.2263   -0.3883 C.ar    1  LIG1        0.0240
      5 H           1.7767   -0.6476   -1.4190 H       1  LIG1        0.0625
      6 C          -0.5840    2.1272   -0.1985 C.ar    1  LIG1       -0.0582
      7 C           0.7775    2.2430    0.0783 C.ar    1  LIG1       -0.0397
      8 H          -1.2530    2.9054    0.1571 H       1  LIG1        0.0620
      9 H          -2.1714    0.9872   -1.0876 H       1  LIG1        0.0618
     10 H          -0.6484   -0.8214   -1.8677 H       1  LIG1        0.0618
     11 C           1.2633    3.4147    0.8937 C.3     1  LIG1       -0.0390
     12 H           0.4146    3.9494    1.3251 H       1  LIG1        0.0278
     13 H           1.8472    4.1275    0.3063 H       1  LIG1        0.0278
     14 H           1.9112    3.0895    1.7119 H       1  LIG1        0.0278
     15 C           3.0797    1.2493   -0.1641 C.ar    1  LIG1        0.1812
     16 C           4.0076    0.2655    0.0203 C.ar    1  LIG1        0.2085
     17 C           5.2811    0.9044    0.1513 C.ar    1  LIG1        0.2086
     18 C           5.0694    2.2508    0.0378 C.ar    1  LIG1        0.1842
     19 O           3.7302    2.4527   -0.1564 O.2     1  LIG1       -0.4471
     20 O           3.7795   -1.0763    0.0426 O.3     1  LIG1       -0.4884
     21 C           4.0249   -1.6793    1.3125 C.3     1  LIG1        0.0791
     22 H           3.8521   -2.7484    1.1866 H       1  LIG1        0.0660
     23 H           5.0555   -1.5061    1.6361 H       1  LIG1        0.0660
     24 H           3.3361   -1.2836    2.0659 H       1  LIG1        0.0660
     25 O           6.4693    0.2784    0.3825 O.3     1  LIG1       -0.4884
     26 C           6.8938   -0.5607   -0.6917 C.3     1  LIG1        0.0791
     27 H           7.8166   -1.0402   -0.3644 H       1  LIG1        0.0660
     28 H           6.1401   -1.3209   -0.9150 H       1  LIG1        0.0660
     29 H           7.0881    0.0331   -1.5910 H       1  LIG1        0.0660
     30 C           5.6042    4.6989   -0.3633 C.ar    1  LIG1        0.1277
     31 C           5.9556    3.4033    0.0963 C.ar    1  LIG1        0.0608
     32 C           7.2373    3.2618    0.6190 C.ar    1  LIG1       -0.0427
     33 C           8.1465    4.3142    0.6703 C.ar    1  LIG1       -0.0236
     34 C           7.7038    5.5411    0.1554 C.ar    1  LIG1        0.0776
     35 N           6.4686    5.7094   -0.3273 N.ar    1  LIG1       -0.2314
     36 H           7.5279    2.2914    1.0067 H       1  LIG1        0.0629
     37 N           4.3609    5.0107   -0.8490 N.pl3   1  LIG1       -0.3426
     38 H           4.3156    5.8917   -1.3362 H       1  LIG1        0.1437
     39 H           3.7535    4.2678   -1.1497 H       1  LIG1        0.1437
     40 C           9.4962    4.0906    1.3047 C.3     1  LIG1       -0.0377
     41 H           9.8524    4.9782    1.8308 H       1  LIG1        0.0278
     42 H          10.2630    3.8151    0.5719 H       1  LIG1        0.0278
     43 H           9.4391    3.2726    2.0268 H       1  LIG1        0.0278
     44 C           7.9661    7.9979    0.4528 C.ar    1  LIG1        0.0370
     45 C           8.5409    6.7708    0.1261 C.ar    1  LIG1        0.0222
     46 C           9.8845    6.7595   -0.2564 C.ar    1  LIG1       -0.0078
     47 C          10.5827    7.9596   -0.2805 C.ar    1  LIG1        0.1387
     48 C           9.9113    9.1299    0.0829 C.ar    1  LIG1        0.0692
     49 N           8.6353    9.1510    0.4394 N.ar    1  LIG1       -0.2590
     50 H          10.3566    5.8324   -0.5524 H       1  LIG1        0.0662
     51 H          10.4543   10.0716    0.0685 H       1  LIG1        0.0867
     52 H           6.9187    8.0373    0.7333 H       1  LIG1        0.0836
     53 O          11.8845    8.1030   -0.6390 O.3     1  LIG1       -0.4936
     54 C          12.5971    6.9453   -1.0165 C.3     1  LIG1        0.0789
     55 H          13.6086    7.2736   -1.2540 H       1  LIG1        0.0660
     56 H          12.6392    6.2127   -0.2016 H       1  LIG1        0.0660
     57 H          12.1569    6.4703   -1.9014 H       1  LIG1        0.0660
@<TRIPOS>BOND
     1    57    54    1
     2    10     1    1
     3    29    26    1
     4     5     2    1
     5    38    37    1
     6     1     2   ar
     7     1     3   ar
     8    55    54    1
     9    39    37    1
    10     9     3    1
    11     2     4   ar
    12    54    53    1
    13    54    56    1
    14    28    26    1
    15     3     6   ar
    16    37    30    1
    17    26    27    1
    18    26    25    1
    19    53    47    1
    20    50    46    1
    21     4    15    1
    22     4     7   ar
    23    30    35   ar
    24    30    31   ar
    25    35    34   ar
    26    47    46   ar
    27    47    48   ar
    28    46    45   ar
    29     6     7   ar
    30     6     8    1
    31    15    19   ar
    32    15    16   ar
    33    19    18   ar
    34    16    20    1
    35    16    17   ar
    36    18    31    1
    37    18    17   ar
    38    20    21    1
    39    51    48    1
    40     7    11    1
    41    48    49   ar
    42    31    32   ar
    43    45    34    1
    44    45    44   ar
    45    17    25    1
    46    34    33   ar
    47    13    11    1
    48    49    44   ar
    49    44    52    1
    50    42    40    1
    51    32    33   ar
    52    32    36    1
    53    33    40    1
    54    11    12    1
    55    11    14    1
    56    22    21    1
    57    40    41    1
    58    40    43    1
    59    21    23    1
    60    21    24    1
