@<TRIPOS>MOLECULE
mol_data/opt/cam/geoms/mol2/4ai13ah13eh-13id.out
 49 52 0 0 0
SMALL
GASTEIGER

@<TRIPOS>ATOM
      1 C           0.0195   -0.1180   -0.5492 C.ar    1  LIG1       -0.0611
      2 C           1.3874   -0.0061   -0.3586 C.ar    1  LIG1       -0.0524
      3 C          -0.7918    0.9917   -0.3502 C.ar    1  LIG1       -0.0615
      4 C           1.9748    1.2009    0.0401 C.ar    1  LIG1        0.0013
      5 H           2.0315   -0.8608   -0.5349 H       1  LIG1        0.0624
      6 C          -0.2210    2.1923    0.0485 C.ar    1  LIG1       -0.0582
      7 C           1.1520    2.3245    0.2545 C.ar    1  LIG1       -0.0413
      8 H          -0.8582    3.0549    0.2214 H       1  LIG1        0.0620
      9 H          -1.8645    0.9235   -0.4986 H       1  LIG1        0.0618
     10 H          -0.4087   -1.0651   -0.8602 H       1  LIG1        0.0618
     11 C           1.6903    3.6522    0.7286 C.3     1  LIG1       -0.0391
     12 H           0.8924    4.2451    1.1802 H       1  LIG1        0.0278
     13 H           2.0999    4.2504   -0.0942 H       1  LIG1        0.0278
     14 H           2.4846    3.5254    1.4669 H       1  LIG1        0.0278
     15 C           3.4305    1.2161    0.2400 C.ar    1  LIG1        0.0490
     16 C           4.2485    0.2320    0.7526 C.ar    1  LIG1       -0.0150
     17 C           5.5955    0.6749    0.6630 C.ar    1  LIG1        0.0523
     18 C           5.5708    1.9354    0.0816 C.ar    1  LIG1        0.0855
     19 N           4.2330    2.2634   -0.1280 N.ar    1  LIG1       -0.3515
     20 H           3.9472    2.9643   -0.7926 H       1  LIG1        0.1660
     21 H           3.9130   -0.6918    1.2025 H       1  LIG1        0.0657
     22 N           6.6940    0.0116    1.1911 N.pl3   1  LIG1       -0.3563
     23 H           6.5342   -0.9741    1.3393 H       1  LIG1        0.1424
     24 H           7.5671    0.1759    0.7065 H       1  LIG1        0.1424
     25 C           6.6038    2.9025   -0.1847 C.ar    1  LIG1        0.0826
     26 C           7.9395    2.7609   -0.5464 C.ar    1  LIG1        0.0727
     27 C           8.5069    4.0768   -0.6342 C.ar    1  LIG1        0.0679
     28 C           7.5135    4.9793   -0.3411 C.ar    1  LIG1        0.0858
     29 N           6.3423    4.2452   -0.1069 N.ar    1  LIG1       -0.3494
     30 H           5.5950    4.5976    0.4722 H       1  LIG1        0.1661
     31 C           8.6259    1.5703   -0.8864 C.1     1  LIG1       -0.0656
     32 C           9.2443    0.5764   -1.1838 C.1     1  LIG1       -0.1138
     33 H           9.7797   -0.2988   -1.4714 H       1  LIG1        0.1232
     34 N           9.8272    4.3428   -0.9649 N.pl3   1  LIG1       -0.3553
     35 H          10.2679    3.6027   -1.4942 H       1  LIG1        0.1424
     36 H           9.9757    5.2524   -1.3797 H       1  LIG1        0.1424
     37 C           7.5291    6.4288   -0.3373 C.ar    1  LIG1        0.0689
     38 C           8.4112    7.3239    0.2293 C.ar    1  LIG1       -0.0064
     39 C           7.9344    8.6317   -0.1114 C.ar    1  LIG1        0.0725
     40 C           6.7824    8.4909   -0.8547 C.ar    1  LIG1        0.0199
     41 N           6.5458    7.1613   -0.9835 N.ar    1  LIG1       -0.3581
     42 H           5.8194    6.7498   -1.5462 H       1  LIG1        0.1654
     43 H           6.1336    9.2388   -1.2828 H       1  LIG1        0.0820
     44 C           9.6034    7.0080    1.0736 C.3     1  LIG1       -0.0364
     45 H           9.6279    7.6419    1.9641 H       1  LIG1        0.0279
     46 H          10.5421    7.1763    0.5356 H       1  LIG1        0.0279
     47 H           9.5876    5.9633    1.3875 H       1  LIG1        0.0279
     48 N           9.0189   10.8631    0.5944 N.1     1  LIG1       -0.1908
     49 C           8.5256    9.8659    0.2732 C.1     1  LIG1        0.1009
@<TRIPOS>BOND
     1    42    41    1
     2    35    34    1
     3    33    32    1
     4    36    34    1
     5    43    40    1
     6    32    31    3
     7    41    40   ar
     8    41    37   ar
     9    34    27    1
    10    31    26    1
    11    10     1    1
    12    40    39   ar
    13    20    19    1
    14    27    26   ar
    15    27    28   ar
    16     1     2   ar
    17     1     3   ar
    18    26    25   ar
    19     5     2    1
    20     9     3    1
    21     2     4   ar
    22     3     6   ar
    23    28    37    1
    24    28    29   ar
    25    37    38   ar
    26    25    29   ar
    27    25    18    1
    28    19    18   ar
    29    19    15   ar
    30    39    38   ar
    31    39    49    1
    32    29    30    1
    33    13    11    1
    34     4    15    1
    35     4     7   ar
    36     6     8    1
    37     6     7   ar
    38    18    17   ar
    39    38    44    1
    40    15    16   ar
    41     7    11    1
    42    49    48    3
    43    46    44    1
    44    17    16   ar
    45    17    22    1
    46    24    22    1
    47    11    12    1
    48    11    14    1
    49    16    21    1
    50    44    47    1
    51    44    45    1
    52    22    23    1
