@<TRIPOS>MOLECULE
mol_data/opt/cam/geoms/mol2/4ai4ai-4ai.out
 41 43 0 0 0
SMALL
GASTEIGER

@<TRIPOS>ATOM
      1 C          -0.1284    0.0884   -0.6908 C.ar    1  LIG1       -0.0612
      2 C           1.2583    0.1074   -0.6540 C.ar    1  LIG1       -0.0538
      3 C          -0.8359    1.2176   -0.3008 C.ar    1  LIG1       -0.0615
      4 C           1.9634    1.2410   -0.2388 C.ar    1  LIG1       -0.0150
      5 H           1.8193   -0.7675   -0.9671 H       1  LIG1        0.0624
      6 C          -0.1460    2.3441    0.1257 C.ar    1  LIG1       -0.0583
      7 C           1.2482    2.3827    0.1655 C.ar    1  LIG1       -0.0427
      8 H          -0.7010    3.2204    0.4488 H       1  LIG1        0.0620
      9 H          -1.9210    1.2210   -0.3205 H       1  LIG1        0.0618
     10 H          -0.6513   -0.8022   -1.0239 H       1  LIG1        0.0618
     11 C           1.9309    3.6319    0.6650 C.3     1  LIG1       -0.0391
     12 H           1.2570    4.2030    1.3076 H       1  LIG1        0.0278
     13 H           2.2286    4.2904   -0.1574 H       1  LIG1        0.0278
     14 H           2.8341    3.4014    1.2331 H       1  LIG1        0.0278
     15 C           4.2327    2.1126   -0.9117 C.ar    1  LIG1       -0.0534
     16 C           5.6140    2.0031   -0.9060 C.ar    1  LIG1       -0.0532
     17 C           3.4511    1.1819   -0.2270 C.ar    1  LIG1       -0.0173
     18 C           6.2666    0.9690   -0.2296 C.ar    1  LIG1       -0.0149
     19 H           6.2110    2.7228   -1.4573 H       1  LIG1        0.0624
     20 C           4.1060    0.1557    0.4545 C.ar    1  LIG1       -0.0505
     21 C           5.4940    0.0267    0.4711 C.ar    1  LIG1       -0.0422
     22 H           3.5093   -0.5601    1.0129 H       1  LIG1        0.0626
     23 H           3.7578    2.9119   -1.4705 H       1  LIG1        0.0624
     24 C           6.1119   -1.0986    1.2636 C.3     1  LIG1       -0.0391
     25 H           7.0492   -0.7958    1.7340 H       1  LIG1        0.0278
     26 H           6.3350   -1.9653    0.6332 H       1  LIG1        0.0278
     27 H           5.4273   -1.4354    2.0453 H       1  LIG1        0.0278
     28 C           8.4383   -0.2116   -0.7163 C.ar    1  LIG1       -0.0540
     29 C           9.8254   -0.2165   -0.7700 C.ar    1  LIG1       -0.0609
     30 C           7.7544    0.9209   -0.2688 C.ar    1  LIG1       -0.0174
     31 C          10.5475    0.9043   -0.3797 C.ar    1  LIG1       -0.0588
     32 H          10.3483   -1.1006   -1.1213 H       1  LIG1        0.0618
     33 C           8.4978    2.0396    0.1140 C.ar    1  LIG1       -0.0511
     34 C           9.8906    2.0507    0.0648 C.ar    1  LIG1       -0.0499
     35 H           7.9716    2.9199    0.4729 H       1  LIG1        0.0626
     36 H          11.6329    0.8902   -0.4197 H       1  LIG1        0.0620
     37 H           7.8798   -1.0839   -1.0385 H       1  LIG1        0.0624
     38 C          10.6645    3.2807    0.4622 C.3     1  LIG1       -0.0397
     39 H          10.1276    3.8648    1.2134 H       1  LIG1        0.0278
     40 H          10.8343    3.9347   -0.4000 H       1  LIG1        0.0278
     41 H          11.6439    3.0207    0.8712 H       1  LIG1        0.0278
@<TRIPOS>BOND
     1    23    15    1
     2    19    16    1
     3    32    29    1
     4    37    28    1
     5    10     1    1
     6     5     2    1
     7    15    16   ar
     8    15    17   ar
     9    16    18   ar
    10    29    28   ar
    11    29    31   ar
    12    28    30   ar
    13     1     2   ar
    14     1     3   ar
    15     2     4   ar
    16    36    31    1
    17    40    38    1
    18    31    34   ar
    19     9     3    1
    20     3     6   ar
    21    30    18    1
    22    30    33   ar
    23     4    17    1
    24     4     7   ar
    25    18    21   ar
    26    17    20   ar
    27    13    11    1
    28    34    33   ar
    29    34    38    1
    30    33    35    1
    31     6     7   ar
    32     6     8    1
    33     7    11    1
    34    20    21   ar
    35    20    22    1
    36    38    41    1
    37    38    39    1
    38    21    24    1
    39    26    24    1
    40    11    14    1
    41    11    12    1
    42    24    25    1
    43    24    27    1
