@<TRIPOS>MOLECULE
mol_data/opt/cam/geoms/mol2/4ai4ai.out
 28 29 0 0 0
SMALL
GASTEIGER

@<TRIPOS>ATOM
      1 C           0.0714    0.1267   -0.8555 C.ar    1  LIG1       -0.0612
      2 C           1.4462    0.1699   -0.6736 C.ar    1  LIG1       -0.0538
      3 C          -0.7065    1.1938   -0.4271 C.ar    1  LIG1       -0.0615
      4 C           2.0695    1.2678   -0.0739 C.ar    1  LIG1       -0.0150
      5 H           2.0632   -0.6558   -1.0141 H       1  LIG1        0.0624
      6 C          -0.0988    2.2831    0.1823 C.ar    1  LIG1       -0.0583
      7 C           1.2824    2.3454    0.3700 C.ar    1  LIG1       -0.0427
      8 H          -0.7107    3.1088    0.5346 H       1  LIG1        0.0620
      9 H          -1.7836    1.1770   -0.5585 H       1  LIG1        0.0618
     10 H          -0.3874   -0.7346   -1.3301 H       1  LIG1        0.0618
     11 C           1.8741    3.5470    1.0644 C.3     1  LIG1       -0.0391
     12 H           1.1195    4.0408    1.6809 H       1  LIG1        0.0278
     13 H           2.2453    4.2892    0.3504 H       1  LIG1        0.0278
     14 H           2.7144    3.2717    1.7046 H       1  LIG1        0.0278
     15 C           4.1629    0.1756    0.7509 C.ar    1  LIG1       -0.0540
     16 C           5.5458    0.1311    0.8798 C.ar    1  LIG1       -0.0609
     17 C           3.5504    1.2394    0.0868 C.ar    1  LIG1       -0.0174
     18 C           6.3318    1.1416    0.3444 C.ar    1  LIG1       -0.0588
     19 H           6.0121   -0.6954    1.4069 H       1  LIG1        0.0618
     20 C           4.3591    2.2451   -0.4487 C.ar    1  LIG1       -0.0511
     21 C           5.7462    2.2122   -0.3329 C.ar    1  LIG1       -0.0499
     22 H           3.8940    3.0664   -0.9860 H       1  LIG1        0.0626
     23 H           7.4123    1.1021    0.4510 H       1  LIG1        0.0620
     24 H           3.5482   -0.6095    1.1794 H       1  LIG1        0.0624
     25 C           6.5994    3.2917   -0.9464 C.3     1  LIG1       -0.0397
     26 H           6.0105    4.1814   -1.1802 H       1  LIG1        0.0278
     27 H           7.0614    2.9483   -1.8781 H       1  LIG1        0.0278
     28 H           7.4091    3.5890   -0.2745 H       1  LIG1        0.0278
@<TRIPOS>BOND
     1    27    25    1
     2    10     1    1
     3    26    25    1
     4     5     2    1
     5    22    20    1
     6    25    21    1
     7    25    28    1
     8     1     2   ar
     9     1     3   ar
    10     2     4   ar
    11     9     3    1
    12    20    21   ar
    13    20    17   ar
    14     3     6   ar
    15    21    18   ar
    16     4    17    1
    17     4     7   ar
    18    17    15   ar
    19     6     7   ar
    20     6     8    1
    21    18    23    1
    22    18    16   ar
    23    13    11    1
    24     7    11    1
    25    15    16   ar
    26    15    24    1
    27    16    19    1
    28    11    12    1
    29    11    14    1
