@<TRIPOS>MOLECULE
mol_data/opt/cam/geoms/mol2/4ai4ai-4ai4ai.out
 54 57 0 0 0
SMALL
GASTEIGER

@<TRIPOS>ATOM
      1 C          -0.1705    0.1747   -1.1262 C.ar    1  LIG1       -0.0612
      2 C           1.2101    0.1950   -0.9912 C.ar    1  LIG1       -0.0538
      3 C          -0.9192    1.2330   -0.6295 C.ar    1  LIG1       -0.0615
      4 C           1.8688    1.2610   -0.3714 C.ar    1  LIG1       -0.0150
      5 H           1.8039   -0.6233   -1.3862 H       1  LIG1        0.0624
      6 C          -0.2764    2.2905   -0.0005 C.ar    1  LIG1       -0.0583
      7 C           1.1111    2.3299    0.1408 C.ar    1  LIG1       -0.0427
      8 H          -0.8650    3.1089    0.4046 H       1  LIG1        0.0620
      9 H          -2.0004    1.2340   -0.7236 H       1  LIG1        0.0618
     10 H          -0.6564   -0.6618   -1.6178 H       1  LIG1        0.0618
     11 C           1.7398    3.4982    0.8591 C.3     1  LIG1       -0.0391
     12 H           1.0141    3.9716    1.5244 H       1  LIG1        0.0278
     13 H           2.0881    4.2666    0.1613 H       1  LIG1        0.0278
     14 H           2.6024    3.1920    1.4539 H       1  LIG1        0.0278
     15 C           4.1649    2.2344   -0.7488 C.ar    1  LIG1       -0.0534
     16 C           5.5440    2.1330   -0.6622 C.ar    1  LIG1       -0.0532
     17 C           3.3529    1.2084   -0.2651 C.ar    1  LIG1       -0.0173
     18 C           6.1657    1.0142   -0.1009 C.ar    1  LIG1       -0.0149
     19 H           6.1655    2.9295   -1.0590 H       1  LIG1        0.0624
     20 C           3.9761    0.0964    0.3020 C.ar    1  LIG1       -0.0505
     21 C           5.3615   -0.0258    0.3973 C.ar    1  LIG1       -0.0422
     22 H           3.3541   -0.6974    0.7063 H       1  LIG1        0.0626
     23 H           3.7167    3.1048   -1.2157 H       1  LIG1        0.0624
     24 C           5.9391   -1.2524    1.0592 C.3     1  LIG1       -0.0391
     25 H           6.8363   -1.0177    1.6350 H       1  LIG1        0.0278
     26 H           6.2187   -2.0168    0.3270 H       1  LIG1        0.0278
     27 H           5.2063   -1.7029    1.7323 H       1  LIG1        0.0278
     28 C           8.3907   -0.0752   -0.5733 C.ar    1  LIG1       -0.0534
     29 C           9.7754   -0.0511   -0.5299 C.ar    1  LIG1       -0.0532
     30 C           7.6523    0.9824   -0.0419 C.ar    1  LIG1       -0.0173
     31 C          10.4748    1.0192    0.0340 C.ar    1  LIG1       -0.0149
     32 H          10.3396   -0.8713   -0.9628 H       1  LIG1        0.0624
     33 C           8.3536    2.0454    0.5285 C.ar    1  LIG1       -0.0505
     34 C           9.7458    2.0893    0.5813 C.ar    1  LIG1       -0.0422
     35 H           7.7893    2.8622    0.9700 H       1  LIG1        0.0626
     36 H           7.8807   -0.9090   -1.0435 H       1  LIG1        0.0624
     37 C          10.4125    3.2649    1.2521 C.3     1  LIG1       -0.0391
     38 H           9.7268    3.7411    1.9565 H       1  LIG1        0.0278
     39 H          10.7161    4.0285    0.5288 H       1  LIG1        0.0278
     40 H          11.3104    2.9645    1.7955 H       1  LIG1        0.0278
     41 C          12.6225   -0.1360    0.5868 C.ar    1  LIG1       -0.0540
     42 C          14.0101   -0.2010    0.5742 C.ar    1  LIG1       -0.0609
     43 C          11.9629    0.9685    0.0441 C.ar    1  LIG1       -0.0174
     44 C          14.7545    0.8296    0.0167 C.ar    1  LIG1       -0.0588
     45 H          14.5141   -1.0586    1.0085 H       1  LIG1        0.0618
     46 C          12.7295    1.9933   -0.5158 C.ar    1  LIG1       -0.0511
     47 C          14.1209    1.9402   -0.5416 C.ar    1  LIG1       -0.0499
     48 H          12.2259    2.8468   -0.9599 H       1  LIG1        0.0626
     49 H          15.8394    0.7741    0.0130 H       1  LIG1        0.0620
     50 H          12.0418   -0.9364    1.0338 H       1  LIG1        0.0624
     51 C          14.9226    3.0412   -1.1857 C.3     1  LIG1       -0.0397
     52 H          14.3618    3.9783   -1.2164 H       1  LIG1        0.0278
     53 H          15.1881    2.7842   -2.2167 H       1  LIG1        0.0278
     54 H          15.8558    3.2224   -0.6462 H       1  LIG1        0.0278
@<TRIPOS>BOND
     1    53    51    1
     2    10     1    1
     3     5     2    1
     4    52    51    1
     5    23    15    1
     6    51    54    1
     7    51    47    1
     8     1     2   ar
     9     1     3   ar
    10    19    16    1
    11    36    28    1
    12     2     4   ar
    13    32    29    1
    14    48    46    1
    15    15    16   ar
    16    15    17   ar
    17     9     3    1
    18    16    18   ar
    19     3     6   ar
    20    28    29   ar
    21    28    30   ar
    22    47    46   ar
    23    47    44   ar
    24    29    31   ar
    25    46    43   ar
    26     4    17    1
    27     4     7   ar
    28    17    20   ar
    29    18    30    1
    30    18    21   ar
    31    30    33   ar
    32     6     7   ar
    33     6     8    1
    34    49    44    1
    35    44    42   ar
    36    31    43    1
    37    31    34   ar
    38    43    41   ar
    39     7    11    1
    40    13    11    1
    41    20    21   ar
    42    20    22    1
    43    26    24    1
    44    21    24    1
    45    33    34   ar
    46    33    35    1
    47    39    37    1
    48    42    41   ar
    49    42    45    1
    50    34    37    1
    51    41    50    1
    52    11    14    1
    53    11    12    1
    54    24    25    1
    55    24    27    1
    56    37    40    1
    57    37    38    1
