@<TRIPOS>MOLECULE
mol_data/opt/cam/geoms/mol2/4ai4ai-4ai4ai-.out
 54 57 0 0 0
SMALL
GASTEIGER

@<TRIPOS>ATOM
      1 C          -0.2229    0.2065   -0.9195 C.ar    1  LIG1       -0.0612
      2 C           1.1625    0.2159   -0.8476 C.ar    1  LIG1       -0.0538
      3 C          -0.9388    1.2835   -0.4145 C.ar    1  LIG1       -0.0615
      4 C           1.8583    1.2892   -0.2834 C.ar    1  LIG1       -0.0150
      5 H           1.7302   -0.6173   -1.2499 H       1  LIG1        0.0624
      6 C          -0.2585    2.3486    0.1598 C.ar    1  LIG1       -0.0583
      7 C           1.1343    2.3771    0.2373 C.ar    1  LIG1       -0.0427
      8 H          -0.8206    3.1821    0.5717 H       1  LIG1        0.0620
      9 H          -2.0231    1.2932   -0.4596 H       1  LIG1        0.0618
     10 H          -0.7382   -0.6362   -1.3689 H       1  LIG1        0.0618
     11 C           1.8056    3.5553    0.8986 C.3     1  LIG1       -0.0391
     12 H           1.1146    4.0521    1.5836 H       1  LIG1        0.0278
     13 H           2.1299    4.3032    0.1678 H       1  LIG1        0.0278
     14 H           2.6907    3.2542    1.4621 H       1  LIG1        0.0278
     15 C           4.1427    2.2303   -0.7901 C.ar    1  LIG1       -0.0534
     16 C           5.5234    2.1176   -0.7643 C.ar    1  LIG1       -0.0532
     17 C           3.3452    1.2248   -0.2435 C.ar    1  LIG1       -0.0173
     18 C           6.1606    1.0074   -0.2032 C.ar    1  LIG1       -0.0149
     19 H           6.1330    2.8976   -1.2095 H       1  LIG1        0.0624
     20 C           3.9841    0.1215    0.3232 C.ar    1  LIG1       -0.0505
     21 C           5.3714   -0.0116    0.3584 C.ar    1  LIG1       -0.0422
     22 H           3.3743   -0.6556    0.7755 H       1  LIG1        0.0626
     23 H           3.6809    3.0929   -1.2582 H       1  LIG1        0.0624
     24 C           5.9687   -1.2256    1.0262 C.3     1  LIG1       -0.0391
     25 H           6.8926   -0.9833    1.5546 H       1  LIG1        0.0278
     26 H           6.2094   -2.0114    0.3029 H       1  LIG1        0.0278
     27 H           5.2635   -1.6517    1.7432 H       1  LIG1        0.0278
     28 C           8.3524   -0.1152   -0.7484 C.ar    1  LIG1       -0.0534
     29 C           9.7377   -0.1023   -0.7711 C.ar    1  LIG1       -0.0532
     30 C           7.6480    0.9631   -0.2124 C.ar    1  LIG1       -0.0173
     31 C          10.4715    0.9768   -0.2711 C.ar    1  LIG1       -0.0149
     32 H          10.2741   -0.9390   -1.2075 H       1  LIG1        0.0624
     33 C           8.3837    2.0350    0.2941 C.ar    1  LIG1       -0.0505
     34 C           9.7773    2.0682    0.2794 C.ar    1  LIG1       -0.0422
     35 H           7.8477    2.8690    0.7386 H       1  LIG1        0.0626
     36 H           7.8144   -0.9568   -1.1711 H       1  LIG1        0.0624
     37 C          10.4833    3.2573    0.8826 C.3     1  LIG1       -0.0391
     38 H           9.8372    3.7563    1.6084 H       1  LIG1        0.0278
     39 H          10.7517    3.9995    0.1240 H       1  LIG1        0.0278
     40 H          11.4071    2.9671    1.3864 H       1  LIG1        0.0278
     41 C          12.7077    1.9167   -0.9486 C.ar    1  LIG1       -0.0540
     42 C          14.0914    1.8163   -1.0156 C.ar    1  LIG1       -0.0609
     43 C          11.9579    0.9148   -0.3304 C.ar    1  LIG1       -0.0174
     44 C          14.7429    0.7190   -0.4690 C.ar    1  LIG1       -0.0588
     45 H          14.6657    2.5991   -1.5012 H       1  LIG1        0.0618
     46 C          12.6316   -0.1845    0.2090 C.ar    1  LIG1       -0.0511
     47 C          14.0183   -0.3001    0.1495 C.ar    1  LIG1       -0.0499
     48 H          12.0539   -0.9628    0.7000 H       1  LIG1        0.0626
     49 H          15.8259    0.6506   -0.5216 H       1  LIG1        0.0620
     50 H          12.2037    2.7679   -1.3936 H       1  LIG1        0.0624
     51 C          14.7197   -1.5035    0.7232 C.3     1  LIG1       -0.0397
     52 H          15.6310   -1.2175    1.2552 H       1  LIG1        0.0278
     53 H          15.0120   -2.2033   -0.0669 H       1  LIG1        0.0278
     54 H          14.0771   -2.0452    1.4208 H       1  LIG1        0.0278
@<TRIPOS>BOND
     1    45    42    1
     2    50    41    1
     3    10     1    1
     4    23    15    1
     5     5     2    1
     6    19    16    1
     7    32    29    1
     8    36    28    1
     9    42    41   ar
    10    42    44   ar
    11    41    43   ar
    12     1     2   ar
    13     1     3   ar
    14     2     4   ar
    15    15    16   ar
    16    15    17   ar
    17    29    28   ar
    18    29    31   ar
    19    16    18   ar
    20    28    30   ar
    21    49    44    1
    22    44    47   ar
    23     9     3    1
    24     3     6   ar
    25    43    31    1
    26    43    46   ar
    27     4    17    1
    28     4     7   ar
    29    31    34   ar
    30    17    20   ar
    31    30    18    1
    32    30    33   ar
    33    18    21   ar
    34    53    51    1
    35    39    37    1
    36    47    46   ar
    37    47    51    1
    38     6     7   ar
    39     6     8    1
    40    13    11    1
    41    46    48    1
    42     7    11    1
    43    34    33   ar
    44    34    37    1
    45    33    35    1
    46    26    24    1
    47    20    21   ar
    48    20    22    1
    49    21    24    1
    50    51    52    1
    51    51    54    1
    52    37    40    1
    53    37    38    1
    54    11    14    1
    55    11    12    1
    56    24    25    1
    57    24    27    1
