@<TRIPOS>MOLECULE
mol_data/opt/cam/geoms/mol2/4ai4ai-4ai-4ai.out
 54 57 0 0 0
SMALL
GASTEIGER

@<TRIPOS>ATOM
      1 C          -0.2415   -0.0443   -0.2150 C.ar    1  LIG1       -0.0612
      2 C           1.1454   -0.0131   -0.2055 C.ar    1  LIG1       -0.0538
      3 C          -0.9501    1.1494   -0.1908 C.ar    1  LIG1       -0.0615
      4 C           1.8495    1.1944   -0.1787 C.ar    1  LIG1       -0.0150
      5 H           1.7071   -0.9415   -0.2350 H       1  LIG1        0.0624
      6 C          -0.2611    2.3537   -0.1506 C.ar    1  LIG1       -0.0583
      7 C           1.1333    2.4045   -0.1444 C.ar    1  LIG1       -0.0427
      8 H          -0.8168    3.2865   -0.1123 H       1  LIG1        0.0620
      9 H          -2.0354    1.1451   -0.1955 H       1  LIG1        0.0618
     10 H          -0.7638   -0.9951   -0.2431 H       1  LIG1        0.0618
     11 C           1.8154    3.7482   -0.0728 C.3     1  LIG1       -0.0391
     12 H           1.1459    4.4922    0.3650 H       1  LIG1        0.0278
     13 H           2.1009    4.1141   -1.0643 H       1  LIG1        0.0278
     14 H           2.7259    3.7096    0.5281 H       1  LIG1        0.0278
     15 C           4.1046    1.8146   -1.1231 C.ar    1  LIG1       -0.0534
     16 C           5.4865    1.7167   -1.1015 C.ar    1  LIG1       -0.0532
     17 C           3.3375    1.1446   -0.1697 C.ar    1  LIG1       -0.0173
     18 C           6.1545    0.9507   -0.1423 C.ar    1  LIG1       -0.0149
     19 H           6.0717    2.2281   -1.8593 H       1  LIG1        0.0624
     20 C           4.0077    0.3874    0.7914 C.ar    1  LIG1       -0.0505
     21 C           5.3967    0.2749    0.8299 C.ar    1  LIG1       -0.0422
     22 H           3.4227   -0.1173    1.5554 H       1  LIG1        0.0626
     23 H           3.6174    2.3962   -1.8983 H       1  LIG1        0.0624
     24 C           6.0307   -0.5391    1.9308 C.3     1  LIG1       -0.0391
     25 H           6.9721   -0.1010    2.2674 H       1  LIG1        0.0278
     26 H           6.2503   -1.5614    1.6064 H       1  LIG1        0.0278
     27 H           5.3577   -0.6099    2.7882 H       1  LIG1        0.0278
     28 C           8.3857    2.0822   -0.1912 C.ar    1  LIG1       -0.0534
     29 C           9.7692    2.0361   -0.2592 C.ar    1  LIG1       -0.0532
     30 C           7.6414    0.9022   -0.1840 C.ar    1  LIG1       -0.0173
     31 C          10.4599    0.8243   -0.3347 C.ar    1  LIG1       -0.0149
     32 H          10.3373    2.9611   -0.2665 H       1  LIG1        0.0624
     33 C           8.3347   -0.3065   -0.2500 C.ar    1  LIG1       -0.0505
     34 C           9.7246   -0.3743   -0.3270 C.ar    1  LIG1       -0.0422
     35 H           7.7712   -1.2347   -0.2516 H       1  LIG1        0.0626
     36 H           7.8759    3.0384   -0.1314 H       1  LIG1        0.0624
     37 C          10.3854   -1.7296   -0.3781 C.3     1  LIG1       -0.0391
     38 H          11.3259   -1.7425    0.1760 H       1  LIG1        0.0278
     39 H          10.6143   -2.0328   -1.4047 H       1  LIG1        0.0278
     40 H           9.7266   -2.4917    0.0443 H       1  LIG1        0.0278
     41 C          12.6459    0.2379   -1.4414 C.ar    1  LIG1       -0.0540
     42 C          14.0316    0.3103   -1.4938 C.ar    1  LIG1       -0.0609
     43 C          11.9471    0.8561   -0.4027 C.ar    1  LIG1       -0.0174
     44 C          14.7364    0.9981   -0.5144 C.ar    1  LIG1       -0.0588
     45 H          14.5663   -0.1713   -2.3065 H       1  LIG1        0.0618
     46 C          12.6735    1.5477    0.5699 C.ar    1  LIG1       -0.0511
     47 C          14.0638    1.6302    0.5308 C.ar    1  LIG1       -0.0499
     48 H          12.1356    2.0218    1.3862 H       1  LIG1        0.0626
     49 H          15.8208    1.0454   -0.5600 H       1  LIG1        0.0620
     50 H          12.1004   -0.2862   -2.2188 H       1  LIG1        0.0624
     51 C          14.8202    2.4013    1.5809 C.3     1  LIG1       -0.0397
     52 H          14.2511    2.4733    2.5106 H       1  LIG1        0.0278
     53 H          15.0298    3.4226    1.2450 H       1  LIG1        0.0278
     54 H          15.7804    1.9307    1.8069 H       1  LIG1        0.0278
@<TRIPOS>BOND
     1    45    42    1
     2    50    41    1
     3    23    15    1
     4    19    16    1
     5    42    41   ar
     6    42    44   ar
     7    41    43   ar
     8    39    37    1
     9    15    16   ar
    10    15    17   ar
    11    16    18   ar
    12    13    11    1
    13    49    44    1
    14    44    47   ar
    15    43    31    1
    16    43    46   ar
    17    37    34    1
    18    37    40    1
    19    37    38    1
    20    31    34   ar
    21    31    29   ar
    22    34    33   ar
    23    32    29    1
    24    29    28   ar
    25    35    33    1
    26    33    30   ar
    27    10     1    1
    28     5     2    1
    29     1     2   ar
    30     1     3   ar
    31     2     4   ar
    32     9     3    1
    33    28    30   ar
    34    28    36    1
    35     3     6   ar
    36    30    18    1
    37     4    17    1
    38     4     7   ar
    39    17    20   ar
    40     6     7   ar
    41     6     8    1
    42     7    11    1
    43    18    21   ar
    44    11    12    1
    45    11    14    1
    46    47    46   ar
    47    47    51    1
    48    46    48    1
    49    20    21   ar
    50    20    22    1
    51    21    24    1
    52    53    51    1
    53    51    54    1
    54    51    52    1
    55    26    24    1
    56    24    25    1
    57    24    27    1
