@<TRIPOS>MOLECULE
mol_data/opt/cam/geoms/mol2/4ai4ai-4ai-4ai-.out
 54 57 0 0 0
SMALL
GASTEIGER

@<TRIPOS>ATOM
      1 C          -0.2501    0.1259   -0.6008 C.ar    1  LIG1       -0.0612
      2 C           1.1309    0.1060   -0.4699 C.ar    1  LIG1       -0.0538
      3 C          -0.9182    1.3428   -0.5873 C.ar    1  LIG1       -0.0615
      4 C           1.8693    1.2849   -0.3308 C.ar    1  LIG1       -0.0150
      5 H           1.6622   -0.8403   -0.4902 H       1  LIG1        0.0624
      6 C          -0.1961    2.5186   -0.4365 C.ar    1  LIG1       -0.0583
      7 C           1.1932    2.5182   -0.3075 C.ar    1  LIG1       -0.0427
      8 H          -0.7220    3.4688   -0.4070 H       1  LIG1        0.0620
      9 H          -1.9984    1.3784   -0.6861 H       1  LIG1        0.0618
     10 H          -0.7989   -0.8033   -0.7145 H       1  LIG1        0.0618
     11 C           1.9108    3.8321   -0.1204 C.3     1  LIG1       -0.0391
     12 H           1.2288    4.5847    0.2818 H       1  LIG1        0.0278
     13 H           2.3013    4.2219   -1.0659 H       1  LIG1        0.0278
     14 H           2.7585    3.7377    0.5609 H       1  LIG1        0.0278
     15 C           4.2186    1.8581   -1.0488 C.ar    1  LIG1       -0.0534
     16 C           5.5890    1.7055   -0.9139 C.ar    1  LIG1       -0.0532
     17 C           3.3483    1.1796   -0.1954 C.ar    1  LIG1       -0.0173
     18 C           6.1441    0.8749    0.0637 C.ar    1  LIG1       -0.0149
     19 H           6.2555    2.2239   -1.5960 H       1  LIG1        0.0624
     20 C           3.9054    0.3590    0.7855 C.ar    1  LIG1       -0.0505
     21 C           5.2810    0.1912    0.9378 C.ar    1  LIG1       -0.0422
     22 H           3.2388   -0.1535    1.4736 H       1  LIG1        0.0626
     23 H           3.8216    2.4894   -1.8365 H       1  LIG1        0.0624
     24 C           5.7855   -0.6900    2.0538 C.3     1  LIG1       -0.0391
     25 H           6.7137   -0.3089    2.4833 H       1  LIG1        0.0278
     26 H           5.9862   -1.7096    1.7091 H       1  LIG1        0.0278
     27 H           5.0408   -0.7596    2.8500 H       1  LIG1        0.0278
     28 C           8.4140    1.9153    0.2322 C.ar    1  LIG1       -0.0534
     29 C           9.7956    1.8141    0.2742 C.ar    1  LIG1       -0.0532
     30 C           7.6263    0.7671    0.1435 C.ar    1  LIG1       -0.0173
     31 C          10.4425    0.5773    0.2183 C.ar    1  LIG1       -0.0149
     32 H          10.3981    2.7147    0.3407 H       1  LIG1        0.0624
     33 C           8.2752   -0.4668    0.0981 C.ar    1  LIG1       -0.0505
     34 C           9.6630   -0.5898    0.1321 C.ar    1  LIG1       -0.0422
     35 H           7.6782   -1.3707    0.0232 H       1  LIG1        0.0626
     36 H           7.9387    2.8898    0.2800 H       1  LIG1        0.0624
     37 C          10.2722   -1.9696    0.0965 C.3     1  LIG1       -0.0391
     38 H          11.1644   -2.0342    0.7221 H       1  LIG1        0.0278
     39 H          10.5696   -2.2577   -0.9168 H       1  LIG1        0.0278
     40 H           9.5525   -2.7136    0.4456 H       1  LIG1        0.0278
     41 C          12.6058    1.1818    1.3159 C.ar    1  LIG1       -0.0540
     42 C          13.9949    1.1835    1.3551 C.ar    1  LIG1       -0.0609
     43 C          11.9304    0.5502    0.2704 C.ar    1  LIG1       -0.0174
     44 C          14.7245    0.5613    0.3521 C.ar    1  LIG1       -0.0588
     45 H          14.5107    1.6688    2.1778 H       1  LIG1        0.0618
     46 C          12.6830   -0.0671   -0.7324 C.ar    1  LIG1       -0.0511
     47 C          14.0750   -0.0697   -0.7101 C.ar    1  LIG1       -0.0499
     48 H          12.1682   -0.5421   -1.5622 H       1  LIG1        0.0626
     49 H          15.8102    0.5639    0.3903 H       1  LIG1        0.0620
     50 H          12.0363    1.6586    2.1071 H       1  LIG1        0.0624
     51 C          14.8657   -0.7154   -1.8181 C.3     1  LIG1       -0.0397
     52 H          15.6954   -1.3072   -1.4219 H       1  LIG1        0.0278
     53 H          15.2957    0.0374   -2.4871 H       1  LIG1        0.0278
     54 H          14.2398   -1.3746   -2.4235 H       1  LIG1        0.0278
@<TRIPOS>BOND
     1    53    51    1
     2    54    51    1
     3    23    15    1
     4    51    52    1
     5    51    47    1
     6    19    16    1
     7    48    46    1
     8    13    11    1
     9    15    16   ar
    10    15    17   ar
    11    39    37    1
    12    16    18   ar
    13    46    47   ar
    14    46    43   ar
    15    10     1    1
    16    47    44   ar
    17     9     3    1
    18     1     3   ar
    19     1     2   ar
    20     3     6   ar
    21     5     2    1
    22     2     4   ar
    23     6     8    1
    24     6     7   ar
    25     4     7   ar
    26     4    17    1
    27     7    11    1
    28    17    20   ar
    29    11    12    1
    30    11    14    1
    31    35    33    1
    32    18    30    1
    33    18    21   ar
    34    37    34    1
    35    37    40    1
    36    37    38    1
    37    33    34   ar
    38    33    30   ar
    39    34    31   ar
    40    30    28   ar
    41    31    43    1
    42    31    29   ar
    43    28    29   ar
    44    28    36    1
    45    43    41   ar
    46    29    32    1
    47    44    49    1
    48    44    42   ar
    49    20    21   ar
    50    20    22    1
    51    21    24    1
    52    41    42   ar
    53    41    50    1
    54    42    45    1
    55    26    24    1
    56    24    25    1
    57    24    27    1
