@<TRIPOS>MOLECULE
mol_data/opt/cam/geoms/mol2/4ai4ai4ai-4ai.out
 54 57 0 0 0
SMALL
GASTEIGER

@<TRIPOS>ATOM
      1 C          -0.1369    0.6484   -1.5733 C.ar    1  LIG1       -0.0612
      2 C           1.2442    0.6761   -1.4439 C.ar    1  LIG1       -0.0538
      3 C          -0.9231    1.2893   -0.6254 C.ar    1  LIG1       -0.0615
      4 C           1.8656    1.3409   -0.3827 C.ar    1  LIG1       -0.0150
      5 H           1.8666    0.1860   -2.1860 H       1  LIG1        0.0624
      6 C          -0.3166    1.9408    0.4398 C.ar    1  LIG1       -0.0583
      7 C           1.0705    1.9820    0.5843 C.ar    1  LIG1       -0.0427
      8 H          -0.9337    2.4252    1.1914 H       1  LIG1        0.0620
      9 H          -2.0051    1.2766   -0.7086 H       1  LIG1        0.0618
     10 H          -0.5941    0.1308   -2.4104 H       1  LIG1        0.0618
     11 C           1.6611    2.6837    1.7822 C.3     1  LIG1       -0.0391
     12 H           0.9325    2.7288    2.5949 H       1  LIG1        0.0278
     13 H           1.9509    3.7136    1.5501 H       1  LIG1        0.0278
     14 H           2.5546    2.1754    2.1494 H       1  LIG1        0.0278
     15 C           4.0460    0.1121   -0.3348 C.ar    1  LIG1       -0.0534
     16 C           5.4315    0.0990   -0.2993 C.ar    1  LIG1       -0.0532
     17 C           3.3529    1.3225   -0.3131 C.ar    1  LIG1       -0.0173
     18 C           6.1758    1.2805   -0.2535 C.ar    1  LIG1       -0.0149
     19 H           5.9596   -0.8491   -0.3201 H       1  LIG1        0.0624
     20 C           4.0983    2.5001   -0.2576 C.ar    1  LIG1       -0.0505
     21 C           5.4916    2.5090   -0.2288 C.ar    1  LIG1       -0.0422
     22 H           3.5751    3.4517   -0.2451 H       1  LIG1        0.0626
     23 H           3.4939   -0.8216   -0.3688 H       1  LIG1        0.0624
     24 C           6.2081    3.8345   -0.1499 C.3     1  LIG1       -0.0391
     25 H           5.5521    4.5977    0.2748 H       1  LIG1        0.0278
     26 H           6.5193    4.1892   -1.1377 H       1  LIG1        0.0278
     27 H           7.1073    3.7725    0.4659 H       1  LIG1        0.0278
     28 C           8.4685    1.8426   -1.1427 C.ar    1  LIG1       -0.0534
     29 C           9.8457    1.6989   -1.0945 C.ar    1  LIG1       -0.0532
     30 C           7.6603    1.1838   -0.2157 C.ar    1  LIG1       -0.0173
     31 C          10.4689    0.8974   -0.1342 C.ar    1  LIG1       -0.0149
     32 H          10.4627    2.2016   -1.8327 H       1  LIG1        0.0624
     33 C           8.2859    0.3906    0.7468 C.ar    1  LIG1       -0.0505
     34 C           9.6693    0.2322    0.8116 C.ar    1  LIG1       -0.0422
     35 H           7.6694   -0.1064    1.4906 H       1  LIG1        0.0626
     36 H           8.0171    2.4507   -1.9191 H       1  LIG1        0.0624
     37 C          10.2530   -0.6192    1.9121 C.3     1  LIG1       -0.0391
     38 H          11.1962   -0.2126    2.2819 H       1  LIG1        0.0278
     39 H          10.4553   -1.6403    1.5733 H       1  LIG1        0.0278
     40 H           9.5559   -0.6889    2.7501 H       1  LIG1        0.0278
     41 C          12.6052   -0.4356   -0.2102 C.ar    1  LIG1       -0.0540
     42 C          13.9920   -0.4952   -0.2503 C.ar    1  LIG1       -0.0609
     43 C          11.9544    0.7979   -0.1465 C.ar    1  LIG1       -0.0174
     44 C          14.7459    0.6708   -0.2280 C.ar    1  LIG1       -0.0588
     45 H          14.4888   -1.4589   -0.3022 H       1  LIG1        0.0618
     46 C          12.7303    1.9598   -0.1306 C.ar    1  LIG1       -0.0511
     47 C          14.1222    1.9169   -0.1714 C.ar    1  LIG1       -0.0499
     48 H          12.2300    2.9224   -0.0706 H       1  LIG1        0.0626
     49 H          15.8305    0.6151   -0.2543 H       1  LIG1        0.0620
     50 H          12.0222   -1.3495   -0.2460 H       1  LIG1        0.0624
     51 C          14.9337    3.1861   -0.1745 C.3     1  LIG1       -0.0397
     52 H          14.3717    4.0203    0.2516 H       1  LIG1        0.0278
     53 H          15.2189    3.4688   -1.1935 H       1  LIG1        0.0278
     54 H          15.8564    3.0707    0.4000 H       1  LIG1        0.0278
@<TRIPOS>BOND
     1    10     1    1
     2     5     2    1
     3    36    28    1
     4    32    29    1
     5     1     2   ar
     6     1     3   ar
     7     2     4   ar
     8    53    51    1
     9    28    29   ar
    10    28    30   ar
    11    26    24    1
    12    29    31   ar
    13     9     3    1
    14     3     6   ar
    15     4    17    1
    16     4     7   ar
    17    23    15    1
    18    15    17   ar
    19    15    16   ar
    20    19    16    1
    21    17    20   ar
    22    45    42    1
    23    16    18   ar
    24    20    22    1
    25    20    21   ar
    26    49    44    1
    27    18    21   ar
    28    18    30    1
    29    42    44   ar
    30    42    41   ar
    31    50    41    1
    32    21    24    1
    33    44    47   ar
    34    30    33   ar
    35    41    43   ar
    36    51    47    1
    37    51    52    1
    38    51    54    1
    39    47    46   ar
    40    24    25    1
    41    24    27    1
    42    43    31    1
    43    43    46   ar
    44    31    34   ar
    45    46    48    1
    46     6     7   ar
    47     6     8    1
    48     7    11    1
    49    33    34   ar
    50    33    35    1
    51    34    37    1
    52    13    11    1
    53    39    37    1
    54    11    14    1
    55    11    12    1
    56    37    38    1
    57    37    40    1
