@<TRIPOS>MOLECULE
mol_data/opt/cam/geoms/mol2/4ai4ai4ai-4ai-.out
 54 57 0 0 0
SMALL
GASTEIGER

@<TRIPOS>ATOM
      1 C          -0.1195    0.6068   -1.5512 C.ar    1  LIG1       -0.0612
      2 C           1.2608    0.6437   -1.4172 C.ar    1  LIG1       -0.0538
      3 C          -0.9118    1.2771   -0.6290 C.ar    1  LIG1       -0.0615
      4 C           1.8759    1.3471   -0.3773 C.ar    1  LIG1       -0.0150
      5 H           1.8880    0.1304   -2.1394 H       1  LIG1        0.0624
      6 C          -0.3118    1.9669    0.4155 C.ar    1  LIG1       -0.0583
      7 C           1.0747    2.0183    0.5639 C.ar    1  LIG1       -0.0427
      8 H          -0.9334    2.4747    1.1476 H       1  LIG1        0.0620
      9 H          -1.9934    1.2578   -0.7159 H       1  LIG1        0.0618
     10 H          -0.5715    0.0591   -2.3717 H       1  LIG1        0.0618
     11 C           1.6570    2.7640    1.7390 C.3     1  LIG1       -0.0391
     12 H           0.9266    2.8288    2.5488 H       1  LIG1        0.0278
     13 H           1.9368    3.7888    1.4736 H       1  LIG1        0.0278
     14 H           2.5547    2.2770    2.1242 H       1  LIG1        0.0278
     15 C           4.0598    0.1274   -0.2887 C.ar    1  LIG1       -0.0534
     16 C           5.4451    0.1193   -0.2512 C.ar    1  LIG1       -0.0532
     17 C           3.3630    1.3360   -0.3026 C.ar    1  LIG1       -0.0173
     18 C           6.1860    1.3038   -0.2382 C.ar    1  LIG1       -0.0149
     19 H           5.9760   -0.8275   -0.2445 H       1  LIG1        0.0624
     20 C           4.1050    2.5168   -0.2794 C.ar    1  LIG1       -0.0505
     21 C           5.4983    2.5305   -0.2489 C.ar    1  LIG1       -0.0422
     22 H           3.5791    3.4668   -0.2954 H       1  LIG1        0.0626
     23 H           3.5104   -0.8085   -0.2968 H       1  LIG1        0.0624
     24 C           6.2111    3.8597   -0.2075 C.3     1  LIG1       -0.0391
     25 H           5.5548    4.6318    0.2004 H       1  LIG1        0.0278
     26 H           6.5165    4.1895   -1.2057 H       1  LIG1        0.0278
     27 H           7.1133    3.8162    0.4053 H       1  LIG1        0.0278
     28 C           8.4768    1.8447   -1.1443 C.ar    1  LIG1       -0.0534
     29 C           9.8545    1.7053   -1.0933 C.ar    1  LIG1       -0.0532
     30 C           7.6708    1.2124   -0.1973 C.ar    1  LIG1       -0.0173
     31 C          10.4794    0.9337   -0.1101 C.ar    1  LIG1       -0.0149
     32 H          10.4701    2.1870   -1.8465 H       1  LIG1        0.0624
     33 C           8.2986    0.4502    0.7886 C.ar    1  LIG1       -0.0505
     34 C           9.6823    0.2964    0.8566 C.ar    1  LIG1       -0.0422
     35 H           7.6835   -0.0249    1.5478 H       1  LIG1        0.0626
     36 H           8.0234    2.4284   -1.9382 H       1  LIG1        0.0624
     37 C          10.2702   -0.5195    1.9815 C.3     1  LIG1       -0.0391
     38 H          11.2122   -0.0981    2.3375 H       1  LIG1        0.0278
     39 H          10.4758   -1.5496    1.6733 H       1  LIG1        0.0278
     40 H           9.5744   -0.5664    2.8222 H       1  LIG1        0.0278
     41 C          12.7441    1.9937   -0.1255 C.ar    1  LIG1       -0.0540
     42 C          14.1301    1.9075   -0.1643 C.ar    1  LIG1       -0.0609
     43 C          11.9651    0.8351   -0.1221 C.ar    1  LIG1       -0.0174
     44 C          14.7540    0.6682   -0.2057 C.ar    1  LIG1       -0.0588
     45 H          14.7276    2.8137   -0.1554 H       1  LIG1        0.0618
     46 C          12.6116   -0.4025   -0.1680 C.ar    1  LIG1       -0.0511
     47 C          13.9996   -0.5055   -0.2134 C.ar    1  LIG1       -0.0499
     48 H          12.0144   -1.3093   -0.1872 H       1  LIG1        0.0626
     49 H          15.8383    0.6079   -0.2325 H       1  LIG1        0.0620
     50 H          12.2578    2.9628   -0.0809 H       1  LIG1        0.0624
     51 C          14.6711   -1.8513   -0.3003 C.3     1  LIG1       -0.0397
     52 H          15.5971   -1.8725    0.2802 H       1  LIG1        0.0278
     53 H          14.9314   -2.0959   -1.3357 H       1  LIG1        0.0278
     54 H          14.0209   -2.6471    0.0703 H       1  LIG1        0.0278
@<TRIPOS>BOND
     1    10     1    1
     2     5     2    1
     3    36    28    1
     4    32    29    1
     5     1     2   ar
     6     1     3   ar
     7     2     4   ar
     8    53    51    1
     9    26    24    1
    10    28    29   ar
    11    28    30   ar
    12    29    31   ar
    13     9     3    1
    14     3     6   ar
    15     4    17    1
    16     4     7   ar
    17    17    15   ar
    18    17    20   ar
    19    51    47    1
    20    51    54    1
    21    51    52    1
    22    23    15    1
    23    22    20    1
    24    15    16   ar
    25    20    21   ar
    26    16    19    1
    27    16    18   ar
    28    21    18   ar
    29    21    24    1
    30    18    30    1
    31    49    44    1
    32    47    44   ar
    33    47    46   ar
    34    24    25    1
    35    24    27    1
    36    44    42   ar
    37    30    33   ar
    38    48    46    1
    39    46    43   ar
    40    42    45    1
    41    42    41   ar
    42    41    43   ar
    43    41    50    1
    44    43    31    1
    45    31    34   ar
    46     6     7   ar
    47     6     8    1
    48     7    11    1
    49    33    34   ar
    50    33    35    1
    51    34    37    1
    52    13    11    1
    53    39    37    1
    54    11    14    1
    55    11    12    1
    56    37    38    1
    57    37    40    1
