@<TRIPOS>MOLECULE
mol_data/opt/cam/geoms/mol2/4ai4ai4ai4ai.out
 54 57 0 0 0
SMALL
GASTEIGER

@<TRIPOS>ATOM
      1 C           0.0433    1.0596   -2.0602 C.ar    1  LIG1       -0.0612
      2 C           1.4044    1.1332   -1.8012 C.ar    1  LIG1       -0.0538
      3 C          -0.8585    1.2282   -1.0182 C.ar    1  LIG1       -0.0615
      4 C           1.8912    1.3803   -0.5144 C.ar    1  LIG1       -0.0150
      5 H           2.1163    1.0122   -2.6117 H       1  LIG1        0.0624
      6 C          -0.3853    1.4604    0.2660 C.ar    1  LIG1       -0.0583
      7 C           0.9795    1.5412    0.5445 C.ar    1  LIG1       -0.0427
      8 H          -1.0917    1.5727    1.0838 H       1  LIG1        0.0620
      9 H          -1.9269    1.1717   -1.2007 H       1  LIG1        0.0618
     10 H          -0.3087    0.8732   -3.0696 H       1  LIG1        0.0618
     11 C           1.4242    1.7678    1.9682 C.3     1  LIG1       -0.0391
     12 H           0.6440    1.4541    2.6656 H       1  LIG1        0.0278
     13 H           1.6312    2.8241    2.1680 H       1  LIG1        0.0278
     14 H           2.3357    1.2140    2.2009 H       1  LIG1        0.0278
     15 C           4.1782    0.3858   -0.7306 C.ar    1  LIG1       -0.0534
     16 C           5.5534    0.4587   -0.5744 C.ar    1  LIG1       -0.0532
     17 C           3.3661    1.4425   -0.3183 C.ar    1  LIG1       -0.0173
     18 C           6.1698    1.5819   -0.0175 C.ar    1  LIG1       -0.0149
     19 H           6.1753   -0.3688   -0.9012 H       1  LIG1        0.0624
     20 C           3.9837    2.5583    0.2463 C.ar    1  LIG1       -0.0505
     21 C           5.3650    2.6545    0.4057 C.ar    1  LIG1       -0.0422
     22 H           3.3669    3.3923    0.5679 H       1  LIG1        0.0626
     23 H           3.7262   -0.4999   -1.1653 H       1  LIG1        0.0624
     24 C           5.9391    3.8945    1.0454 C.3     1  LIG1       -0.0391
     25 H           5.1873    4.3867    1.6666 H       1  LIG1        0.0278
     26 H           6.2683    4.6235    0.2979 H       1  LIG1        0.0278
     27 H           6.8040    3.6636    1.6700 H       1  LIG1        0.0278
     28 C           8.2982    0.5373    0.7814 C.ar    1  LIG1       -0.0534
     29 C           9.6804    0.5226    0.8831 C.ar    1  LIG1       -0.0532
     30 C           7.6519    1.5819    0.1198 C.ar    1  LIG1       -0.0173
     31 C          10.4674    1.5325    0.3246 C.ar    1  LIG1       -0.0149
     32 H          10.1719   -0.2966    1.3985 H       1  LIG1        0.0624
     33 C           8.4403    2.5935   -0.4287 C.ar    1  LIG1       -0.0505
     34 C           9.8314    2.5937   -0.3436 C.ar    1  LIG1       -0.0422
     35 H           7.9547    3.4115   -0.9525 H       1  LIG1        0.0626
     36 H           7.7118   -0.2598    1.2270 H       1  LIG1        0.0624
     37 C          10.5984    3.7420   -0.9516 C.3     1  LIG1       -0.0391
     38 H           9.9574    4.6213   -1.0466 H       1  LIG1        0.0278
     39 H          10.9680    3.5007   -1.9533 H       1  LIG1        0.0278
     40 H          11.4664    4.0127   -0.3473 H       1  LIG1        0.0278
     41 C          12.5106    1.3150    1.7488 C.ar    1  LIG1       -0.0540
     42 C          13.8878    1.2093    1.8975 C.ar    1  LIG1       -0.0609
     43 C          11.9462    1.4484    0.4789 C.ar    1  LIG1       -0.0174
     44 C          14.7160    1.2299    0.7837 C.ar    1  LIG1       -0.0588
     45 H          14.3179    1.1169    2.8898 H       1  LIG1        0.0618
     46 C          12.7961    1.4628   -0.6299 C.ar    1  LIG1       -0.0511
     47 C          14.1780    1.3519   -0.4979 C.ar    1  LIG1       -0.0499
     48 H          12.3662    1.5441   -1.6238 H       1  LIG1        0.0626
     49 H          15.7924    1.1500    0.9071 H       1  LIG1        0.0620
     50 H          11.8647    1.3108    2.6209 H       1  LIG1        0.0624
     51 C          15.0701    1.3330   -1.7117 C.3     1  LIG1       -0.0397
     52 H          14.5773    1.7824   -2.5769 H       1  LIG1        0.0278
     53 H          15.3426    0.3080   -1.9848 H       1  LIG1        0.0278
     54 H          16.0003    1.8781   -1.5308 H       1  LIG1        0.0278
@<TRIPOS>BOND
     1    10     1    1
     2     5     2    1
     3    52    51    1
     4     1     2   ar
     5     1     3   ar
     6    53    51    1
     7    39    37    1
     8     2     4   ar
     9    51    54    1
    10    51    47    1
    11    48    46    1
    12     9     3    1
    13    23    15    1
    14    38    37    1
    15     3     6   ar
    16    35    33    1
    17    37    40    1
    18    37    34    1
    19    19    16    1
    20    15    16   ar
    21    15    17   ar
    22    46    47   ar
    23    46    43   ar
    24    16    18   ar
    25     4    17    1
    26     4     7   ar
    27    47    44   ar
    28    33    34   ar
    29    33    30   ar
    30    34    31   ar
    31    17    20   ar
    32    18    30    1
    33    18    21   ar
    34    30    28   ar
    35    20    21   ar
    36    20    22    1
    37     6     7   ar
    38     6     8    1
    39    26    24    1
    40    31    43    1
    41    31    29   ar
    42    21    24    1
    43    43    41   ar
    44     7    11    1
    45    28    29   ar
    46    28    36    1
    47    44    49    1
    48    44    42   ar
    49    29    32    1
    50    24    25    1
    51    24    27    1
    52    41    42   ar
    53    41    50    1
    54    42    45    1
    55    11    13    1
    56    11    14    1
    57    11    12    1
