@<TRIPOS>MOLECULE
mol_data/opt/cam/geoms/mol2/4ai4ai4ai4ai-.out
 54 57 0 0 0
SMALL
GASTEIGER

@<TRIPOS>ATOM
      1 C          -0.1211    1.4747   -1.7825 C.ar    1  LIG1       -0.0612
      2 C           1.2579    1.4298   -1.6380 C.ar    1  LIG1       -0.0538
      3 C          -0.9192    1.6337   -0.6576 C.ar    1  LIG1       -0.0615
      4 C           1.8659    1.5477   -0.3846 C.ar    1  LIG1       -0.0150
      5 H           1.8898    1.3159   -2.5132 H       1  LIG1        0.0624
      6 C          -0.3263    1.7380    0.5932 C.ar    1  LIG1       -0.0583
      7 C           1.0588    1.6988    0.7573 C.ar    1  LIG1       -0.0427
      8 H          -0.9528    1.8427    1.4746 H       1  LIG1        0.0620
      9 H          -1.9999    1.6687   -0.7503 H       1  LIG1        0.0618
     10 H          -0.5676    1.3876   -2.7677 H       1  LIG1        0.0618
     11 C           1.6329    1.7905    2.1494 C.3     1  LIG1       -0.0391
     12 H           0.8929    1.4744    2.8882 H       1  LIG1        0.0278
     13 H           1.9258    2.8145    2.4030 H       1  LIG1        0.0278
     14 H           2.5210    1.1663    2.2640 H       1  LIG1        0.0278
     15 C           4.0424    0.4113   -0.8717 C.ar    1  LIG1       -0.0534
     16 C           5.4272    0.3731   -0.8338 C.ar    1  LIG1       -0.0532
     17 C           3.3522    1.4882   -0.3146 C.ar    1  LIG1       -0.0173
     18 C           6.1741    1.4025   -0.2554 C.ar    1  LIG1       -0.0149
     19 H           5.9529   -0.4686   -1.2735 H       1  LIG1        0.0624
     20 C           4.1002    2.5089    0.2716 C.ar    1  LIG1       -0.0505
     21 C           5.4933    2.4934    0.3137 C.ar    1  LIG1       -0.0422
     22 H           3.5797    3.3572    0.7061 H       1  LIG1        0.0626
     23 H           3.4883   -0.4035   -1.3266 H       1  LIG1        0.0624
     24 C           6.2126    3.6362    0.9868 C.3     1  LIG1       -0.0391
     25 H           5.5568    4.1265    1.7099 H       1  LIG1        0.0278
     26 H           6.5281    4.3991    0.2678 H       1  LIG1        0.0278
     27 H           7.1093    3.2985    1.5096 H       1  LIG1        0.0278
     28 C           8.2744    0.1461    0.2644 C.ar    1  LIG1       -0.0534
     29 C           9.6546    0.0235    0.2360 C.ar    1  LIG1       -0.0532
     30 C           7.6579    1.2857   -0.2530 C.ar    1  LIG1       -0.0173
     31 C          10.4682    1.0168   -0.3144 C.ar    1  LIG1       -0.0149
     32 H          10.1221   -0.8697    0.6383 H       1  LIG1        0.0624
     33 C           8.4736    2.2801   -0.7929 C.ar    1  LIG1       -0.0505
     34 C           9.8625    2.1731   -0.8374 C.ar    1  LIG1       -0.0422
     35 H           8.0108    3.1714   -1.2059 H       1  LIG1        0.0626
     36 H           7.6676   -0.6412    0.7000 H       1  LIG1        0.0624
     37 C          10.6611    3.3101   -1.4258 C.3     1  LIG1       -0.0391
     38 H          10.0878    4.2391   -1.3871 H       1  LIG1        0.0278
     39 H          10.9147    3.1298   -2.4754 H       1  LIG1        0.0278
     40 H          11.6007    3.4632   -0.8918 H       1  LIG1        0.0278
     41 C          12.6960    0.8741   -1.4819 C.ar    1  LIG1       -0.0540
     42 C          14.0660    0.6494   -1.4486 C.ar    1  LIG1       -0.0609
     43 C          11.9431    0.8127   -0.3078 C.ar    1  LIG1       -0.0174
     44 C          14.7013    0.3613   -0.2478 C.ar    1  LIG1       -0.0588
     45 H          14.6424    0.6968   -2.3671 H       1  LIG1        0.0618
     46 C          12.5997    0.5160    0.8894 C.ar    1  LIG1       -0.0511
     47 C          13.9730    0.2871    0.9392 C.ar    1  LIG1       -0.0499
     48 H          12.0209    0.4769    1.8081 H       1  LIG1        0.0626
     49 H          15.7742    0.1920   -0.2296 H       1  LIG1        0.0620
     50 H          12.2034    1.0813   -2.4258 H       1  LIG1        0.0624
     51 C          14.6517   -0.0528    2.2405 C.3     1  LIG1       -0.0397
     52 H          15.6488    0.3912    2.2983 H       1  LIG1        0.0278
     53 H          14.7717   -1.1359    2.3507 H       1  LIG1        0.0278
     54 H          14.0731    0.3011    3.0968 H       1  LIG1        0.0278
@<TRIPOS>BOND
     1    10     1    1
     2     5     2    1
     3    39    37    1
     4    50    41    1
     5    45    42    1
     6     1     2   ar
     7     1     3   ar
     8     2     4   ar
     9    41    42   ar
    10    41    43   ar
    11    42    44   ar
    12    37    38    1
    13    37    40    1
    14    37    34    1
    15    23    15    1
    16    19    16    1
    17    35    33    1
    18    15    16   ar
    19    15    17   ar
    20    34    33   ar
    21    34    31   ar
    22    16    18   ar
    23    33    30   ar
    24     9     3    1
    25     3     6   ar
    26     4    17    1
    27     4     7   ar
    28    17    20   ar
    29    31    43    1
    30    31    29   ar
    31    43    46   ar
    32    18    30    1
    33    18    21   ar
    34    30    28   ar
    35    44    49    1
    36    44    47   ar
    37    29    28   ar
    38    29    32    1
    39    28    36    1
    40    26    24    1
    41    20    21   ar
    42    20    22    1
    43    21    24    1
    44     6     7   ar
    45     6     8    1
    46     7    11    1
    47    46    47   ar
    48    46    48    1
    49    47    51    1
    50    24    27    1
    51    24    25    1
    52    11    14    1
    53    11    13    1
    54    11    12    1
    55    51    52    1
    56    51    53    1
    57    51    54    1
