@<TRIPOS>MOLECULE
mol_data/opt/cam/geoms/mol2/4ai4ai-.out
 28 29 0 0 0
SMALL
GASTEIGER

@<TRIPOS>ATOM
      1 C          -0.0577    0.1919   -0.7376 C.ar    1  LIG1       -0.0612
      2 C           1.3296    0.1944   -0.7530 C.ar    1  LIG1       -0.0538
      3 C          -0.7350    1.2788   -0.2013 C.ar    1  LIG1       -0.0615
      4 C           2.0640    1.2705   -0.2465 C.ar    1  LIG1       -0.0150
      5 H           1.8672   -0.6467   -1.1793 H       1  LIG1        0.0624
      6 C          -0.0150    2.3467    0.3165 C.ar    1  LIG1       -0.0583
      7 C           1.3801    2.3682    0.3058 C.ar    1  LIG1       -0.0427
      8 H          -0.5462    3.1880    0.7530 H       1  LIG1        0.0620
      9 H          -1.8199    1.2940   -0.1783 H       1  LIG1        0.0618
     10 H          -0.6045   -0.6530   -1.1435 H       1  LIG1        0.0618
     11 C           2.0994    3.5493    0.9087 C.3     1  LIG1       -0.0391
     12 H           1.4554    4.0616    1.6271 H       1  LIG1        0.0278
     13 H           2.3853    4.2840    0.1491 H       1  LIG1        0.0278
     14 H           3.0146    3.2478    1.4217 H       1  LIG1        0.0278
     15 C           4.3087    2.1856   -0.9333 C.ar    1  LIG1       -0.0540
     16 C           5.6916    2.0780   -0.9912 C.ar    1  LIG1       -0.0609
     17 C           3.5513    1.1991   -0.2983 C.ar    1  LIG1       -0.0174
     18 C           6.3358    0.9884   -0.4188 C.ar    1  LIG1       -0.0588
     19 H           6.2721    2.8486   -1.4886 H       1  LIG1        0.0618
     20 C           4.2166    0.1087    0.2662 C.ar    1  LIG1       -0.0511
     21 C           5.6040   -0.0145    0.2154 C.ar    1  LIG1       -0.0499
     22 H           3.6329   -0.6569    0.7701 H       1  LIG1        0.0626
     23 H           7.4187    0.9145   -0.4638 H       1  LIG1        0.0620
     24 H           3.8102    3.0303   -1.3966 H       1  LIG1        0.0624
     25 C           6.2919   -1.2147    0.8118 C.3     1  LIG1       -0.0397
     26 H           7.2938   -0.9638    1.1688 H       1  LIG1        0.0278
     27 H           6.4006   -2.0144    0.0712 H       1  LIG1        0.0278
     28 H           5.7251   -1.6234    1.6517 H       1  LIG1        0.0278
@<TRIPOS>BOND
     1    19    16    1
     2    24    15    1
     3     5     2    1
     4    10     1    1
     5    16    15   ar
     6    16    18   ar
     7    15    17   ar
     8     2     1   ar
     9     2     4   ar
    10     1     3   ar
    11    23    18    1
    12    18    21   ar
    13    17     4    1
    14    17    20   ar
    15     4     7   ar
    16     3     9    1
    17     3     6   ar
    18    27    25    1
    19    13    11    1
    20    21    20   ar
    21    21    25    1
    22    20    22    1
    23     7     6   ar
    24     7    11    1
    25     6     8    1
    26    25    26    1
    27    25    28    1
    28    11    14    1
    29    11    12    1
