@<TRIPOS>MOLECULE
mol_data/opt/cam/geoms/mol2/4ai4ai4ai.out
 41 43 0 0 0
SMALL
GASTEIGER

@<TRIPOS>ATOM
      1 C           0.0979    0.5077   -1.6055 C.ar    1  LIG1       -0.0612
      2 C           1.4630    0.5787   -1.3677 C.ar    1  LIG1       -0.0538
      3 C          -0.7749    1.1999   -0.7770 C.ar    1  LIG1       -0.0615
      4 C           1.9830    1.3375   -0.3152 C.ar    1  LIG1       -0.0150
      5 H           2.1531    0.0486   -2.0167 H       1  LIG1        0.0624
      6 C          -0.2698    1.9450    0.2798 C.ar    1  LIG1       -0.0583
      7 C           1.0998    2.0306    0.5320 C.ar    1  LIG1       -0.0427
      8 H          -0.9551    2.4701    0.9393 H       1  LIG1        0.0620
      9 H          -1.8460    1.1547   -0.9458 H       1  LIG1        0.0618
     10 H          -0.2796   -0.0832   -2.4336 H       1  LIG1        0.0618
     11 C           1.5772    2.8349    1.7158 C.3     1  LIG1       -0.0391
     12 H           0.7802    2.9323    2.4565 H       1  LIG1        0.0278
     13 H           1.8768    3.8476    1.4275 H       1  LIG1        0.0278
     14 H           2.4401    2.3718    2.1984 H       1  LIG1        0.0278
     15 C           4.1746    0.1706    0.0029 C.ar    1  LIG1       -0.0534
     16 C           5.5530    0.1945    0.1481 C.ar    1  LIG1       -0.0532
     17 C           3.4598    1.3615   -0.1258 C.ar    1  LIG1       -0.0173
     18 C           6.2682    1.3942    0.1583 C.ar    1  LIG1       -0.0149
     19 H           6.0988   -0.7388    0.2450 H       1  LIG1        0.0624
     20 C           4.1760    2.5582   -0.1050 C.ar    1  LIG1       -0.0505
     21 C           5.5621    2.6037    0.0325 C.ar    1  LIG1       -0.0422
     22 H           3.6356    3.4944   -0.2093 H       1  LIG1        0.0626
     23 H           3.6443   -0.7763   -0.0003 H       1  LIG1        0.0624
     24 C           6.2480    3.9472    0.0631 C.3     1  LIG1       -0.0391
     25 H           5.5438    4.7288    0.3571 H       1  LIG1        0.0278
     26 H           6.6478    4.2236   -0.9177 H       1  LIG1        0.0278
     27 H           7.0852    3.9573    0.7637 H       1  LIG1        0.0278
     28 C           8.3082    0.6649    1.4064 C.ar    1  LIG1       -0.0540
     29 C           9.6883    0.5866    1.5478 C.ar    1  LIG1       -0.0609
     30 C           7.7476    1.3387    0.3201 C.ar    1  LIG1       -0.0174
     31 C          10.5229    1.1731    0.6069 C.ar    1  LIG1       -0.0588
     32 H          10.1147    0.0694    2.4016 H       1  LIG1        0.0618
     33 C           8.6046    1.9191   -0.6186 C.ar    1  LIG1       -0.0511
     34 C           9.9893    1.8444   -0.4941 C.ar    1  LIG1       -0.0499
     35 H           8.1789    2.4266   -1.4790 H       1  LIG1        0.0626
     36 H          11.6011    1.1106    0.7250 H       1  LIG1        0.0620
     37 H           7.6562    0.2158    2.1487 H       1  LIG1        0.0624
     38 C          10.8930    2.4489   -1.5371 C.3     1  LIG1       -0.0397
     39 H          10.3602    3.1757   -2.1543 H       1  LIG1        0.0278
     40 H          11.2934    1.6797   -2.2060 H       1  LIG1        0.0278
     41 H          11.7468    2.9552   -1.0789 H       1  LIG1        0.0278
@<TRIPOS>BOND
     1    10     1    1
     2    40    38    1
     3    39    38    1
     4     5     2    1
     5     1     2   ar
     6     1     3   ar
     7    38    41    1
     8    38    34    1
     9    35    33    1
    10     2     4   ar
    11     9     3    1
    12    26    24    1
    13     3     6   ar
    14    33    34   ar
    15    33    30   ar
    16    34    31   ar
    17     4    17    1
    18     4     7   ar
    19    22    20    1
    20    17    20   ar
    21    17    15   ar
    22    20    21   ar
    23    23    15    1
    24    15    16   ar
    25    21    24    1
    26    21    18   ar
    27    24    25    1
    28    24    27    1
    29    16    18   ar
    30    16    19    1
    31    18    30    1
    32     6     7   ar
    33     6     8    1
    34    30    28   ar
    35     7    11    1
    36    31    36    1
    37    31    29   ar
    38    28    29   ar
    39    28    37    1
    40    13    11    1
    41    29    32    1
    42    11    14    1
    43    11    12    1
