@<TRIPOS>MOLECULE
mol_data/opt/cam/geoms/mol2/4ai6fi-13ei13ie-.out
 54 57 0 0 0
SMALL
GASTEIGER

@<TRIPOS>ATOM
      1 C          -0.1810    0.7115   -0.9824 C.ar    1  LIG1       -0.0612
      2 C           1.1972    0.5604   -0.9154 C.ar    1  LIG1       -0.0536
      3 C          -0.7882    1.7495   -0.2880 C.ar    1  LIG1       -0.0615
      4 C           1.9845    1.4321   -0.1583 C.ar    1  LIG1       -0.0099
      5 H           1.6845   -0.2414   -1.4611 H       1  LIG1        0.0624
      6 C          -0.0154    2.6174    0.4725 C.ar    1  LIG1       -0.0583
      7 C           1.3700    2.4779    0.5582 C.ar    1  LIG1       -0.0426
      8 H          -0.4961    3.4188    1.0257 H       1  LIG1        0.0620
      9 H          -1.8643    1.8825   -0.3330 H       1  LIG1        0.0618
     10 H          -0.7748    0.0252   -1.5768 H       1  LIG1        0.0618
     11 C           2.1734    3.4113    1.4285 C.3     1  LIG1       -0.0391
     12 H           1.5179    4.0886    1.9789 H       1  LIG1        0.0278
     13 H           2.8687    4.0177    0.8411 H       1  LIG1        0.0278
     14 H           2.7732    2.8538    2.1531 H       1  LIG1        0.0278
     15 C           4.3508    2.1337   -0.7111 C.ar    1  LIG1        0.2208
     16 C           3.4586    1.2249   -0.1147 C.ar    1  LIG1        0.0440
     17 C           4.0387    0.1332    0.5101 C.ar    1  LIG1       -0.0439
     18 C           5.4209   -0.0633    0.5493 C.ar    1  LIG1       -0.0222
     19 C           6.1984    0.8916   -0.1191 C.ar    1  LIG1        0.0950
     20 N           5.6538    1.9741   -0.7094 N.ar    1  LIG1       -0.2107
     21 H           3.3925   -0.5781    1.0174 H       1  LIG1        0.0629
     22 O           3.9111    3.2534   -1.3351 O.3     1  LIG1       -0.4920
     23 H           2.9453    3.2184   -1.3815 H       1  LIG1        0.2937
     24 C           5.9828   -1.2070    1.3463 C.3     1  LIG1       -0.0376
     25 H           6.9235   -0.9318    1.8272 H       1  LIG1        0.0278
     26 H           6.1931   -2.0795    0.7253 H       1  LIG1        0.0278
     27 H           5.2746   -1.5041    2.1236 H       1  LIG1        0.0278
     28 C           7.6672    0.8920   -0.1976 C.ar    1  LIG1        0.0816
     29 C           8.6787   -0.0672   -0.2728 C.ar    1  LIG1        0.0549
     30 C           9.9260    0.6243   -0.3932 C.ar    1  LIG1       -0.0077
     31 C           9.6398    1.9739   -0.3958 C.ar    1  LIG1        0.0678
     32 N           8.2791    2.1063   -0.2848 N.ar    1  LIG1       -0.3506
     33 H           7.7466    2.9634   -0.2893 H       1  LIG1        0.1660
     34 C           8.5722   -1.4798   -0.3883 C.1     1  LIG1       -0.0672
     35 C           8.5606   -2.6777   -0.5235 C.1     1  LIG1       -0.1138
     36 H           8.5380   -3.7359   -0.6439 H       1  LIG1        0.1232
     37 C          11.2658   -0.0152   -0.5569 C.3     1  LIG1       -0.0365
     38 H          11.6591   -0.3906    0.3937 H       1  LIG1        0.0279
     39 H          11.9887    0.6985   -0.9574 H       1  LIG1        0.0279
     40 H          11.2050   -0.8688   -1.2371 H       1  LIG1        0.0279
     41 C          10.5036    3.1379   -0.5311 C.ar    1  LIG1        0.0673
     42 C          11.6454    3.5108    0.1422 C.ar    1  LIG1       -0.0084
     43 C          12.0589    4.7683   -0.4085 C.ar    1  LIG1        0.0455
     44 C          11.1513    5.1126   -1.3876 C.ar    1  LIG1        0.0179
     45 N          10.2129    4.1312   -1.4490 N.ar    1  LIG1       -0.3582
     46 H           9.4810    4.0677   -2.1378 H       1  LIG1        0.1654
     47 H          11.1169    5.9795   -2.0286 H       1  LIG1        0.0819
     48 C          12.3134    2.7875    1.2659 C.3     1  LIG1       -0.0365
     49 H          12.6109    3.4865    2.0520 H       1  LIG1        0.0279
     50 H          13.2213    2.2720    0.9355 H       1  LIG1        0.0279
     51 H          11.6456    2.0409    1.7008 H       1  LIG1        0.0279
     52 C          13.1863    5.5321    0.0013 C.1     1  LIG1       -0.0679
     53 C          14.1450    6.1652    0.3639 C.1     1  LIG1       -0.1139
     54 H          14.9921    6.7288    0.6791 H       1  LIG1        0.1232
@<TRIPOS>BOND
     1    46    45    1
     2    47    44    1
     3    10     1    1
     4     5     2    1
     5    45    44   ar
     6    45    41   ar
     7    44    43   ar
     8    23    22    1
     9    22    15    1
    10    40    37    1
    11     1     2   ar
    12     1     3   ar
    13    39    37    1
    14     2     4   ar
    15    15    20   ar
    16    15    16   ar
    17    20    19   ar
    18    36    35    1
    19    37    30    1
    20    37    38    1
    21    41    31    1
    22    41    42   ar
    23    35    34    3
    24    43    52    1
    25    43    42   ar
    26    31    30   ar
    27    31    32   ar
    28    30    29   ar
    29    34    29    1
    30     9     3    1
    31    33    32    1
    32     3     6   ar
    33    32    28   ar
    34    29    28   ar
    35    28    19    1
    36     4    16    1
    37     4     7   ar
    38    19    18   ar
    39    16    17   ar
    40    52    53    3
    41    42    48    1
    42    53    54    1
    43     6     7   ar
    44     6     8    1
    45    17    18   ar
    46    17    21    1
    47    18    24    1
    48     7    11    1
    49    26    24    1
    50    13    11    1
    51    50    48    1
    52    48    51    1
    53    48    49    1
    54    24    25    1
    55    24    27    1
    56    11    12    1
    57    11    14    1
