@<TRIPOS>MOLECULE
mol_data/opt/cam/geoms/mol2/4al.out
 16 16 0 0 0
SMALL
GASTEIGER

@<TRIPOS>ATOM
      1 C          -0.0183   -0.0147    0.0005 C.ar    1  LIG1       -0.0615
      2 C           1.3652   -0.1037    0.0002 C.ar    1  LIG1       -0.0583
      3 C          -0.6183    1.2437    0.0004 C.ar    1  LIG1       -0.0583
      4 C           2.1582    1.0425   -0.0004 C.ar    1  LIG1       -0.0200
      5 H           1.8466   -1.0766    0.0003 H       1  LIG1        0.0619
      6 C           0.1548    2.3915   -0.0002 C.ar    1  LIG1       -0.0200
      7 C           1.5485    2.2949   -0.0005 C.ar    1  LIG1        0.1201
      8 H          -0.2923    3.3792   -0.0003 H       1  LIG1        0.0654
      9 H           3.2365    0.9466   -0.0006 H       1  LIG1        0.0654
     10 H          -1.7003    1.3302    0.0006 H       1  LIG1        0.0619
     11 H          -0.6263   -0.9127    0.0010 H       1  LIG1        0.0618
     12 O           2.2207    3.4780   -0.0011 O.3     1  LIG1       -0.4951
     13 C           3.6306    3.4414   -0.0015 C.3     1  LIG1        0.0788
     14 H           3.9624    4.4796   -0.0018 H       1  LIG1        0.0660
     15 H           4.0231    2.9397    0.8909 H       1  LIG1        0.0660
     16 H           4.0226    2.9392   -0.8938 H       1  LIG1        0.0660
@<TRIPOS>BOND
     1    16    13    1
     2    14    13    1
     3    13    12    1
     4    13    15    1
     5    12     7    1
     6     9     4    1
     7     7     4   ar
     8     7     6   ar
     9     4     2   ar
    10     8     6    1
    11     6     3   ar
    12     2     5    1
    13     2     1   ar
    14     3     1   ar
    15     3    10    1
    16     1    11    1
