@<TRIPOS>MOLECULE
mol_data/opt/cam/geoms/mol2/4da4dd4de-4fd-.out
 50 53 0 0 0
SMALL
GASTEIGER

@<TRIPOS>ATOM
      1 C          -0.2801    0.1395    0.3695 C.ar    1  LIG1        0.0523
      2 C           1.1133    0.0717    0.3621 C.ar    1  LIG1       -0.0366
      3 C          -0.9353    1.3039   -0.0368 C.ar    1  LIG1       -0.0443
      4 C           1.8633    1.1723   -0.0489 C.ar    1  LIG1       -0.0154
      5 H           1.6007   -0.8379    0.6919 H       1  LIG1        0.0636
      6 C          -0.1885    2.3979   -0.4464 C.ar    1  LIG1       -0.0600
      7 C           1.1984    2.3346   -0.4498 C.ar    1  LIG1       -0.0539
      8 H          -0.6889    3.3041   -0.7687 H       1  LIG1        0.0618
      9 H          -2.0184    1.3416   -0.0278 H       1  LIG1        0.0630
     10 N          -1.6726   -1.8954    1.1709 N.1     1  LIG1       -0.1909
     11 C          -1.0470   -0.9921    0.8109 C.1     1  LIG1        0.0992
     12 H           1.7752    3.1903   -0.7852 H       1  LIG1        0.0624
     13 C           4.0967    0.0883   -0.5926 C.ar    1  LIG1        0.0601
     14 C           5.4910    0.0994   -0.5494 C.ar    1  LIG1       -0.0348
     15 C           3.3474    1.1394   -0.0342 C.ar    1  LIG1        0.0008
     16 C           6.1929    1.1493    0.0320 C.ar    1  LIG1        0.0020
     17 H           6.0325   -0.7249   -0.9977 H       1  LIG1        0.0637
     18 C           4.0522    2.1892    0.5462 C.ar    1  LIG1       -0.0348
     19 C           5.4463    2.2053    0.5820 C.ar    1  LIG1        0.0601
     20 H           3.5077    3.0055    1.0060 H       1  LIG1        0.0637
     21 N           2.9786   -1.8983   -1.8276 N.1     1  LIG1       -0.1908
     22 C           3.4595   -1.0085   -1.2675 C.1     1  LIG1        0.0998
     23 N           6.5757    4.2303    1.7425 N.1     1  LIG1       -0.1908
     24 C           6.0901    3.3181    1.2239 C.1     1  LIG1        0.0998
     25 C           8.4087    0.0747    0.5942 C.ar    1  LIG1        0.0601
     26 C           9.8009    0.0887    0.5759 C.ar    1  LIG1       -0.0348
     27 C           7.6783    1.1441    0.0448 C.ar    1  LIG1        0.0019
     28 C          10.5141    1.1462    0.0189 C.ar    1  LIG1        0.0023
     29 H          10.3379   -0.7456    1.0085 H       1  LIG1        0.0637
     30 C           8.3891    2.1975   -0.5121 C.ar    1  LIG1       -0.0368
     31 C           9.7883    2.2157   -0.5401 C.ar    1  LIG1        0.0331
     32 H           7.8568    3.0300   -0.9562 H       1  LIG1        0.0636
     33 N           7.2295   -1.9475    1.7078 N.1     1  LIG1       -0.1908
     34 C           7.7460   -1.0399    1.2107 C.1     1  LIG1        0.0998
     35 C          10.4321    3.3272   -1.1718 C.1     1  LIG1       -0.0690
     36 C          10.9316    4.2769   -1.7161 C.1     1  LIG1       -0.1139
     37 H          11.3855    5.1170   -2.1911 H       1  LIG1        0.1232
     38 C          12.7222    0.0236   -0.4266 C.ar    1  LIG1        0.1246
     39 C          14.1158    0.0153   -0.3881 C.ar    1  LIG1       -0.0184
     40 C          11.9994    1.1314    0.0472 C.ar    1  LIG1        0.0260
     41 C          14.8081    1.0974    0.1226 C.ar    1  LIG1       -0.0409
     42 H          14.6570   -0.8481   -0.7644 H       1  LIG1        0.0655
     43 C          12.7118    2.2101    0.5590 C.ar    1  LIG1       -0.0331
     44 C          14.1068    2.2051    0.6027 C.ar    1  LIG1        0.0526
     45 H          12.1734    3.0713    0.9352 H       1  LIG1        0.0638
     46 H          15.8915    1.0886    0.1528 H       1  LIG1        0.0631
     47 O          12.0189   -1.0219   -0.9236 O.3     1  LIG1       -0.5062
     48 H          12.6234   -1.7067   -1.2345 H       1  LIG1        0.2922
     49 N          15.3894    4.2408    1.5622 N.1     1  LIG1       -0.1909
     50 C          14.8143    3.3322    1.1358 C.1     1  LIG1        0.0992
@<TRIPOS>BOND
     1    37    36    1
     2    21    22    3
     3    36    35    3
     4    22    13    1
     5    48    47    1
     6    35    31    1
     7    17    14    1
     8    32    30    1
     9    47    38    1
    10    12     7    1
    11     8     6    1
    12    42    39    1
    13    13    14   ar
    14    13    15   ar
    15    14    16   ar
    16    31    30   ar
    17    31    28   ar
    18    30    27   ar
    19     7     6   ar
    20     7     4   ar
    21     6     3   ar
    22    38    39   ar
    23    38    40   ar
    24    39    41   ar
    25     4    15    1
    26     4     2   ar
    27     3     9    1
    28     3     1   ar
    29    15    18   ar
    30    28    40    1
    31    28    26   ar
    32    16    27    1
    33    16    19   ar
    34    27    25   ar
    35    40    43   ar
    36    41    46    1
    37    41    44   ar
    38     2     1   ar
    39     2     5    1
    40     1    11    1
    41    18    19   ar
    42    18    20    1
    43    43    44   ar
    44    43    45    1
    45    26    25   ar
    46    26    29    1
    47    19    24    1
    48    25    34    1
    49    44    50    1
    50    11    10    3
    51    50    49    3
    52    34    33    3
    53    24    23    3
