@<TRIPOS>MOLECULE
mol_data/opt/cam/geoms/mol2/4da4ih-12di-13ad-.out
 48 51 0 0 0
SMALL
GASTEIGER

@<TRIPOS>ATOM
      1 C          -0.2026    0.1926   -0.5955 C.ar    1  LIG1        0.0523
      2 C           1.1921    0.1433   -0.5956 C.ar    1  LIG1       -0.0366
      3 C          -0.8754    1.2256    0.0615 C.ar    1  LIG1       -0.0443
      4 C           1.9333    1.1259    0.0584 C.ar    1  LIG1       -0.0164
      5 H           1.6953   -0.6571   -1.1251 H       1  LIG1        0.0636
      6 C          -0.1405    2.2051    0.7113 C.ar    1  LIG1       -0.0600
      7 C           1.2483    2.1569    0.7077 C.ar    1  LIG1       -0.0539
      8 H          -0.6523    3.0100    1.2275 H       1  LIG1        0.0618
      9 H          -1.9589    1.2514    0.0567 H       1  LIG1        0.0630
     10 N          -1.5521   -1.6421   -1.8350 N.1     1  LIG1       -0.1909
     11 C          -0.9495   -0.8242   -1.2824 C.1     1  LIG1        0.0992
     12 H           1.8170    2.9216    1.2265 H       1  LIG1        0.0624
     13 C           4.1708    0.0043    0.4842 C.ar    1  LIG1       -0.0420
     14 C           5.5512    0.1074    0.4351 C.ar    1  LIG1       -0.0458
     15 C           3.4216    1.1107    0.0391 C.ar    1  LIG1       -0.0132
     16 C           6.2298    1.2368   -0.0440 C.ar    1  LIG1        0.0395
     17 H           6.1365   -0.7283    0.8009 H       1  LIG1        0.0628
     18 C           4.0782    2.2451   -0.4201 C.ar    1  LIG1       -0.0324
     19 C           5.4714    2.3442   -0.4832 C.ar    1  LIG1        0.0360
     20 H           3.4872    3.0886   -0.7656 H       1  LIG1        0.0642
     21 C           3.5390   -1.2470    1.0406 C.3     1  LIG1       -0.0391
     22 H           4.2555   -1.7916    1.6586 H       1  LIG1        0.0278
     23 H           3.2133   -1.9314    0.2510 H       1  LIG1        0.0278
     24 H           2.6640   -1.0227    1.6548 H       1  LIG1        0.0278
     25 N           6.0339    3.5267   -0.9425 N.pl3   1  LIG1       -0.3574
     26 H           6.9826    3.4730   -1.2771 H       1  LIG1        0.1423
     27 H           5.4295    4.0737   -1.5372 H       1  LIG1        0.1423
     28 C           7.6855    1.2166   -0.0712 C.ar    1  LIG1        0.1551
     29 C           8.6286    0.2150   -0.0864 C.ar    1  LIG1        0.1010
     30 C           9.9319    0.8272   -0.0692 C.ar    1  LIG1        0.0148
     31 C           9.6955    2.1648   -0.0627 C.ar    1  LIG1        0.1559
     32 O           8.3440    2.4046   -0.0651 O.2     1  LIG1       -0.4517
     33 N           8.2551   -2.3346   -0.1402 N.1     1  LIG1       -0.1907
     34 C           8.4024   -1.1863   -0.1206 C.1     1  LIG1        0.1032
     35 C          11.2454    0.1182   -0.0592 C.3     1  LIG1       -0.0348
     36 H          11.9729    0.6510    0.5580 H       1  LIG1        0.0279
     37 H          11.6619    0.0312   -1.0678 H       1  LIG1        0.0279
     38 H          11.1348   -0.8929    0.3372 H       1  LIG1        0.0279
     39 C          10.5229    3.3462   -0.0319 C.ar    1  LIG1        0.0837
     40 C          11.8653    3.5415   -0.2578 C.ar    1  LIG1       -0.0160
     41 C          12.1197    4.9300   -0.0682 C.ar    1  LIG1        0.0697
     42 C          10.9233    5.5342    0.2612 C.ar    1  LIG1        0.0197
     43 N           9.9696    4.5694    0.2790 N.ar    1  LIG1       -0.3571
     44 H           8.9954    4.7018    0.5040 H       1  LIG1        0.1655
     45 H          10.7015    6.5671    0.4773 H       1  LIG1        0.0820
     46 H          12.5880    2.7947   -0.5456 H       1  LIG1        0.0653
     47 N          14.3919    6.1273   -0.3118 N.1     1  LIG1       -0.1908
     48 C          13.3714    5.5928   -0.2016 C.1     1  LIG1        0.1007
@<TRIPOS>BOND
     1    10    11    3
     2    27    25    1
     3    11     1    1
     4    26    25    1
     5     5     2    1
     6    37    35    1
     7    25    19    1
     8    20    18    1
     9     2     1   ar
    10     2     4   ar
    11     1     3   ar
    12    46    40    1
    13    19    18   ar
    14    19    16   ar
    15    18    15   ar
    16    47    48    3
    17    40    41   ar
    18    40    39   ar
    19    48    41    1
    20    33    34    3
    21    34    29    1
    22    29    28   ar
    23    29    30   ar
    24    28    32   ar
    25    28    16    1
    26    30    31   ar
    27    30    35    1
    28    41    42   ar
    29    32    31   ar
    30    31    39    1
    31    35    38    1
    32    35    36    1
    33    16    14   ar
    34    39    43   ar
    35    15     4    1
    36    15    13   ar
    37     9     3    1
    38     4     7   ar
    39     3     6   ar
    40    23    21    1
    41    42    43   ar
    42    42    45    1
    43    43    44    1
    44    14    13   ar
    45    14    17    1
    46    13    21    1
    47     7     6   ar
    48     7    12    1
    49     6     8    1
    50    21    24    1
    51    21    22    1
