@<TRIPOS>MOLECULE
mol_data/opt/cam/geoms/mol2/4da4eh-4ia-4dd-.out
 52 55 0 0 0
SMALL
GASTEIGER

@<TRIPOS>ATOM
      1 C          -0.2844    0.1733   -0.3668 C.ar    1  LIG1        0.0523
      2 C           1.1067    0.0754   -0.3360 C.ar    1  LIG1       -0.0366
      3 C          -0.9225    1.3594    0.0049 C.ar    1  LIG1       -0.0443
      4 C           1.8798    1.1641    0.0645 C.ar    1  LIG1       -0.0154
      5 H           1.5824   -0.8518   -0.6293 H       1  LIG1        0.0636
      6 C          -0.1555    2.4420    0.4050 C.ar    1  LIG1       -0.0600
      7 C           1.2304    2.3455    0.4328 C.ar    1  LIG1       -0.0539
      8 H          -0.6391    3.3660    0.7028 H       1  LIG1        0.0618
      9 H          -2.0043    1.4205   -0.0212 H       1  LIG1        0.0630
     10 N          -1.6993   -1.8612   -1.1305 N.1     1  LIG1       -0.1909
     11 C          -1.0664   -0.9551   -0.7896 C.1     1  LIG1        0.0992
     12 H           1.8227    3.1926    0.7626 H       1  LIG1        0.0624
     13 C           4.0698    0.0289    0.6651 C.ar    1  LIG1        0.0331
     14 C           5.4672    0.0508    0.6253 C.ar    1  LIG1       -0.0363
     15 C           3.3642    1.0949    0.0710 C.ar    1  LIG1       -0.0007
     16 C           6.1882    1.0755    0.0285 C.ar    1  LIG1        0.0042
     17 H           6.0073   -0.7623    1.0983 H       1  LIG1        0.0637
     18 C           4.0824    2.1243   -0.5250 C.ar    1  LIG1       -0.0316
     19 C           5.4802    2.1427   -0.5594 C.ar    1  LIG1        0.0330
     20 H           3.5389    2.9357   -1.0000 H       1  LIG1        0.0643
     21 C           3.4194   -1.0541    1.3383 C.1     1  LIG1       -0.0690
     22 C           2.9113   -1.9821    1.9141 C.1     1  LIG1       -0.1139
     23 H           2.4506   -2.7976    2.4224 H       1  LIG1        0.1232
     24 N           6.1434    3.2104   -1.1363 N.pl3   1  LIG1       -0.3575
     25 H           7.1005    3.0501   -1.4106 H       1  LIG1        0.1423
     26 H           5.6148    3.7605   -1.7953 H       1  LIG1        0.1423
     27 C           8.4073    0.0669   -0.6563 C.ar    1  LIG1       -0.0421
     28 C           9.7988    0.0910   -0.5874 C.ar    1  LIG1       -0.0505
     29 C           7.6793    1.0532    0.0321 C.ar    1  LIG1       -0.0131
     30 C          10.4889    1.0606    0.1396 C.ar    1  LIG1       -0.0163
     31 H          10.3552   -0.6632   -1.1338 H       1  LIG1        0.0626
     32 C           8.3717    2.0349    0.7465 C.ar    1  LIG1       -0.0531
     33 C           9.7558    2.0449    0.8040 C.ar    1  LIG1       -0.0534
     34 H           7.8058    2.7951    1.2750 H       1  LIG1        0.0624
     35 C           7.7263   -1.0034   -1.4698 C.3     1  LIG1       -0.0391
     36 H           8.4308   -1.4698   -2.1612 H       1  LIG1        0.0278
     37 H           6.8899   -0.6011   -2.0454 H       1  LIG1        0.0278
     38 H           7.3221   -1.7946   -0.8318 H       1  LIG1        0.0278
     39 H          10.2674    2.8026    1.3884 H       1  LIG1        0.0624
     40 C          12.7498   -0.0597    0.4460 C.ar    1  LIG1        0.0595
     41 C          14.1464    0.0109    0.4783 C.ar    1  LIG1       -0.0425
     42 C          11.9720    1.0844    0.1842 C.ar    1  LIG1        0.0007
     43 C          14.7951    1.2114    0.2593 C.ar    1  LIG1       -0.0431
     44 H          14.7150   -0.8877    0.6874 H       1  LIG1        0.0631
     45 C          12.6443    2.2867   -0.0299 C.ar    1  LIG1       -0.0354
     46 C          14.0361    2.3560    0.0066 C.ar    1  LIG1        0.0524
     47 H          12.0733    3.1816   -0.2473 H       1  LIG1        0.0637
     48 H          15.8765    1.2695    0.2841 H       1  LIG1        0.0631
     49 N          11.7086   -2.3796    0.9523 N.1     1  LIG1       -0.1909
     50 C          12.1459   -1.3339    0.7230 C.1     1  LIG1        0.0998
     51 N          15.2144    4.6265   -0.4150 N.1     1  LIG1       -0.1909
     52 C          14.6895    3.6136   -0.2271 C.1     1  LIG1        0.0992
@<TRIPOS>BOND
     1    36    35    1
     2    37    35    1
     3    26    24    1
     4    35    38    1
     5    35    27    1
     6    25    24    1
     7    24    19    1
     8    31    28    1
     9    10    11    3
    10    20    18    1
    11    11     1    1
    12    27    28   ar
    13    27    29   ar
    14     5     2    1
    15    28    30   ar
    16    19    18   ar
    17    19    16   ar
    18    18    15   ar
    19    51    52    3
    20     1     2   ar
    21     1     3   ar
    22     2     4   ar
    23    47    45    1
    24    52    46    1
    25    45    46   ar
    26    45    42   ar
    27     9     3    1
    28     3     6   ar
    29    46    43   ar
    30    16    29    1
    31    16    14   ar
    32    29    32   ar
    33     4    15    1
    34     4     7   ar
    35    15    13   ar
    36    30    42    1
    37    30    33   ar
    38    42    40   ar
    39    43    48    1
    40    43    41   ar
    41     6     7   ar
    42     6     8    1
    43     7    12    1
    44    40    41   ar
    45    40    50    1
    46    41    44    1
    47    14    13   ar
    48    14    17    1
    49    13    21    1
    50    50    49    3
    51    32    33   ar
    52    32    34    1
    53    33    39    1
    54    21    22    3
    55    22    23    1
