@<TRIPOS>MOLECULE
mol_data/opt/cam/geoms/mol2/4dd.out
 14 14 0 0 0
SMALL
GASTEIGER

@<TRIPOS>ATOM
      1 C           0.0871    0.0483    0.0004 C.ar    1  LIG1        0.0518
      2 C           1.4843    0.0239    0.0000 C.ar    1  LIG1       -0.0431
      3 C          -0.5982    1.2663    0.0003 C.ar    1  LIG1       -0.0431
      4 C           2.1934    1.2125   -0.0005 C.ar    1  LIG1       -0.0431
      5 H           2.0054   -0.9262    0.0001 H       1  LIG1        0.0631
      6 C           0.1109    2.4549   -0.0002 C.ar    1  LIG1       -0.0431
      7 C           1.5082    2.4305   -0.0006 C.ar    1  LIG1        0.0518
      8 H          -0.4102    3.4050   -0.0003 H       1  LIG1        0.0631
      9 H           3.2770    1.2053   -0.0007 H       1  LIG1        0.0631
     10 H          -1.6818    1.2735    0.0006 H       1  LIG1        0.0631
     11 N          -1.2412   -2.1774    0.0012 N.1     1  LIG1       -0.1909
     12 C          -0.6486   -1.1848    0.0009 C.1     1  LIG1        0.0992
     13 N           2.8363    4.6563   -0.0014 N.1     1  LIG1       -0.1909
     14 C           2.2438    3.6636   -0.0010 C.1     1  LIG1        0.0992
@<TRIPOS>BOND
     1    13    14    3
     2    14     7    1
     3     9     4    1
     4     7     4   ar
     5     7     6   ar
     6     4     2   ar
     7     8     6    1
     8     6     3   ar
     9     2     5    1
    10     2     1   ar
    11     3     1   ar
    12     3    10    1
    13     1    12    1
    14    12    11    3
