@<TRIPOS>MOLECULE
mol_data/opt/cam/geoms/mol2/4dd13da-6ha12ea.out
 43 46 0 0 0
SMALL
GASTEIGER

@<TRIPOS>ATOM
      1 C           0.0471   -0.0549    0.8354 C.ar    1  LIG1        0.0525
      2 C           1.4157    0.0059    0.5844 C.ar    1  LIG1       -0.0340
      3 C          -0.7880    1.0173    0.5087 C.ar    1  LIG1       -0.0431
      4 C           1.9861    1.1345   -0.0077 C.ar    1  LIG1        0.0181
      5 H           2.0442   -0.8319    0.8588 H       1  LIG1        0.0637
      6 C          -0.2416    2.1398   -0.0829 C.ar    1  LIG1       -0.0425
      7 C           1.1288    2.2021   -0.3497 C.ar    1  LIG1        0.0610
      8 H          -0.8725    2.9771   -0.3571 H       1  LIG1        0.0631
      9 H          -1.8496    0.9615    0.7157 H       1  LIG1        0.0631
     10 N          -0.9727   -2.1536    1.9651 N.1     1  LIG1       -0.1909
     11 C          -0.5114   -1.2230    1.4579 C.1     1  LIG1        0.0992
     12 N           2.0448    4.3071   -1.5534 N.1     1  LIG1       -0.1908
     13 C           1.6337    3.3677   -1.0176 C.1     1  LIG1        0.0998
     14 C           3.4261    1.1669   -0.2659 C.ar    1  LIG1        0.0658
     15 C           4.2795    0.1565   -0.7041 C.ar    1  LIG1        0.0776
     16 C           5.5733    0.7132   -0.8506 C.ar    1  LIG1       -0.0183
     17 C           5.4933    2.0428   -0.4905 C.ar    1  LIG1        0.0515
     18 N           4.1879    2.2904   -0.1475 N.ar    1  LIG1       -0.3530
     19 H           3.8946    3.1959    0.2043 H       1  LIG1        0.1659
     20 N           3.5997   -2.2736   -1.2382 N.1     1  LIG1       -0.1908
     21 C           3.9040   -1.1811   -1.0052 C.1     1  LIG1        0.1013
     22 H           6.4482    0.1883   -1.2011 H       1  LIG1        0.0652
     23 C           6.2629    4.4501   -0.3240 C.ar    1  LIG1        0.1261
     24 C           6.5355    3.0645   -0.3975 C.ar    1  LIG1        0.0379
     25 C           7.8775    2.6965   -0.3304 C.ar    1  LIG1       -0.0472
     26 C           8.8709    3.6448   -0.1682 C.ar    1  LIG1       -0.0319
     27 C           8.4863    4.9810   -0.0504 C.ar    1  LIG1        0.1093
     28 N           7.2067    5.3615   -0.1403 N.ar    1  LIG1       -0.2286
     29 H           8.1433    1.6457   -0.3743 H       1  LIG1        0.0626
     30 N           4.9507    4.9373   -0.3773 N.pl3   1  LIG1       -0.3426
     31 H           4.9609    5.9476   -0.2971 H       1  LIG1        0.1437
     32 H           4.4117    4.6584   -1.1923 H       1  LIG1        0.1437
     33 H           9.9117    3.3588   -0.1088 H       1  LIG1        0.0640
     34 C           9.4627    6.0455    0.1696 C.ar    1  LIG1        0.1682
     35 C          10.8320    6.0725    0.3206 C.ar    1  LIG1        0.0718
     36 C          11.1846    7.4507    0.5068 C.ar    1  LIG1       -0.0078
     37 C          10.0243    8.1417    0.4559 C.ar    1  LIG1        0.0939
     38 O           8.9800    7.3081    0.2534 O.2     1  LIG1       -0.4601
     39 H           9.7822    9.1889    0.5424 H       1  LIG1        0.1030
     40 C          11.7506    4.9891    0.3054 C.1     1  LIG1       -0.0658
     41 C          12.5616    4.0986    0.2991 C.1     1  LIG1       -0.1138
     42 H          13.2801    3.3113    0.2944 H       1  LIG1        0.1232
     43 H          12.1785    7.8425    0.6565 H       1  LIG1        0.0661
@<TRIPOS>BOND
     1    12    13    3
     2    20    21    3
     3    22    16    1
     4    32    30    1
     5    13     7    1
     6    21    15    1
     7    16    15   ar
     8    16    17   ar
     9    15    14   ar
    10    17    24    1
    11    17    18   ar
    12    24    25   ar
    13    24    23   ar
    14    30    23    1
    15    30    31    1
    16    29    25    1
    17     8     6    1
    18     7     6   ar
    19     7     4   ar
    20    25    26   ar
    21    23    28   ar
    22    14    18   ar
    23    14     4    1
    24    26    33    1
    25    26    27   ar
    26    18    19    1
    27    28    27   ar
    28     6     3   ar
    29    27    34    1
    30     4     2   ar
    31    34    38   ar
    32    34    35   ar
    33    38    37   ar
    34    42    41    1
    35    41    40    3
    36    40    35    1
    37    35    36   ar
    38    37    36   ar
    39    37    39    1
    40    36    43    1
    41     3     9    1
    42     3     1   ar
    43     2     1   ar
    44     2     5    1
    45     1    11    1
    46    11    10    3
