@<TRIPOS>MOLECULE
mol_data/opt/cam/geoms/mol2/4dd4dd4dd.out
 38 40 0 0 0
SMALL
GASTEIGER

@<TRIPOS>ATOM
      1 C          -0.1036    0.5386    1.0262 C.ar    1  LIG1        0.0524
      2 C           1.2907    0.5224    0.9884 C.ar    1  LIG1       -0.0354
      3 C          -0.8297    1.2049    0.0375 C.ar    1  LIG1       -0.0431
      4 C           1.9823    1.1729   -0.0284 C.ar    1  LIG1        0.0020
      5 H           1.8354    0.0027    1.7673 H       1  LIG1        0.0637
      6 C          -0.1547    1.8524   -0.9811 C.ar    1  LIG1       -0.0425
      7 C           1.2418    1.8426   -1.0196 C.ar    1  LIG1        0.0596
      8 H          -0.7021    2.3690   -1.7604 H       1  LIG1        0.0631
      9 H          -1.9125    1.2112    0.0725 H       1  LIG1        0.0631
     10 N          -1.3516   -0.6509    2.9615 N.1     1  LIG1       -0.1909
     11 C          -0.7931   -0.1252    2.0967 C.1     1  LIG1        0.0992
     12 N           2.4053    3.0759   -2.9807 N.1     1  LIG1       -0.1909
     13 C           1.8983    2.5181   -2.1040 C.1     1  LIG1        0.0998
     14 C           4.2028   -0.0353   -0.0360 C.ar    1  LIG1        0.0601
     15 C           5.5973   -0.0193   -0.0328 C.ar    1  LIG1       -0.0348
     16 C           3.4694    1.1635   -0.0422 C.ar    1  LIG1        0.0020
     17 C           6.3063    1.1763   -0.0318 C.ar    1  LIG1        0.0020
     18 H           6.1297   -0.9626   -0.0289 H       1  LIG1        0.0637
     19 C           4.1785    2.3591   -0.0484 C.ar    1  LIG1       -0.0348
     20 C           5.5730    2.3752   -0.0415 C.ar    1  LIG1        0.0601
     21 H           3.6461    3.3025   -0.0567 H       1  LIG1        0.0637
     22 N           3.0251   -2.3448   -0.0382 N.1     1  LIG1       -0.1908
     23 C           3.5398   -1.3097   -0.0434 C.1     1  LIG1        0.0998
     24 N           6.7507    4.6846   -0.0551 N.1     1  LIG1       -0.1908
     25 C           6.2361    3.6495   -0.0550 C.1     1  LIG1        0.0998
     26 C           8.5411    0.4889   -0.9867 C.ar    1  LIG1        0.0596
     27 C           9.9372    0.4795   -0.9378 C.ar    1  LIG1       -0.0425
     28 C           7.7933    1.1671   -0.0069 C.ar    1  LIG1        0.0020
     29 C          10.6048    1.1358    0.0801 C.ar    1  LIG1       -0.0431
     30 H          10.4904   -0.0439   -1.7085 H       1  LIG1        0.0631
     31 C           8.4774    1.8265    1.0093 C.ar    1  LIG1       -0.0354
     32 C           9.8714    1.8107    1.0576 C.ar    1  LIG1        0.0524
     33 H           7.9269    2.3529    1.7796 H       1  LIG1        0.0637
     34 H          11.6872    1.1299    0.1231 H       1  LIG1        0.0631
     35 N           7.3921   -0.7615   -2.9456 N.1     1  LIG1       -0.1909
     36 C           7.8926   -0.1960   -2.0700 C.1     1  LIG1        0.0998
     37 N          11.1051    3.0170    2.9916 N.1     1  LIG1       -0.1909
     38 C          10.5529    2.4838    2.1273 C.1     1  LIG1        0.0992
@<TRIPOS>BOND
     1    12    13    3
     2    35    36    3
     3    13     7    1
     4    36    26    1
     5     8     6    1
     6    30    27    1
     7     7     6   ar
     8     7     4   ar
     9    26    27   ar
    10    26    28   ar
    11     6     3   ar
    12    27    29   ar
    13    21    19    1
    14    24    25    3
    15    25    20    1
    16    19    16   ar
    17    19    20   ar
    18    23    22    3
    19    23    14    1
    20    16    14   ar
    21    16     4    1
    22    20    17   ar
    23    14    15   ar
    24    15    17   ar
    25    15    18    1
    26    17    28    1
    27     4     2   ar
    28    28    31   ar
    29     3     9    1
    30     3     1   ar
    31    29    34    1
    32    29    32   ar
    33     2     1   ar
    34     2     5    1
    35    31    32   ar
    36    31    33    1
    37     1    11    1
    38    32    38    1
    39    11    10    3
    40    38    37    3
