@<TRIPOS>MOLECULE
mol_data/opt/cam/geoms/mol2/4dd4dd.out
 26 27 0 0 0
SMALL
GASTEIGER

@<TRIPOS>ATOM
      1 C          -0.0090    0.1813    0.5819 C.ar    1  LIG1        0.0524
      2 C           1.3857    0.1687    0.5642 C.ar    1  LIG1       -0.0354
      3 C          -0.7139    1.2364   -0.0003 C.ar    1  LIG1       -0.0431
      4 C           2.0990    1.2063   -0.0273 C.ar    1  LIG1        0.0020
      5 H           1.9149   -0.6565    1.0253 H       1  LIG1        0.0637
      6 C          -0.0172    2.2717   -0.5962 C.ar    1  LIG1       -0.0425
      7 C           1.3799    2.2638   -0.6126 C.ar    1  LIG1        0.0596
      8 H          -0.5477    3.0949   -1.0595 H       1  LIG1        0.0631
      9 H          -1.7970    1.2385    0.0164 H       1  LIG1        0.0631
     10 N          -1.2993   -1.7525    1.7281 N.1     1  LIG1       -0.1909
     11 C          -0.7217   -0.8935    1.2137 C.1     1  LIG1        0.0992
     12 N           2.5876    4.2369   -1.7831 N.1     1  LIG1       -0.1909
     13 C           2.0613    3.3503   -1.2598 C.1     1  LIG1        0.0998
     14 C           4.3138    0.1255   -0.5807 C.ar    1  LIG1        0.0596
     15 C           5.7105    0.1178   -0.5449 C.ar    1  LIG1       -0.0425
     16 C           3.5867    1.1893   -0.0170 C.ar    1  LIG1        0.0020
     17 C           6.3990    1.1596    0.0492 C.ar    1  LIG1       -0.0431
     18 H           6.2474   -0.7104   -0.9919 H       1  LIG1        0.0631
     19 C           4.2919    2.2333    0.5729 C.ar    1  LIG1       -0.0354
     20 C           5.6863    2.2210    0.6100 C.ar    1  LIG1        0.0524
     21 H           3.7565    3.0635    1.0177 H       1  LIG1        0.0637
     22 H           7.4819    1.1578    0.0808 H       1  LIG1        0.0631
     23 N           3.1222   -1.8603   -1.7462 N.1     1  LIG1       -0.1909
     24 C           3.6413   -0.9681   -1.2253 C.1     1  LIG1        0.0998
     25 N           6.9608    4.1672    1.7527 N.1     1  LIG1       -0.1909
     26 C           6.3902    3.3026    1.2398 C.1     1  LIG1        0.0992
@<TRIPOS>BOND
     1    12    13    3
     2    23    24    3
     3    13     7    1
     4    24    14    1
     5     8     6    1
     6    18    15    1
     7     7     6   ar
     8     7     4   ar
     9     6     3   ar
    10    14    15   ar
    11    14    16   ar
    12    15    17   ar
    13     4    16    1
    14     4     2   ar
    15    16    19   ar
    16     3     9    1
    17     3     1   ar
    18    17    22    1
    19    17    20   ar
    20     2     1   ar
    21     2     5    1
    22    19    20   ar
    23    19    21    1
    24     1    11    1
    25    20    26    1
    26    11    10    3
    27    26    25    3
