@<TRIPOS>MOLECULE
mol_data/opt/cam/geoms/mol2/4dd4dd4dd4dd.out
 50 53 0 0 0
SMALL
GASTEIGER

@<TRIPOS>ATOM
      1 C          -0.1949    1.0257    1.2756 C.ar    1  LIG1        0.0524
      2 C           1.1988    1.0020    1.2226 C.ar    1  LIG1       -0.0354
      3 C          -0.9443    1.1612    0.1057 C.ar    1  LIG1       -0.0431
      4 C           1.8664    1.1191    0.0077 C.ar    1  LIG1        0.0020
      5 H           1.7616    0.8998    2.1426 H       1  LIG1        0.0637
      6 C          -0.2931    1.2745   -1.1091 C.ar    1  LIG1       -0.0425
      7 C           1.1026    1.2565   -1.1657 C.ar    1  LIG1        0.0596
      8 H          -0.8588    1.3739   -2.0278 H       1  LIG1        0.0631
      9 H          -2.0264    1.1765    0.1546 H       1  LIG1        0.0631
     10 N          -1.3971    0.8469    3.5647 N.1     1  LIG1       -0.1909
     11 C          -0.8592    0.9216    2.5444 C.1     1  LIG1        0.0992
     12 N           2.2228    1.4629   -3.4945 N.1     1  LIG1       -0.1909
     13 C           1.7346    1.3648   -2.4510 C.1     1  LIG1        0.0998
     14 C           4.1035    0.0559    0.5123 C.ar    1  LIG1        0.0601
     15 C           5.4977    0.0809    0.4823 C.ar    1  LIG1       -0.0348
     16 C           3.3532    1.1138   -0.0282 C.ar    1  LIG1        0.0020
     17 C           6.1894    1.1495   -0.0762 C.ar    1  LIG1        0.0020
     18 H           6.0422   -0.7532    0.9076 H       1  LIG1        0.0637
     19 C           4.0451    2.1789   -0.5935 C.ar    1  LIG1       -0.0348
     20 C           5.4390    2.2068   -0.6193 C.ar    1  LIG1        0.0601
     21 H           3.4992    3.0105   -1.0224 H       1  LIG1        0.0637
     22 N           2.9606   -2.0064    1.5899 N.1     1  LIG1       -0.1908
     23 C           3.4593   -1.0850    1.1014 C.1     1  LIG1        0.0998
     24 N           6.5814    4.2705   -1.6945 N.1     1  LIG1       -0.1908
     25 C           6.0818    3.3417   -1.2212 C.1     1  LIG1        0.0998
     26 C           8.4267    0.1070   -0.6229 C.ar    1  LIG1        0.0601
     27 C           9.8206    0.1348   -0.5963 C.ar    1  LIG1       -0.0348
     28 C           7.6760    1.1623   -0.0759 C.ar    1  LIG1        0.0020
     29 C          10.5123    1.1977   -0.0267 C.ar    1  LIG1        0.0020
     30 H          10.3666   -0.6950   -1.0283 H       1  LIG1        0.0637
     31 C           8.3676    2.2286    0.4870 C.ar    1  LIG1       -0.0348
     32 C           9.7617    2.2536    0.5176 C.ar    1  LIG1        0.0601
     33 H           7.8229    3.0611    0.9154 H       1  LIG1        0.0637
     34 N           7.2847   -1.9524   -1.7065 N.1     1  LIG1       -0.1908
     35 C           7.7841   -1.0255   -1.2294 C.1     1  LIG1        0.0998
     36 N          10.9043    4.3116    1.6037 N.1     1  LIG1       -0.1908
     37 C          10.4057    3.3921    1.1114 C.1     1  LIG1        0.0998
     38 C          12.7633    1.0595   -1.1638 C.ar    1  LIG1        0.0596
     39 C          14.1590    1.0413   -1.1068 C.ar    1  LIG1       -0.0425
     40 C          11.9991    1.1924    0.0098 C.ar    1  LIG1        0.0020
     41 C          14.8097    1.1498    0.1087 C.ar    1  LIG1       -0.0431
     42 H          14.7251    0.9455   -2.0256 H       1  LIG1        0.0631
     43 C          12.6662    1.3046    1.2254 C.ar    1  LIG1       -0.0354
     44 C          14.0599    1.2807    1.2788 C.ar    1  LIG1        0.0524
     45 H          12.1030    1.4032    2.1456 H       1  LIG1        0.0637
     46 H          15.8918    1.1343    0.1580 H       1  LIG1        0.0631
     47 N          11.6440    0.8623   -3.4938 N.1     1  LIG1       -0.1909
     48 C          12.1318    0.9562   -2.4498 C.1     1  LIG1        0.0998
     49 N          15.2612    1.4507    3.5691 N.1     1  LIG1       -0.1909
     50 C          14.7237    1.3799    2.5482 C.1     1  LIG1        0.0992
@<TRIPOS>BOND
     1    12    13    3
     2    47    48    3
     3    13     7    1
     4    48    38    1
     5     8     6    1
     6    42    39    1
     7    34    35    3
     8    24    25    3
     9    35    26    1
    10    25    20    1
    11     7     6   ar
    12     7     4   ar
    13    38    39   ar
    14    38    40   ar
    15     6     3   ar
    16    39    41   ar
    17    30    27    1
    18    21    19    1
    19    26    27   ar
    20    26    28   ar
    21    20    19   ar
    22    20    17   ar
    23    27    29   ar
    24    19    16   ar
    25    17    28    1
    26    17    15   ar
    27    28    31   ar
    28    16     4    1
    29    16    14   ar
    30    29    40    1
    31    29    32   ar
    32     4     2   ar
    33    40    43   ar
    34     3     9    1
    35     3     1   ar
    36    41    46    1
    37    41    44   ar
    38    15    14   ar
    39    15    18    1
    40    31    32   ar
    41    31    33    1
    42    14    23    1
    43    32    37    1
    44    23    22    3
    45    37    36    3
    46     2     1   ar
    47     2     5    1
    48    43    44   ar
    49    43    45    1
    50     1    11    1
    51    44    50    1
    52    11    10    3
    53    50    49    3
