@<TRIPOS>MOLECULE
mol_data/opt/cam/geoms/mol2/4dd4dd13fe13ef4di-4ah13da12ef.out
 93 100 0 0 0
SMALL
GASTEIGER

@<TRIPOS>ATOM
      1 C           0.2757   -0.6682    2.5089 C.ar    1  LIG1        0.0524
      2 C           1.5936   -0.5388    2.0719 C.ar    1  LIG1       -0.0354
      3 C          -0.7092    0.2137    2.0595 C.ar    1  LIG1       -0.0431
      4 C           1.9562    0.4700    1.1833 C.ar    1  LIG1        0.0020
      5 H           2.3432   -1.2291    2.4390 H       1  LIG1        0.0637
      6 C          -0.3656    1.2183    1.1742 C.ar    1  LIG1       -0.0425
      7 C           0.9545    1.3508    0.7347 C.ar    1  LIG1        0.0596
      8 H          -1.1172    1.9076    0.8081 H       1  LIG1        0.0631
      9 H          -1.7307    0.1064    2.4036 H       1  LIG1        0.0631
     10 N          -0.3473   -2.5358    4.1949 N.1     1  LIG1       -0.1909
     11 C          -0.0667   -1.7071    3.4393 C.1     1  LIG1        0.0992
     12 N           1.4669    3.2522   -0.9520 N.1     1  LIG1       -0.1909
     13 C           1.2540    2.3976   -0.2026 C.1     1  LIG1        0.0998
     14 C           4.0806   -0.4599    0.1571 C.ar    1  LIG1        0.0602
     15 C           5.4061   -0.3237   -0.2276 C.ar    1  LIG1       -0.0333
     16 C           3.3682    0.6072    0.7445 C.ar    1  LIG1        0.0020
     17 C           6.1067    0.8823   -0.0579 C.ar    1  LIG1        0.0205
     18 H           5.9127   -1.1660   -0.6791 H       1  LIG1        0.0637
     19 C           4.0476    1.8033    0.9085 C.ar    1  LIG1       -0.0347
     20 C           5.3806    1.9524    0.5175 C.ar    1  LIG1        0.0616
     21 H           3.5425    2.6534    1.3514 H       1  LIG1        0.0637
     22 N           2.9438   -2.7517   -0.2719 N.1     1  LIG1       -0.1908
     23 C           3.4425   -1.7267   -0.0787 C.1     1  LIG1        0.0998
     24 N           6.4971    4.2664    0.8502 N.1     1  LIG1       -0.1908
     25 C           5.9766    3.2417    0.7060 C.1     1  LIG1        0.0998
     26 C           7.4868    0.9615   -0.4810 C.ar    1  LIG1        0.0915
     27 C           8.2170    0.1150   -1.3032 C.ar    1  LIG1        0.1581
     28 C           9.5220    0.6435   -1.4766 C.ar    1  LIG1        0.0934
     29 C           9.5770    1.8185   -0.7283 C.ar    1  LIG1        0.0839
     30 N           8.3579    1.9952   -0.1558 N.ar    1  LIG1       -0.3490
     31 H           8.1791    2.6856    0.5559 H       1  LIG1        0.1661
     32 O           7.7538   -1.0054   -1.8897 O.3     1  LIG1       -0.5035
     33 H           8.4589   -1.3620   -2.4520 H       1  LIG1        0.2923
     34 C          10.4575    0.0553   -2.3630 C.1     1  LIG1       -0.0638
     35 C          11.1594   -0.5228   -3.1543 C.1     1  LIG1       -0.1137
     36 H          11.8189   -0.9998   -3.8425 H       1  LIG1        0.1232
     37 C          10.6083    2.8137   -0.5419 C.ar    1  LIG1        0.0839
     38 C          11.9886    2.7137   -0.4097 C.ar    1  LIG1        0.0934
     39 C          12.4753    4.0288   -0.1586 C.ar    1  LIG1        0.1581
     40 C          11.3933    4.8970   -0.1397 C.ar    1  LIG1        0.0915
     41 N          10.2723    4.1296   -0.3735 N.ar    1  LIG1       -0.3490
     42 H           9.3322    4.4945   -0.4081 H       1  LIG1        0.1661
     43 C          12.7818    1.5385   -0.4300 C.1     1  LIG1       -0.0638
     44 C          13.4668    0.5492   -0.4230 C.1     1  LIG1       -0.1137
     45 H          14.0719   -0.3276   -0.4179 H       1  LIG1        0.1232
     46 O          13.7915    4.3313   -0.0712 O.3     1  LIG1       -0.5035
     47 H          14.0069    4.6507    0.8194 H       1  LIG1        0.2923
     48 C          12.0721    7.1118    0.8489 C.ar    1  LIG1        0.0616
     49 C          11.9494    8.5011    0.8890 C.ar    1  LIG1       -0.0357
     50 C          11.2952    6.3517   -0.0433 C.ar    1  LIG1        0.0196
     51 C          11.0524    9.1774    0.0707 C.ar    1  LIG1       -0.0137
     52 H          12.5682    9.0641    1.5790 H       1  LIG1        0.0637
     53 C          10.3870    7.0483   -0.8449 C.ar    1  LIG1       -0.0478
     54 C          10.2416    8.4311   -0.8073 C.ar    1  LIG1       -0.0420
     55 H           9.7806    6.4879   -1.5497 H       1  LIG1        0.0627
     56 N          13.6964    5.9300    2.4815 N.1     1  LIG1       -0.1908
     57 C          12.9702    6.4714    1.7593 C.1     1  LIG1        0.0998
     58 C           9.2164    9.0817   -1.6988 C.3     1  LIG1       -0.0391
     59 H           8.4603    8.3573   -2.0072 H       1  LIG1        0.0278
     60 H           9.6724    9.4861   -2.6076 H       1  LIG1        0.0278
     61 H           8.7167    9.9105   -1.1942 H       1  LIG1        0.0278
     62 C          10.7177   11.2632    1.4098 C.ar    1  LIG1       -0.0533
     63 C          10.6539   12.6432    1.5090 C.ar    1  LIG1       -0.0503
     64 C          10.9713   10.6591    0.1781 C.ar    1  LIG1       -0.0158
     65 C          10.8546   13.4695    0.4001 C.ar    1  LIG1        0.0202
     66 H          10.4240   13.0931    2.4671 H       1  LIG1        0.0625
     67 C          11.1944   11.4742   -0.9298 C.ar    1  LIG1       -0.0327
     68 C          11.1530   12.8629   -0.8387 C.ar    1  LIG1        0.0344
     69 H          11.4431   11.0217   -1.8854 H       1  LIG1        0.0642
     70 H          10.5399   10.6505    2.2866 H       1  LIG1        0.0624
     71 N          11.3716   13.6481   -1.9873 N.pl3   1  LIG1       -0.3574
     72 H          12.0152   14.4158   -1.8302 H       1  LIG1        0.1423
     73 H          11.6826   13.0995   -2.7787 H       1  LIG1        0.1423
     74 C          10.7187   14.9232    0.5374 C.ar    1  LIG1        0.0663
     75 C          10.9180   15.7681    1.6310 C.ar    1  LIG1        0.0777
     76 C          10.5772   17.0888    1.2399 C.ar    1  LIG1       -0.0153
     77 C          10.1812   17.0262   -0.0759 C.ar    1  LIG1        0.0851
     78 N          10.2794   15.7171   -0.4805 N.ar    1  LIG1       -0.3506
     79 H          10.0454   15.3698   -1.4013 H       1  LIG1        0.1660
     80 N          11.7889   15.0892    3.9618 N.1     1  LIG1       -0.1908
     81 C          11.4013   15.3897    2.9126 C.1     1  LIG1        0.1013
     82 H          10.6270   17.9770    1.8490 H       1  LIG1        0.0653
     83 C           9.7367   18.0457   -0.9893 C.ar    1  LIG1        0.1699
     84 C           9.5402   19.3979   -0.8642 C.ar    1  LIG1        0.1132
     85 C           9.0817   19.8354   -2.1551 C.ar    1  LIG1        0.1709
     86 C           9.0335   18.7424   -2.9549 C.ar    1  LIG1        0.1352
     87 O           9.4353   17.6396   -2.2436 O.2     1  LIG1       -0.4564
     88 H           8.7553   18.5790   -3.9825 H       1  LIG1        0.1068
     89 C           9.7422   20.2021    0.2841 C.1     1  LIG1       -0.0621
     90 C           9.9151   20.8846    1.2610 C.1     1  LIG1       -0.1137
     91 H          10.0637   21.4984    2.1195 H       1  LIG1        0.1232
     92 O           8.7825   21.1264   -2.4110 O.3     1  LIG1       -0.5028
     93 H           8.4882   21.2188   -3.3245 H       1  LIG1        0.2923
@<TRIPOS>BOND
     1    88    86    1
     2    36    35    1
     3    93    92    1
     4    35    34    3
     5    86    87   ar
     6    86    85   ar
     7    73    71    1
     8    60    58    1
     9    33    32    1
    10    92    85    1
    11    34    28    1
    12    87    83   ar
    13    85    84   ar
    14    59    58    1
    15    71    72    1
    16    71    68    1
    17    32    27    1
    18    69    67    1
    19    58    61    1
    20    58    54    1
    21    55    53    1
    22    28    27   ar
    23    28    29   ar
    24    79    78    1
    25    27    26   ar
    26    83    84   ar
    27    83    77    1
    28    12    13    3
    29    67    68   ar
    30    67    64   ar
    31    84    89    1
    32    53    54   ar
    33    53    50   ar
    34    68    65   ar
    35    54    51   ar
    36    29    37    1
    37    29    30   ar
    38    18    15    1
    39    37    38   ar
    40    37    41   ar
    41    26    30   ar
    42    26    17    1
    43    78    77   ar
    44    78    74   ar
    45    43    44    3
    46    43    38    1
    47    44    45    1
    48    38    39   ar
    49    42    41    1
    50    41    40   ar
    51    22    23    3
    52    15    17   ar
    53    15    14   ar
    54    13     7    1
    55    39    40   ar
    56    39    46    1
    57    30    31    1
    58    40    50    1
    59    23    14    1
    60    77    76   ar
    61    46    47    1
    62    17    20   ar
    63    50    48   ar
    64    51    64    1
    65    51    49   ar
    66    14    16   ar
    67    64    62   ar
    68    89    90    3
    69    65    74    1
    70    65    63   ar
    71    20    25    1
    72    20    19   ar
    73    74    75   ar
    74    25    24    3
    75     7     6   ar
    76     7     4   ar
    77    16    19   ar
    78    16     4    1
    79     8     6    1
    80    48    49   ar
    81    48    57    1
    82    49    52    1
    83    19    21    1
    84     6     3   ar
    85     4     2   ar
    86    76    75   ar
    87    76    82    1
    88    90    91    1
    89    62    63   ar
    90    62    70    1
    91    63    66    1
    92    75    81    1
    93    57    56    3
    94     3     9    1
    95     3     1   ar
    96     2     5    1
    97     2     1   ar
    98     1    11    1
    99    81    80    3
   100    11    10    3
