@<TRIPOS>MOLECULE
mol_data/opt/cam/geoms/mol2/4de4df-13ee-4fi-.out
 53 56 0 0 0
SMALL
GASTEIGER

@<TRIPOS>ATOM
      1 C          -0.1955    0.5673   -0.9336 C.ar    1  LIG1        0.0524
      2 C           1.1963    0.5270   -0.8655 C.ar    1  LIG1       -0.0354
      3 C          -0.9188    1.3474   -0.0290 C.ar    1  LIG1       -0.0432
      4 C           1.8887    1.2624    0.0928 C.ar    1  LIG1        0.0001
      5 H           1.7447   -0.0802   -1.5757 H       1  LIG1        0.0637
      6 C          -0.2425    2.0759    0.9306 C.ar    1  LIG1       -0.0445
      7 C           1.1559    2.0471    1.0064 C.ar    1  LIG1        0.0325
      8 H          -0.7911    2.6778    1.6453 H       1  LIG1        0.0630
      9 H          -2.0007    1.3756   -0.0831 H       1  LIG1        0.0631
     10 N          -1.4483   -0.7730   -2.7643 N.1     1  LIG1       -0.1909
     11 C          -0.8852   -0.1818   -1.9454 C.1     1  LIG1        0.0992
     12 C           1.7951    2.8047    2.0405 C.1     1  LIG1       -0.0691
     13 C           2.2856    3.4516    2.9291 C.1     1  LIG1       -0.1139
     14 H           2.7270    4.0094    3.7233 H       1  LIG1        0.1232
     15 C           4.0868    0.0125    0.2211 C.ar    1  LIG1        0.0603
     16 C           5.4804    0.0093    0.2090 C.ar    1  LIG1       -0.0311
     17 C           3.3734    1.2172    0.1150 C.ar    1  LIG1        0.0042
     18 C           6.2338    1.1786    0.0861 C.ar    1  LIG1        0.0422
     19 H           5.9948   -0.9369    0.3026 H       1  LIG1        0.0638
     20 C           4.1131    2.3868    0.0000 C.ar    1  LIG1       -0.0105
     21 C           5.5007    2.3784   -0.0139 C.ar    1  LIG1        0.1266
     22 H           3.5926    3.3362   -0.0840 H       1  LIG1        0.0661
     23 N           2.8774   -2.2635    0.4988 N.1     1  LIG1       -0.1908
     24 C           3.4075   -1.2427    0.3757 C.1     1  LIG1        0.0998
     25 O           6.1824    3.5564   -0.1351 O.3     1  LIG1       -0.5061
     26 H           5.5597    4.2920   -0.1709 H       1  LIG1        0.2922
     27 C           7.6961    1.1242    0.0724 C.ar    1  LIG1        0.0673
     28 C           8.5777    0.0434    0.1097 C.ar    1  LIG1        0.0660
     29 C           9.9086    0.5718    0.0987 C.ar    1  LIG1        0.0660
     30 C           9.8024    1.9529    0.0555 C.ar    1  LIG1        0.0672
     31 N           8.4741    2.2529    0.0321 N.ar    1  LIG1       -0.3520
     32 H           8.0895    3.1849    0.0357 H       1  LIG1        0.1660
     33 C           8.2872   -1.3460    0.1337 C.1     1  LIG1       -0.0663
     34 C           8.0822   -2.5332    0.1535 C.1     1  LIG1       -0.1138
     35 H           7.9019   -3.5834    0.1694 H       1  LIG1        0.1232
     36 C          11.0992   -0.2000    0.0653 C.1     1  LIG1       -0.0663
     37 C          12.0957   -0.8734    0.0178 C.1     1  LIG1       -0.1138
     38 H          12.9751   -1.4727   -0.0243 H       1  LIG1        0.1232
     39 C          11.9013    3.0725    0.8427 C.ar    1  LIG1        0.1260
     40 C          12.8301    4.1021    0.7233 C.ar    1  LIG1       -0.0193
     41 C          10.8087    3.0179   -0.0336 C.ar    1  LIG1        0.0412
     42 C          12.6746    5.0830   -0.2450 C.ar    1  LIG1       -0.0554
     43 H          13.6723    4.1428    1.4094 H       1  LIG1        0.0654
     44 C          10.6753    4.0257   -0.9922 C.ar    1  LIG1       -0.0462
     45 C          11.5903    5.0662   -1.1204 C.ar    1  LIG1       -0.0496
     46 H           9.8349    3.9722   -1.6793 H       1  LIG1        0.0628
     47 H          13.4109    5.8783   -0.3168 H       1  LIG1        0.0621
     48 O          11.9888    2.1259    1.8098 O.3     1  LIG1       -0.5061
     49 H          12.8240    2.2207    2.2817 H       1  LIG1        0.2922
     50 C          11.4386    6.1120   -2.1940 C.3     1  LIG1       -0.0397
     51 H          10.3991    6.2031   -2.5182 H       1  LIG1        0.0278
     52 H          12.0353    5.8654   -3.0787 H       1  LIG1        0.0278
     53 H          11.7681    7.0937   -1.8437 H       1  LIG1        0.0278
@<TRIPOS>BOND
     1    52    50    1
     2    10    11    3
     3    51    50    1
     4    50    53    1
     5    50    45    1
     6    11     1    1
     7    46    44    1
     8     5     2    1
     9    45    44   ar
    10    45    42   ar
    11    44    41   ar
    12     1     2   ar
    13     1     3   ar
    14     2     4   ar
    15    47    42    1
    16    42    40   ar
    17    26    25    1
    18    25    21    1
    19    22    20    1
    20     9     3    1
    21    41    30    1
    22    41    39   ar
    23     3     6   ar
    24    38    37    1
    25    21    20   ar
    26    21    18   ar
    27    20    17   ar
    28    37    36    3
    29    31    32    1
    30    31    30   ar
    31    31    27   ar
    32    30    29   ar
    33    36    29    1
    34    27    18    1
    35    27    28   ar
    36    18    16   ar
    37     4    17    1
    38     4     7   ar
    39    29    28   ar
    40    28    33    1
    41    17    15   ar
    42    33    34    3
    43    34    35    1
    44    16    15   ar
    45    16    19    1
    46    15    24    1
    47    24    23    3
    48    40    39   ar
    49    40    43    1
    50    39    48    1
    51     6     7   ar
    52     6     8    1
    53     7    12    1
    54    48    49    1
    55    12    13    3
    56    13    14    1
