@<TRIPOS>MOLECULE
mol_data/opt/cam/geoms/mol2/4df12he4dd4eh-4eh-12hf-6hi6hh.out
 102 109 0 0 0
SMALL
GASTEIGER

@<TRIPOS>ATOM
      1 C          -0.0097   -0.9091    0.6702 C.ar    1  LIG1        0.0527
      2 C           1.3611   -0.7566    0.4551 C.ar    1  LIG1       -0.0301
      3 C          -0.8675    0.1704    0.4551 C.ar    1  LIG1       -0.0409
      4 C           1.8982    0.4502    0.0085 C.ar    1  LIG1        0.0617
      5 H           2.0283   -1.5879    0.6539 H       1  LIG1        0.0639
      6 C          -0.3498    1.3775    0.0190 C.ar    1  LIG1       -0.0183
      7 C           1.0150    1.5263   -0.2158 C.ar    1  LIG1        0.1276
      8 H          -1.0138    2.2194   -0.1565 H       1  LIG1        0.0655
      9 H          -1.9316    0.0609    0.6275 H       1  LIG1        0.0631
     10 N          -0.9559   -3.1825    1.4752 N.1     1  LIG1       -0.1909
     11 C          -0.5310   -2.1670    1.1193 C.1     1  LIG1        0.0992
     12 O           1.5303    2.6889   -0.6777 O.3     1  LIG1       -0.5061
     13 H           0.8226    3.3356   -0.7874 H       1  LIG1        0.2922
     14 C           3.3308    0.5483   -0.2323 C.ar    1  LIG1        0.1610
     15 C           4.2569   -0.3789   -0.6283 C.ar    1  LIG1        0.0873
     16 C           5.5243    0.2989   -0.6594 C.ar    1  LIG1        0.0917
     17 C           5.2752    1.5915   -0.2638 C.ar    1  LIG1        0.1541
     18 O           3.9601    1.7455   -0.0167 O.2     1  LIG1       -0.4515
     19 N           4.0792   -1.7186   -0.9302 N.pl3   1  LIG1       -0.3541
     20 H           3.2030   -1.9426   -1.3819 H       1  LIG1        0.1425
     21 H           4.8709   -2.1232   -1.4131 H       1  LIG1        0.1425
     22 C           6.7191   -0.2929   -1.1404 C.1     1  LIG1       -0.0640
     23 C           7.6896   -0.8521   -1.5825 C.1     1  LIG1       -0.1137
     24 H           8.5754   -1.3250   -1.9400 H       1  LIG1        0.1232
     25 C           7.3935    2.8751    0.2820 C.ar    1  LIG1        0.0631
     26 C           8.0823    4.0887    0.2958 C.ar    1  LIG1       -0.0347
     27 C           6.0654    2.8150   -0.1781 C.ar    1  LIG1        0.0371
     28 C           7.4897    5.2782   -0.1139 C.ar    1  LIG1        0.0020
     29 H           9.1032    4.1032    0.6551 H       1  LIG1        0.0637
     30 C           5.4562    4.0097   -0.5594 C.ar    1  LIG1       -0.0318
     31 C           6.1463    5.2187   -0.5298 C.ar    1  LIG1        0.0602
     32 H           4.4220    3.9892   -0.8808 H       1  LIG1        0.0638
     33 N           8.6521    0.8584    1.3104 N.1     1  LIG1       -0.1908
     34 C           8.0697    1.7325    0.8266 C.1     1  LIG1        0.0999
     35 N           4.7987    7.3107   -1.2604 N.1     1  LIG1       -0.1908
     36 C           5.4251    6.3974   -0.9274 C.1     1  LIG1        0.0998
     37 C           8.9550    6.9827    1.0379 C.ar    1  LIG1        0.0331
     38 C           9.6819    8.1734    0.9610 C.ar    1  LIG1       -0.0362
     39 C           8.2662    6.5436   -0.1104 C.ar    1  LIG1        0.0005
     40 C           9.7487    8.9397   -0.1944 C.ar    1  LIG1        0.0052
     41 H          10.2078    8.5141    1.8449 H       1  LIG1        0.0637
     42 C           8.3360    7.3000   -1.2723 C.ar    1  LIG1       -0.0315
     43 C           9.0611    8.4936   -1.3415 C.ar    1  LIG1        0.0330
     44 H           7.8198    6.9554   -2.1627 H       1  LIG1        0.0643
     45 C           8.9115    6.2753    2.2814 C.1     1  LIG1       -0.0690
     46 C           8.8945    5.7018    3.3405 C.1     1  LIG1       -0.1139
     47 H           8.8737    5.1913    4.2758 H       1  LIG1        0.1232
     48 N           9.0716    9.2215   -2.5168 N.pl3   1  LIG1       -0.3575
     49 H           9.8364    9.8684   -2.6349 H       1  LIG1        0.1423
     50 H           8.8255    8.7166   -3.3540 H       1  LIG1        0.1423
     51 C          11.8896   10.2609    0.1178 C.ar    1  LIG1        0.0332
     52 C          12.5377   11.4969    0.1126 C.ar    1  LIG1       -0.0332
     53 C          10.5183   10.2129   -0.2033 C.ar    1  LIG1        0.0011
     54 C          11.8945   12.6918   -0.2137 C.ar    1  LIG1        0.0410
     55 H          13.5835   11.5273    0.3952 H       1  LIG1        0.0638
     56 C           9.8688   11.4021   -0.5141 C.ar    1  LIG1       -0.0314
     57 C          10.5131   12.6431   -0.5255 C.ar    1  LIG1        0.0360
     58 H           8.8092   11.3691   -0.7496 H       1  LIG1        0.0643
     59 C          12.6437    9.0861    0.4363 C.1     1  LIG1       -0.0690
     60 C          13.3095    8.1185    0.7025 C.1     1  LIG1       -0.1139
     61 H          13.8866    7.2561    0.9443 H       1  LIG1        0.1232
     62 N           9.7717   13.7786   -0.7948 N.pl3   1  LIG1       -0.3574
     63 H          10.2760   14.6037   -1.0762 H       1  LIG1        0.1423
     64 H           8.8974   13.6287   -1.2737 H       1  LIG1        0.1423
     65 C          12.6741   13.9211   -0.2278 C.ar    1  LIG1        0.1617
     66 C          14.0178   14.1720   -0.3198 C.ar    1  LIG1        0.1138
     67 C          14.1679   15.5865   -0.2066 C.ar    1  LIG1        0.1846
     68 C          12.9286   16.1387   -0.0753 C.ar    1  LIG1        0.1821
     69 O          12.0116   15.1238   -0.0850 O.2     1  LIG1       -0.4490
     70 N          15.0898   13.2934   -0.4386 N.pl3   1  LIG1       -0.3522
     71 H          14.9265   12.5160   -1.0646 H       1  LIG1        0.1425
     72 H          15.9492   13.7767   -0.6658 H       1  LIG1        0.1425
     73 O          15.3935   16.1804   -0.2587 O.3     1  LIG1       -0.5020
     74 H          15.3914   16.9680    0.3000 H       1  LIG1        0.2924
     75 C          11.2766   17.8758    0.7303 C.ar    1  LIG1        0.1277
     76 C          12.4666   17.5112    0.0478 C.ar    1  LIG1        0.0607
     77 C          13.2222   18.5541   -0.4744 C.ar    1  LIG1       -0.0427
     78 C          12.8508   19.8913   -0.3494 C.ar    1  LIG1       -0.0236
     79 C          11.6460   20.1393    0.3235 C.ar    1  LIG1        0.0793
     80 N          10.9070   19.1485    0.8469 N.ar    1  LIG1       -0.2313
     81 H          14.1361   18.3147   -1.0118 H       1  LIG1        0.0629
     82 N          10.4661   16.9567    1.3371 N.pl3   1  LIG1       -0.3426
     83 H           9.5731   17.3102    1.6404 H       1  LIG1        0.1437
     84 H          10.5223   15.9865    1.0730 H       1  LIG1        0.1437
     85 C          13.7554   20.9646   -0.8995 C.3     1  LIG1       -0.0377
     86 H          13.7083   21.8775   -0.3042 H       1  LIG1        0.0278
     87 H          13.5038   21.2360   -1.9301 H       1  LIG1        0.0278
     88 H          14.7917   20.6168   -0.9061 H       1  LIG1        0.0278
     89 C          10.6061   21.9515    1.7643 C.ar    1  LIG1        0.1255
     90 C          11.0963   21.5084    0.5109 C.ar    1  LIG1        0.0419
     91 C          11.0231   22.3973   -0.5526 C.ar    1  LIG1       -0.0271
     92 C          10.5121   23.6841   -0.3857 C.ar    1  LIG1        0.0437
     93 C          10.0903   24.0169    0.8964 C.ar    1  LIG1        0.0503
     94 N          10.1276   23.1831    1.9319 N.ar    1  LIG1       -0.2382
     95 H          11.3606   22.0825   -1.5353 H       1  LIG1        0.0644
     96 H           9.6890   25.0105    1.0948 H       1  LIG1        0.0849
     97 N          10.6490   21.1483    2.8863 N.pl3   1  LIG1       -0.3426
     98 H          10.0973   21.5230    3.6442 H       1  LIG1        0.1437
     99 H          10.5144   20.1648    2.6947 H       1  LIG1        0.1437
    100 N          10.4817   24.6088   -1.4423 N.pl3   1  LIG1       -0.3568
    101 H          10.3176   24.1868   -2.3462 H       1  LIG1        0.1424
    102 H           9.8321   25.3686   -1.2904 H       1  LIG1        0.1424
@<TRIPOS>BOND
     1    50    48    1
     2    49    48    1
     3    48    43    1
     4   101   100    1
     5    44    42    1
     6    24    23    1
     7    87    85    1
     8    23    22    3
     9    95    91    1
    10   100   102    1
    11   100    92    1
    12    21    19    1
    13    20    19    1
    14    43    42   ar
    15    43    40   ar
    16    64    62    1
    17    42    39   ar
    18    35    36    3
    19    22    16    1
    20    63    62    1
    21    71    70    1
    22    81    77    1
    23    19    15    1
    24    36    31    1
    25    88    85    1
    26    85    78    1
    27    85    86    1
    28    32    30    1
    29    62    57    1
    30    13    12    1
    31    58    56    1
    32    12     7    1
    33    72    70    1
    34    16    15   ar
    35    16    17   ar
    36    15    14   ar
    37    30    31   ar
    38    30    27   ar
    39    91    92   ar
    40    91    90   ar
    41    31    28   ar
    42    57    56   ar
    43    57    54   ar
    44    56    53   ar
    45    77    78   ar
    46    77    76   ar
    47    70    66    1
    48    92    93   ar
    49    78    79   ar
    50    66    65   ar
    51    66    67   ar
    52    17    27    1
    53    17    18   ar
    54    73    67    1
    55    73    74    1
    56    14    18   ar
    57    14     4    1
    58    65    54    1
    59    65    69   ar
    60     7     4   ar
    61     7     6   ar
    62    54    52   ar
    63    67    68   ar
    64    53    40    1
    65    53    51   ar
    66    40    38   ar
    67    27    25   ar
    68     8     6    1
    69    28    39    1
    70    28    26   ar
    71    39    37   ar
    72    69    68   ar
    73    68    76    1
    74     4     2   ar
    75     6     3   ar
    76    76    75   ar
    77    52    51   ar
    78    52    55    1
    79    51    59    1
    80    25    26   ar
    81    25    34    1
    82    26    29    1
    83    79    90    1
    84    79    80   ar
    85    59    60    3
    86     2     5    1
    87     2     1   ar
    88     3     9    1
    89     3     1   ar
    90    90    89   ar
    91     1    11    1
    92    60    61    1
    93    75    80   ar
    94    75    82    1
    95    34    33    3
    96    93    96    1
    97    93    94   ar
    98    38    37   ar
    99    38    41    1
   100    37    45    1
   101    84    82    1
   102    11    10    3
   103    82    83    1
   104    89    94   ar
   105    89    97    1
   106    45    46    3
   107    99    97    1
   108    97    98    1
   109    46    47    1
