@<TRIPOS>MOLECULE
mol_data/opt/cam/geoms/mol2/4df13le-4he6ia-.out
 54 57 0 0 0
SMALL
GASTEIGER

@<TRIPOS>ATOM
      1 C          -0.2280   -0.0366   -1.0428 C.ar    1  LIG1        0.0526
      2 C           1.1113   -0.0021   -0.6582 C.ar    1  LIG1       -0.0316
      3 C          -0.8567    1.1208   -1.5041 C.ar    1  LIG1       -0.0409
      4 C           1.8607    1.1770   -0.7098 C.ar    1  LIG1        0.0445
      5 H           1.5949   -0.9055   -0.3116 H       1  LIG1        0.0638
      6 C          -0.1304    2.2953   -1.5738 C.ar    1  LIG1       -0.0183
      7 C           1.2047    2.3288   -1.1859 C.ar    1  LIG1        0.1261
      8 H          -0.6018    3.2057   -1.9341 H       1  LIG1        0.0655
      9 H          -1.8971    1.0963   -1.8050 H       1  LIG1        0.0631
     10 N          -1.5576   -2.2569   -0.9041 N.1     1  LIG1       -0.1909
     11 C          -0.9602   -1.2681   -0.9662 C.1     1  LIG1        0.0992
     12 O           1.9153    3.4939   -1.2601 O.3     1  LIG1       -0.5061
     13 H           1.3537    4.1998   -1.6012 H       1  LIG1        0.2922
     14 C           3.2590    1.1746   -0.2814 C.ar    1  LIG1        0.0940
     15 C           4.0112    0.1874    0.3314 C.ar    1  LIG1        0.1613
     16 C           5.3399    0.6738    0.5082 C.ar    1  LIG1        0.0922
     17 C           5.3671    1.9666   -0.0130 C.ar    1  LIG1        0.0680
     18 N           4.1187    2.2362   -0.4723 N.ar    1  LIG1       -0.3501
     19 H           3.8410    3.0922   -0.9271 H       1  LIG1        0.1661
     20 O           3.5633   -1.0520    0.6728 O.3     1  LIG1       -0.4917
     21 C           3.5097   -1.3060    2.0751 C.3     1  LIG1        0.0789
     22 H           3.1310   -2.3218    2.1892 H       1  LIG1        0.0660
     23 H           4.5025   -1.2343    2.5265 H       1  LIG1        0.0660
     24 H           2.8312   -0.6035    2.5711 H       1  LIG1        0.0660
     25 C           6.4134   -0.0284    1.1152 C.1     1  LIG1       -0.0638
     26 C           7.3331   -0.6312    1.6105 C.1     1  LIG1       -0.1137
     27 H           8.1381   -1.1609    2.0653 H       1  LIG1        0.1232
     28 C           7.7027    2.7529   -0.6034 C.ar    1  LIG1        0.0345
     29 C           8.6052    3.8239   -0.6726 C.ar    1  LIG1       -0.0315
     30 C           6.4131    2.9984   -0.0805 C.ar    1  LIG1        0.0214
     31 C           8.2825    5.1075   -0.2601 C.ar    1  LIG1        0.0010
     32 H           9.5991    3.6398   -1.0702 H       1  LIG1        0.0643
     33 C           6.0940    4.2912    0.3281 C.ar    1  LIG1       -0.0348
     34 C           6.9922    5.3558    0.2476 C.ar    1  LIG1        0.0332
     35 H           5.1077    4.4796    0.7388 H       1  LIG1        0.0637
     36 N           8.0674    1.5256   -1.1096 N.pl3   1  LIG1       -0.3574
     37 H           7.6202    0.7099   -0.7190 H       1  LIG1        0.1423
     38 H           9.0554    1.3977   -1.2654 H       1  LIG1        0.1423
     39 C           6.5788    6.6605    0.6640 C.1     1  LIG1       -0.0690
     40 C           6.2085    7.7510    1.0178 C.1     1  LIG1       -0.1139
     41 H           5.8918    8.7202    1.3270 H       1  LIG1        0.1232
     42 C           9.9393    6.7593    0.7213 C.ar    1  LIG1        0.0459
     43 C           9.2992    6.1872   -0.3936 C.ar    1  LIG1        0.0044
     44 C           9.6690    6.6297   -1.6596 C.ar    1  LIG1       -0.0509
     45 C          10.6266    7.6253   -1.7893 C.ar    1  LIG1       -0.0430
     46 C          11.1874    8.1369   -0.6299 C.ar    1  LIG1        0.0279
     47 N          10.8631    7.7147    0.5912 N.ar    1  LIG1       -0.2596
     48 H           9.1962    6.1959   -2.5353 H       1  LIG1        0.0625
     49 H          11.9408    8.9201   -0.6792 H       1  LIG1        0.0829
     50 C           9.6325    6.3205    2.1263 C.3     1  LIG1       -0.0218
     51 H           9.5743    5.2320    2.2054 H       1  LIG1        0.0293
     52 H           8.6702    6.7241    2.4542 H       1  LIG1        0.0293
     53 H          10.4107    6.6936    2.7915 H       1  LIG1        0.0293
     54 H          10.9299    7.9944   -2.7625 H       1  LIG1        0.0633
@<TRIPOS>BOND
     1    54    45    1
     2    48    44    1
     3     8     6    1
     4     9     3    1
     5    45    44   ar
     6    45    46   ar
     7    44    43   ar
     8    13    12    1
     9     6     3   ar
    10     6     7   ar
    11     3     1   ar
    12    38    36    1
    13    12     7    1
    14     7     4   ar
    15    36    37    1
    16    36    28    1
    17    32    29    1
    18     1    11    1
    19     1     2   ar
    20    11    10    3
    21    19    18    1
    22     4     2   ar
    23     4    14    1
    24    49    46    1
    25    29    28   ar
    26    29    31   ar
    27     2     5    1
    28    46    47   ar
    29    28    30   ar
    30    18    14   ar
    31    18    17   ar
    32    43    31    1
    33    43    42   ar
    34    14    15   ar
    35    31    34   ar
    36    30    17    1
    37    30    33   ar
    38    17    16   ar
    39    34    33   ar
    40    34    39    1
    41    33    35    1
    42    15    16   ar
    43    15    20    1
    44    16    25    1
    45    47    42   ar
    46    39    40    3
    47    20    21    1
    48    42    50    1
    49    40    41    1
    50    25    26    3
    51    26    27    1
    52    21    22    1
    53    21    23    1
    54    21    24    1
    55    50    51    1
    56    50    52    1
    57    50    53    1
