@<TRIPOS>MOLECULE
mol_data/opt/cam/geoms/mol2/4dg.out
 14 14 0 0 0
SMALL
GASTEIGER

@<TRIPOS>ATOM
      1 C           0.0695    0.0143    0.0004 C.ar    1  LIG1        0.0518
      2 C           1.4671    0.0068    0.0000 C.ar    1  LIG1       -0.0433
      3 C          -0.6131    1.2325    0.0003 C.ar    1  LIG1       -0.0433
      4 C           2.1683    1.1995   -0.0004 C.ar    1  LIG1       -0.0473
      5 H           1.9990   -0.9376    0.0001 H       1  LIG1        0.0631
      6 C           0.0905    2.4254   -0.0002 C.ar    1  LIG1       -0.0473
      7 C           1.4862    2.4187   -0.0006 C.ar    1  LIG1        0.0048
      8 H          -0.4531    3.3640   -0.0003 H       1  LIG1        0.0629
      9 H           3.2530    1.1850   -0.0007 H       1  LIG1        0.0629
     10 H          -1.6971    1.2409    0.0005 H       1  LIG1        0.0631
     11 N          -1.2480   -2.2166    0.0013 N.1     1  LIG1       -0.1909
     12 C          -0.6594   -1.2207    0.0009 C.1     1  LIG1        0.0992
     13 S           2.4538    3.9034   -0.0012 S.3     1  LIG1       -0.1426
     14 H           1.4257    4.7663   -0.0011 H       1  LIG1        0.1071
@<TRIPOS>BOND
     1    13    14    1
     2    13     7    1
     3     9     4    1
     4     7     4   ar
     5     7     6   ar
     6     4     2   ar
     7     8     6    1
     8     6     3   ar
     9     2     5    1
    10     2     1   ar
    11     3     1   ar
    12     3    10    1
    13     1    12    1
    14    12    11    3
