@<TRIPOS>MOLECULE
mol_data/opt/cam/geoms/mol2/4dg4dg-4dg-4dg.out
 50 53 0 0 0
SMALL
GASTEIGER

@<TRIPOS>ATOM
      1 C          -0.1848    0.6561   -1.1852 C.ar    1  LIG1        0.0524
      2 C           1.2067    0.6628   -1.1074 C.ar    1  LIG1       -0.0355
      3 C          -0.9361    1.1101   -0.0998 C.ar    1  LIG1       -0.0433
      4 C           1.8590    1.1223    0.0322 C.ar    1  LIG1       -0.0022
      5 H           1.7903    0.3073   -1.9489 H       1  LIG1        0.0637
      6 C          -0.2971    1.5629    1.0395 C.ar    1  LIG1       -0.0468
      7 C           1.0973    1.5751    1.1223 C.ar    1  LIG1        0.0126
      8 H          -0.8918    1.9086    1.8778 H       1  LIG1        0.0629
      9 H          -2.0186    1.1054   -0.1528 H       1  LIG1        0.0631
     10 N          -1.3692   -0.1631   -3.3388 N.1     1  LIG1       -0.1909
     11 C          -0.8383    0.1963   -2.3762 C.1     1  LIG1        0.0992
     12 S           1.9334    2.1331    2.5857 S.3     1  LIG1       -0.1420
     13 H           0.8227    2.3052    3.3195 H       1  LIG1        0.1071
     14 C           4.0883   -0.0653    0.0547 C.ar    1  LIG1        0.0601
     15 C           5.4815   -0.0203    0.0579 C.ar    1  LIG1       -0.0350
     16 C           3.3488    1.1280    0.0633 C.ar    1  LIG1        0.0016
     17 C           6.1678    1.1887    0.0667 C.ar    1  LIG1       -0.0022
     18 H           6.0399   -0.9495    0.0536 H       1  LIG1        0.0637
     19 C           4.0381    2.3343    0.0764 C.ar    1  LIG1       -0.0390
     20 C           5.4320    2.3839    0.0830 C.ar    1  LIG1        0.0131
     21 H           3.4659    3.2555    0.0783 H       1  LIG1        0.0635
     22 N           2.9173   -2.3767    0.0255 N.1     1  LIG1       -0.1908
     23 C           3.4312   -1.3409    0.0446 C.1     1  LIG1        0.0998
     24 S           6.2967    3.9343    0.1225 S.3     1  LIG1       -0.1420
     25 H           5.2059    4.6951    0.3034 H       1  LIG1        0.1071
     26 C           8.4001    0.6779    1.1302 C.ar    1  LIG1        0.0601
     27 C           9.7925    0.6684    1.0698 C.ar    1  LIG1       -0.0350
     28 C           7.6572    1.1839    0.0519 C.ar    1  LIG1        0.0016
     29 C          10.4756    1.1592   -0.0367 C.ar    1  LIG1       -0.0022
     30 H          10.3537    0.2755    1.9098 H       1  LIG1        0.0637
     31 C           8.3420    1.6664   -1.0566 C.ar    1  LIG1       -0.0390
     32 C           9.7357    1.6633   -1.1182 C.ar    1  LIG1        0.0131
     33 H           7.7668    2.0438   -1.8950 H       1  LIG1        0.0635
     34 N           7.2465   -0.2084    3.2744 N.1     1  LIG1       -0.1908
     35 C           7.7506    0.1864    2.3114 C.1     1  LIG1        0.0998
     36 S          10.5963    2.2576   -2.5518 S.3     1  LIG1       -0.1420
     37 H           9.4961    2.5013   -3.2811 H       1  LIG1        0.1071
     38 C          12.6778   -0.0707   -0.0519 C.ar    1  LIG1        0.0596
     39 C          14.0751   -0.0567   -0.0320 C.ar    1  LIG1       -0.0427
     40 C          11.9654    1.1395   -0.0432 C.ar    1  LIG1        0.0016
     41 C          14.7661    1.1401   -0.0073 C.ar    1  LIG1       -0.0473
     42 H          14.6145   -0.9967   -0.0418 H       1  LIG1        0.0631
     43 C          12.6743    2.3366   -0.0146 C.ar    1  LIG1       -0.0396
     44 C          14.0682    2.3496    0.0007 C.ar    1  LIG1        0.0054
     45 H          12.1199    3.2687    0.0030 H       1  LIG1        0.0635
     46 H          15.8506    1.1364    0.0039 H       1  LIG1        0.0629
     47 N          11.4562   -2.3547   -0.1256 N.1     1  LIG1       -0.1909
     48 C          11.9914   -1.3297   -0.0941 C.1     1  LIG1        0.0998
     49 S          15.0100    3.8479    0.0436 S.3     1  LIG1       -0.1426
     50 H          13.9707    4.6940   -0.0280 H       1  LIG1        0.1071
@<TRIPOS>BOND
     1    10    11    3
     2    37    36    1
     3    36    32    1
     4    11     1    1
     5     5     2    1
     6    33    31    1
     7     1     2   ar
     8     1     3   ar
     9    32    31   ar
    10    32    29   ar
    11     2     4   ar
    12    31    28   ar
    13     9     3    1
    14    47    48    3
    15     3     6   ar
    16    48    38    1
    17    38    40   ar
    18    38    39   ar
    19    40    29    1
    20    40    43   ar
    21    42    39    1
    22    29    27   ar
    23    39    41   ar
    24    50    49    1
    25    43    44   ar
    26    43    45    1
    27    41    44   ar
    28    41    46    1
    29    44    49    1
    30    22    23    3
    31     4    16    1
    32     4     7   ar
    33    23    14    1
    34    28    17    1
    35    28    26   ar
    36    18    15    1
    37    14    15   ar
    38    14    16   ar
    39    15    17   ar
    40    16    19   ar
    41    17    20   ar
    42    19    21    1
    43    19    20   ar
    44    20    24    1
    45    24    25    1
    46     6     7   ar
    47     6     8    1
    48    27    26   ar
    49    27    30    1
    50     7    12    1
    51    26    35    1
    52    35    34    3
    53    12    13    1
