@<TRIPOS>MOLECULE
mol_data/opt/cam/geoms/mol2/4dg4dg4dg-4dg.out
 50 53 0 0 0
SMALL
GASTEIGER

@<TRIPOS>ATOM
      1 C          -0.2079    0.1419    0.7027 C.ar    1  LIG1        0.0524
      2 C           1.1848    0.1712    0.6612 C.ar    1  LIG1       -0.0355
      3 C          -0.9370    1.1383    0.0513 C.ar    1  LIG1       -0.0433
      4 C           1.8599    1.1833   -0.0146 C.ar    1  LIG1       -0.0022
      5 H           1.7519   -0.6032    1.1652 H       1  LIG1        0.0637
      6 C          -0.2754    2.1446   -0.6276 C.ar    1  LIG1       -0.0468
      7 C           1.1201    2.1804   -0.6710 C.ar    1  LIG1        0.0126
      8 H          -0.8529    2.9105   -1.1334 H       1  LIG1        0.0629
      9 H          -2.0203    1.1196    0.0788 H       1  LIG1        0.0631
     10 N          -1.4466   -1.7276    1.9998 N.1     1  LIG1       -0.1909
     11 C          -0.8888   -0.8985    1.4177 C.1     1  LIG1        0.0992
     12 S           1.9839    3.4541   -1.5591 S.3     1  LIG1       -0.1420
     13 H           0.8878    4.0195   -2.0885 H       1  LIG1        0.1071
     14 C           4.0815    0.1733   -0.6623 C.ar    1  LIG1        0.0601
     15 C           5.4746    0.1907   -0.6224 C.ar    1  LIG1       -0.0350
     16 C           3.3497    1.1840   -0.0191 C.ar    1  LIG1        0.0016
     17 C           6.1686    1.1990    0.0366 C.ar    1  LIG1       -0.0022
     18 H           6.0270   -0.5959   -1.1236 H       1  LIG1        0.0637
     19 C           4.0465    2.1861    0.6451 C.ar    1  LIG1       -0.0390
     20 C           5.4405    2.2109    0.6820 C.ar    1  LIG1        0.0131
     21 H           3.4798    2.9587    1.1531 H       1  LIG1        0.0635
     22 N           2.8970   -1.7221   -1.9736 N.1     1  LIG1       -0.1908
     23 C           3.4170   -0.8745   -1.3831 C.1     1  LIG1        0.0998
     24 S           6.3155    3.4831    1.5583 S.3     1  LIG1       -0.1420
     25 H           5.2229    4.0907    2.0465 H       1  LIG1        0.1071
     26 C           8.3734    0.1568    0.6835 C.ar    1  LIG1        0.0601
     27 C           9.7664    0.1514    0.6409 C.ar    1  LIG1       -0.0350
     28 C           7.6578    1.1777    0.0381 C.ar    1  LIG1        0.0016
     29 C          10.4765    1.1452   -0.0222 C.ar    1  LIG1       -0.0022
     30 H          10.3064   -0.6432    1.1429 H       1  LIG1        0.0637
     31 C           8.3696    2.1665   -0.6298 C.ar    1  LIG1       -0.0390
     32 C           9.7641    2.1676   -0.6692 C.ar    1  LIG1        0.0131
     33 H           7.8153    2.9470   -1.1391 H       1  LIG1        0.0635
     34 N           7.1589   -1.7134    2.0033 N.1     1  LIG1       -0.1908
     35 C           7.6928   -0.8772    1.4089 C.1     1  LIG1        0.0998
     36 S          10.6605    3.4214   -1.5486 S.3     1  LIG1       -0.1420
     37 H           9.5780    4.0466   -2.0374 H       1  LIG1        0.1071
     38 C          12.6581    0.0719   -0.6908 C.ar    1  LIG1        0.0596
     39 C          14.0549    0.0395   -0.6579 C.ar    1  LIG1       -0.0427
     40 C          11.9658    1.0983   -0.0280 C.ar    1  LIG1        0.0016
     41 C          14.7648    1.0128    0.0196 C.ar    1  LIG1       -0.0473
     42 H          14.5788   -0.7558   -1.1754 H       1  LIG1        0.0631
     43 C          12.6935    2.0694    0.6529 C.ar    1  LIG1       -0.0396
     44 C          14.0870    2.0387    0.6814 C.ar    1  LIG1        0.0054
     45 H          12.1543    2.8543    1.1721 H       1  LIG1        0.0635
     46 H          15.8487    0.9779    0.0337 H       1  LIG1        0.0629
     47 N          11.3998   -1.7723   -2.0059 N.1     1  LIG1       -0.1909
     48 C          11.9516   -0.9437   -1.4170 C.1     1  LIG1        0.0998
     49 S          15.0531    3.2482    1.5403 S.3     1  LIG1       -0.1426
     50 H          14.0301    4.0221    1.9350 H       1  LIG1        0.1071
@<TRIPOS>BOND
     1    13    12    1
     2    37    36    1
     3    47    48    3
     4    22    23    3
     5    12     7    1
     6    36    32    1
     7    48    38    1
     8    23    14    1
     9    42    39    1
    10    33    31    1
    11     8     6    1
    12    18    15    1
    13    38    39   ar
    14    38    40   ar
    15     7     6   ar
    16     7     4   ar
    17    32    31   ar
    18    32    29   ar
    19    14    15   ar
    20    14    16   ar
    21    39    41   ar
    22    31    28   ar
    23     6     3   ar
    24    15    17   ar
    25    40    29    1
    26    40    43   ar
    27    29    27   ar
    28    16     4    1
    29    16    19   ar
    30     4     2   ar
    31    41    46    1
    32    41    44   ar
    33    17    28    1
    34    17    20   ar
    35    28    26   ar
    36     3     9    1
    37     3     1   ar
    38    27    26   ar
    39    27    30    1
    40    19    20   ar
    41    19    21    1
    42    43    44   ar
    43    43    45    1
    44     2     1   ar
    45     2     5    1
    46    44    49    1
    47    20    24    1
    48    26    35    1
    49     1    11    1
    50    35    34    3
    51    11    10    3
    52    49    50    1
    53    24    25    1
