@<TRIPOS>MOLECULE
mol_data/opt/cam/geoms/mol2/4dg4dg-4dg-.out
 38 40 0 0 0
SMALL
GASTEIGER

@<TRIPOS>ATOM
      1 C          -0.1157    0.0607   -0.4413 C.ar    1  LIG1        0.0524
      2 C           1.2776    0.0818   -0.4142 C.ar    1  LIG1       -0.0355
      3 C          -0.8296    1.1796   -0.0088 C.ar    1  LIG1       -0.0433
      4 C           1.9681    1.2047    0.0318 C.ar    1  LIG1       -0.0022
      5 H           1.8327   -0.7873   -0.7485 H       1  LIG1        0.0637
      6 C          -0.1525    2.2979    0.4410 C.ar    1  LIG1       -0.0468
      7 C           1.2436    2.3256    0.4687 C.ar    1  LIG1        0.0126
      8 H          -0.7182    3.1595    0.7781 H       1  LIG1        0.0629
      9 H          -1.9132    1.1681   -0.0259 H       1  LIG1        0.0631
     10 N          -1.3829   -2.0254   -1.3099 N.1     1  LIG1       -0.1909
     11 C          -0.8126   -1.0987   -0.9184 C.1     1  LIG1        0.0992
     12 S           2.1278    3.7466    1.0652 S.3     1  LIG1       -0.1420
     13 H           1.0422    4.4215    1.4746 H       1  LIG1        0.1071
     14 C           4.1820    0.3300    0.8724 C.ar    1  LIG1        0.0601
     15 C           5.5751    0.3232    0.8260 C.ar    1  LIG1       -0.0350
     16 C           3.4579    1.1887    0.0305 C.ar    1  LIG1        0.0016
     17 C           6.2773    1.1594   -0.0339 C.ar    1  LIG1       -0.0022
     18 H           6.1213   -0.3450    1.4818 H       1  LIG1        0.0637
     19 C           4.1623    2.0178   -0.8340 C.ar    1  LIG1       -0.0390
     20 C           5.5565    2.0184   -0.8787 C.ar    1  LIG1        0.0131
     21 H           3.6017    2.6709   -1.4937 H       1  LIG1        0.0635
     22 N           2.9909   -1.2310    2.5633 N.1     1  LIG1       -0.1908
     23 C           3.5120   -0.5331    1.8024 C.1     1  LIG1        0.0998
     24 S           6.4421    3.0648   -2.0059 S.3     1  LIG1       -0.1420
     25 H           5.3541    3.5647   -2.6125 H       1  LIG1        0.1071
     26 C           8.4676   -0.0140   -0.4671 C.ar    1  LIG1        0.0596
     27 C           9.8647   -0.0268   -0.4324 C.ar    1  LIG1       -0.0427
     28 C           7.7668    1.1232   -0.0341 C.ar    1  LIG1        0.0016
     29 C          10.5668    1.0737    0.0217 C.ar    1  LIG1       -0.0473
     30 H          10.3950   -0.9090   -0.7720 H       1  LIG1        0.0631
     31 C           8.4869    2.2223    0.4245 C.ar    1  LIG1       -0.0396
     32 C           9.8805    2.2103    0.4542 C.ar    1  LIG1        0.0054
     33 H           7.9412    3.0943    0.7684 H       1  LIG1        0.0635
     34 H          11.6511    1.0521    0.0390 H       1  LIG1        0.0629
     35 N           7.2260   -2.1060   -1.3594 N.1     1  LIG1       -0.1909
     36 C           7.7698   -1.1663   -0.9604 C.1     1  LIG1        0.0998
     37 S          10.8368    3.5820    1.0359 S.3     1  LIG1       -0.1426
     38 H           9.8081    4.4171    1.2498 H       1  LIG1        0.1071
@<TRIPOS>BOND
     1    25    24    1
     2    24    20    1
     3    21    19    1
     4    35    36    3
     5    10    11    3
     6    36    26    1
     7    11     1    1
     8    20    19   ar
     9    20    17   ar
    10    19    16   ar
    11    30    27    1
    12     5     2    1
    13    26    27   ar
    14    26    28   ar
    15     1     2   ar
    16     1     3   ar
    17    27    29   ar
    18     2     4   ar
    19    28    17    1
    20    28    31   ar
    21    17    15   ar
    22     9     3    1
    23     3     6   ar
    24    29    34    1
    25    29    32   ar
    26    16     4    1
    27    16    14   ar
    28     4     7   ar
    29    31    32   ar
    30    31    33    1
    31     6     7   ar
    32     6     8    1
    33    32    37    1
    34     7    12    1
    35    15    14   ar
    36    15    18    1
    37    14    23    1
    38    37    38    1
    39    12    13    1
    40    23    22    3
