@<TRIPOS>MOLECULE
mol_data/opt/cam/geoms/mol2/4dg4dg-.out
 26 27 0 0 0
SMALL
GASTEIGER

@<TRIPOS>ATOM
      1 C          -0.0070    0.1847   -0.6872 C.ar    1  LIG1        0.0524
      2 C           1.3860    0.1935   -0.6429 C.ar    1  LIG1       -0.0355
      3 C          -0.7218    1.1998   -0.0491 C.ar    1  LIG1       -0.0433
      4 C           2.0767    1.2017    0.0220 C.ar    1  LIG1       -0.0022
      5 H           1.9415   -0.5955   -1.1369 H       1  LIG1        0.0637
      6 C          -0.0451    2.2034    0.6191 C.ar    1  LIG1       -0.0468
      7 C           1.3509    2.2180    0.6650 C.ar    1  LIG1        0.0126
      8 H          -0.6113    2.9843    1.1147 H       1  LIG1        0.0629
      9 H          -1.8052    1.1980   -0.0785 H       1  LIG1        0.0631
     10 N          -1.2632   -1.6855   -1.9665 N.1     1  LIG1       -0.1909
     11 C          -0.6999   -0.8548   -1.3918 C.1     1  LIG1        0.0992
     12 S           2.2335    3.4880    1.5386 S.3     1  LIG1       -0.1420
     13 H           1.1444    4.0823    2.0511 H       1  LIG1        0.1071
     14 C           4.2788    0.1692    0.6959 C.ar    1  LIG1        0.0596
     15 C           5.6761    0.1621    0.6621 C.ar    1  LIG1       -0.0427
     16 C           3.5669    1.1794    0.0292 C.ar    1  LIG1        0.0016
     17 C           6.3683    1.1452   -0.0195 C.ar    1  LIG1       -0.0473
     18 H           6.2144   -0.6213    1.1829 H       1  LIG1        0.0631
     19 C           4.2776    2.1602   -0.6565 C.ar    1  LIG1       -0.0396
     20 C           5.6712    2.1554   -0.6851 C.ar    1  LIG1        0.0054
     21 H           3.7239    2.9323   -1.1797 H       1  LIG1        0.0635
     22 H           7.4527    1.1303   -0.0336 H       1  LIG1        0.0629
     23 N           3.0672   -1.6972    2.0237 N.1     1  LIG1       -0.1909
     24 C           3.5946   -0.8575    1.4281 C.1     1  LIG1        0.0998
     25 S           6.6145    3.3792   -1.5498 S.3     1  LIG1       -0.1426
     26 H           5.5777    4.1372   -1.9397 H       1  LIG1        0.1071
@<TRIPOS>BOND
     1    10    11    3
     2    26    25    1
     3    25    20    1
     4    11     1    1
     5    21    19    1
     6     5     2    1
     7     1     2   ar
     8     1     3   ar
     9    20    19   ar
    10    20    17   ar
    11    19    16   ar
    12     2     4   ar
    13     9     3    1
    14     3     6   ar
    15    22    17    1
    16    17    15   ar
    17     4    16    1
    18     4     7   ar
    19    16    14   ar
    20     6     7   ar
    21     6     8    1
    22    15    14   ar
    23    15    18    1
    24     7    12    1
    25    14    24    1
    26    24    23    3
    27    12    13    1
