@<TRIPOS>MOLECULE
mol_data/opt/cam/geoms/mol2/4dg4dg4dg-.out
 38 40 0 0 0
SMALL
GASTEIGER

@<TRIPOS>ATOM
      1 C          -0.1163    0.0727    0.4689 C.ar    1  LIG1        0.0524
      2 C           1.2770    0.0923    0.4407 C.ar    1  LIG1       -0.0355
      3 C          -0.8296    1.1837    0.0157 C.ar    1  LIG1       -0.0433
      4 C           1.9681    1.2061   -0.0267 C.ar    1  LIG1       -0.0022
      5 H           1.8317   -0.7708    0.7911 H       1  LIG1        0.0637
      6 C          -0.1519    2.2929   -0.4554 C.ar    1  LIG1       -0.0468
      7 C           1.2441    2.3191   -0.4843 C.ar    1  LIG1        0.0126
      8 H          -0.7172    3.1484   -0.8083 H       1  LIG1        0.0629
      9 H          -1.9132    1.1734    0.0337 H       1  LIG1        0.0631
     10 N          -1.3845   -1.9958    1.3773 N.1     1  LIG1       -0.1909
     11 C          -0.8137   -1.0770    0.9682 C.1     1  LIG1        0.0992
     12 S           2.1290    3.7280   -1.1080 S.3     1  LIG1       -0.1420
     13 H           1.0436    4.3957   -1.5295 H       1  LIG1        0.1071
     14 C           4.1810    0.3139   -0.8515 C.ar    1  LIG1        0.0601
     15 C           5.5741    0.3070   -0.8056 C.ar    1  LIG1       -0.0350
     16 C           3.4579    1.1890   -0.0258 C.ar    1  LIG1        0.0016
     17 C           6.2773    1.1590    0.0378 C.ar    1  LIG1       -0.0022
     18 H           6.1195   -0.3740   -1.4488 H       1  LIG1        0.0637
     19 C           4.1633    2.0340    0.8222 C.ar    1  LIG1       -0.0390
     20 C           5.5576    2.0345    0.8663 C.ar    1  LIG1        0.0131
     21 H           3.6035    2.7000    1.4696 H       1  LIG1        0.0635
     22 N           2.9880   -1.2782   -2.5117 N.1     1  LIG1       -0.1908
     23 C           3.5099   -0.5663   -1.7646 C.1     1  LIG1        0.0998
     24 S           6.4445    3.1016    1.9729 S.3     1  LIG1       -0.1420
     25 H           5.3571    3.6138    2.5703 H       1  LIG1        0.1071
     26 C           8.4670   -0.0075    0.4920 C.ar    1  LIG1        0.0596
     27 C           9.8641   -0.0220    0.4569 C.ar    1  LIG1       -0.0427
     28 C           7.7668    1.1218    0.0378 C.ar    1  LIG1        0.0016
     29 C          10.5668    1.0691   -0.0184 C.ar    1  LIG1       -0.0473
     30 H          10.3940   -0.8980    0.8128 H       1  LIG1        0.0631
     31 C           8.4874    2.2114   -0.4418 C.ar    1  LIG1       -0.0396
     32 C           9.8811    2.1978   -0.4721 C.ar    1  LIG1        0.0054
     33 H           7.9422    3.0771   -0.8020 H       1  LIG1        0.0635
     34 H          11.6510    1.0464   -0.0359 H       1  LIG1        0.0629
     35 N           7.2244   -2.0814    1.4246 N.1     1  LIG1       -0.1909
     36 C           7.7687   -1.1498    1.0074 C.1     1  LIG1        0.0998
     37 S          10.8379    3.5576   -1.0802 S.3     1  LIG1       -0.1426
     38 H           9.8097    4.3892   -1.3094 H       1  LIG1        0.1071
@<TRIPOS>BOND
     1    22    23    3
     2    23    14    1
     3    13    12    1
     4    18    15    1
     5    38    37    1
     6    12     7    1
     7    37    32    1
     8    14    15   ar
     9    14    16   ar
    10     8     6    1
    11    15    17   ar
    12    33    31    1
    13     7     6   ar
    14     7     4   ar
    15    32    31   ar
    16    32    29   ar
    17     6     3   ar
    18    31    28   ar
    19    34    29    1
    20     4    16    1
    21     4     2   ar
    22    16    19   ar
    23    29    27   ar
    24     3     9    1
    25     3     1   ar
    26    17    28    1
    27    17    20   ar
    28    28    26   ar
    29     2     1   ar
    30     2     5    1
    31    27    26   ar
    32    27    30    1
    33     1    11    1
    34    26    36    1
    35    19    20   ar
    36    19    21    1
    37    20    24    1
    38    11    10    3
    39    36    35    3
    40    24    25    1
