@<TRIPOS>MOLECULE
mol_data/opt/cam/geoms/mol2/4dg4dg-4dg-4dg-.out
 50 53 0 0 0
SMALL
GASTEIGER

@<TRIPOS>ATOM
      1 C          -0.2078    0.1373   -0.6868 C.ar    1  LIG1        0.0524
      2 C           1.1848    0.1660   -0.6437 C.ar    1  LIG1       -0.0355
      3 C          -0.9370    1.1450   -0.0529 C.ar    1  LIG1       -0.0433
      4 C           1.8599    1.1884    0.0164 C.ar    1  LIG1       -0.0022
      5 H           1.7519   -0.6170   -1.1342 H       1  LIG1        0.0637
      6 C          -0.2753    2.1616    0.6104 C.ar    1  LIG1       -0.0468
      7 C           1.1201    2.1969    0.6553 C.ar    1  LIG1        0.0126
      8 H          -0.8529    2.9362    1.1028 H       1  LIG1        0.0629
      9 H          -2.0202    1.1268   -0.0817 H       1  LIG1        0.0631
     10 N          -1.4465   -1.7520   -1.9550 N.1     1  LIG1       -0.1909
     11 C          -0.8887   -0.9140   -1.3857 C.1     1  LIG1        0.0992
     12 S           1.9839    3.4840    1.5237 S.3     1  LIG1       -0.1420
     13 H           0.8875    4.0591    2.0421 H       1  LIG1        0.1071
     14 C           4.0796    0.1870    0.6838 C.ar    1  LIG1        0.0601
     15 C           5.4727    0.2025    0.6457 C.ar    1  LIG1       -0.0350
     16 C           3.3497    1.1878    0.0230 C.ar    1  LIG1        0.0016
     17 C           6.1687    1.1992   -0.0287 C.ar    1  LIG1       -0.0022
     18 H           6.0236   -0.5763    1.1606 H       1  LIG1        0.0637
     19 C           4.0484    2.1782   -0.6564 C.ar    1  LIG1       -0.0390
     20 C           5.4425    2.2011   -0.6917 C.ar    1  LIG1        0.0131
     21 H           3.4832    2.9428   -1.1778 H       1  LIG1        0.0635
     22 N           2.8913   -1.6855    2.0242 N.1     1  LIG1       -0.1908
     23 C           3.4130   -0.8482    1.4207 C.1     1  LIG1        0.0998
     24 S           6.3201    3.4579   -1.5874 S.3     1  LIG1       -0.1420
     25 H           5.2288    4.0584   -2.0871 H       1  LIG1        0.1071
     26 C           8.3734    0.1444   -0.6551 C.ar    1  LIG1        0.0601
     27 C           9.7664    0.1384   -0.6105 C.ar    1  LIG1       -0.0350
     28 C           7.6579    1.1764   -0.0277 C.ar    1  LIG1        0.0016
     29 C          10.4765    1.1423    0.0373 C.ar    1  LIG1       -0.0022
     30 H          10.3063   -0.6648   -1.0985 H       1  LIG1        0.0637
     31 C           8.3697    2.1753    0.6250 C.ar    1  LIG1       -0.0390
     32 C           9.7641    2.1758    0.6665 C.ar    1  LIG1        0.0131
     33 H           7.8154    2.9646    1.1206 H       1  LIG1        0.0635
     34 N           7.1591   -1.7460   -1.9459 N.1     1  LIG1       -0.1908
     35 C           7.6929   -0.9007   -1.3646 C.1     1  LIG1        0.0998
     36 S          10.6604    3.4430    1.5265 S.3     1  LIG1       -0.1420
     37 H           9.5779    4.0771    2.0034 H       1  LIG1        0.1071
     38 C          12.6560    0.0780    0.7266 C.ar    1  LIG1        0.0596
     39 C          14.0528    0.0437    0.6963 C.ar    1  LIG1       -0.0427
     40 C          11.9657    1.0940    0.0461 C.ar    1  LIG1        0.0016
     41 C          14.7647    1.0051    0.0041 C.ar    1  LIG1       -0.0473
     42 H          14.5752   -0.7435    1.2275 H       1  LIG1        0.0631
     43 C          12.6953    2.0532   -0.6495 C.ar    1  LIG1       -0.0396
     44 C          14.0888    2.0207   -0.6755 C.ar    1  LIG1        0.0054
     45 H          12.1577    2.8300   -1.1824 H       1  LIG1        0.0635
     46 H          15.8486    0.9690   -0.0079 H       1  LIG1        0.0629
     47 N          11.3940   -1.7433    2.0699 N.1     1  LIG1       -0.1909
     48 C          11.9474   -0.9249    1.4683 C.1     1  LIG1        0.0998
     49 S          15.0574    3.2150   -1.5526 S.3     1  LIG1       -0.1426
     50 H          14.0357    3.9834   -1.9615 H       1  LIG1        0.1071
@<TRIPOS>BOND
     1    25    24    1
     2    50    49    1
     3    10    11    3
     4    34    35    3
     5    24    20    1
     6    49    44    1
     7    11     1    1
     8    35    26    1
     9    45    43    1
    10    21    19    1
    11     5     2    1
    12    30    27    1
    13    20    19   ar
    14    20    17   ar
    15     1     2   ar
    16     1     3   ar
    17    44    43   ar
    18    44    41   ar
    19    19    16   ar
    20    26    27   ar
    21    26    28   ar
    22    43    40   ar
    23     2     4   ar
    24    27    29   ar
    25     9     3    1
    26     3     6   ar
    27    17    28    1
    28    17    15   ar
    29    28    31   ar
    30    46    41    1
    31    41    39   ar
    32     4    16    1
    33     4     7   ar
    34    16    14   ar
    35    29    40    1
    36    29    32   ar
    37    40    38   ar
    38     6     7   ar
    39     6     8    1
    40    31    32   ar
    41    31    33    1
    42    15    14   ar
    43    15    18    1
    44     7    12    1
    45    32    36    1
    46    14    23    1
    47    39    38   ar
    48    39    42    1
    49    38    48    1
    50    23    22    3
    51    48    47    3
    52    12    13    1
    53    36    37    1
