@<TRIPOS>MOLECULE
mol_data/opt/cam/geoms/mol2/4dg4dg-4dg4dg-.out
 50 53 0 0 0
SMALL
GASTEIGER

@<TRIPOS>ATOM
      1 C          -0.2060    0.1311   -0.6961 C.ar    1  LIG1        0.0524
      2 C           1.1866    0.1612   -0.6516 C.ar    1  LIG1       -0.0355
      3 C          -0.9369    1.1359   -0.0598 C.ar    1  LIG1       -0.0433
      4 C           1.8598    1.1825    0.0121 C.ar    1  LIG1       -0.0022
      5 H           1.7550   -0.6197   -1.1439 H       1  LIG1        0.0637
      6 C          -0.2770    2.1514    0.6071 C.ar    1  LIG1       -0.0468
      7 C           1.1183    2.1882    0.6533 C.ar    1  LIG1        0.0126
      8 H          -0.8560    2.9239    1.1012 H       1  LIG1        0.0629
      9 H          -2.0201    1.1166   -0.0896 H       1  LIG1        0.0631
     10 N          -1.4413   -1.7560   -1.9709 N.1     1  LIG1       -0.1909
     11 C          -0.8850   -0.9190   -1.3987 C.1     1  LIG1        0.0992
     12 S           1.9797    3.4738    1.5264 S.3     1  LIG1       -0.1420
     13 H           0.8822    4.0460    2.0454 H       1  LIG1        0.1071
     14 C           4.0801    0.1818    0.6787 C.ar    1  LIG1        0.0601
     15 C           5.4733    0.1990    0.6418 C.ar    1  LIG1       -0.0350
     16 C           3.3497    1.1836    0.0201 C.ar    1  LIG1        0.0016
     17 C           6.1687    1.1985   -0.0290 C.ar    1  LIG1       -0.0022
     18 H           6.0247   -0.5807    1.1549 H       1  LIG1        0.0637
     19 C           4.0478    2.1768   -0.6558 C.ar    1  LIG1       -0.0390
     20 C           5.4419    2.2015   -0.6897 C.ar    1  LIG1        0.0131
     21 H           3.4822    2.9424   -1.1754 H       1  LIG1        0.0635
     22 N           2.8929   -1.6961    2.0124 N.1     1  LIG1       -0.1908
     23 C           3.4141   -0.8564    1.4119 C.1     1  LIG1        0.0998
     24 S           6.3188    3.4620   -1.5809 S.3     1  LIG1       -0.1420
     25 H           5.2272    4.0626   -2.0798 H       1  LIG1        0.1071
     26 C           8.3752    0.1482   -0.6566 C.ar    1  LIG1        0.0601
     27 C           9.7682    0.1437   -0.6107 C.ar    1  LIG1       -0.0350
     28 C           7.6579    1.1775   -0.0267 C.ar    1  LIG1        0.0016
     29 C          10.4764    1.1465    0.0408 C.ar    1  LIG1       -0.0022
     30 H          10.3095   -0.6574   -1.1006 H       1  LIG1        0.0637
     31 C           8.3679    2.1753    0.6296 C.ar    1  LIG1       -0.0390
     32 C           9.7623    2.1773    0.6723 C.ar    1  LIG1        0.0131
     33 H           7.8122    2.9625    1.1270 H       1  LIG1        0.0635
     34 N           7.1642   -1.7398   -1.9541 N.1     1  LIG1       -0.1908
     35 C           7.6966   -0.8956   -1.3697 C.1     1  LIG1        0.0998
     36 S          10.6563    3.4429    1.5369 S.3     1  LIG1       -0.1420
     37 H           9.5726    4.0744    2.0148 H       1  LIG1        0.1071
     38 C          12.6567    0.0827    0.7289 C.ar    1  LIG1        0.0596
     39 C          14.0535    0.0502    0.6998 C.ar    1  LIG1       -0.0427
     40 C          11.9657    1.0999    0.0508 C.ar    1  LIG1        0.0016
     41 C          14.7648    1.0145    0.0110 C.ar    1  LIG1       -0.0473
     42 H          14.5763   -0.7379    1.2292 H       1  LIG1        0.0631
     43 C          12.6949    2.0620   -0.6414 C.ar    1  LIG1       -0.0396
     44 C          14.0884    2.0312   -0.6662 C.ar    1  LIG1        0.0054
     45 H          12.1567    2.8397   -1.1724 H       1  LIG1        0.0635
     46 H          15.8488    0.9797   -0.0001 H       1  LIG1        0.0629
     47 N          11.3955   -1.7439    2.0658 N.1     1  LIG1       -0.1909
     48 C          11.9486   -0.9232    1.4670 C.1     1  LIG1        0.0998
     49 S          15.0564    3.2293   -1.5389 S.3     1  LIG1       -0.1426
     50 H          14.0341    3.9975   -1.9466 H       1  LIG1        0.1071
@<TRIPOS>BOND
     1    25    24    1
     2    10    11    3
     3    34    35    3
     4    50    49    1
     5    24    20    1
     6    49    44    1
     7    11     1    1
     8    35    26    1
     9    21    19    1
    10    45    43    1
    11     5     2    1
    12    30    27    1
    13     1     2   ar
    14     1     3   ar
    15    20    19   ar
    16    20    17   ar
    17    44    43   ar
    18    44    41   ar
    19    26    27   ar
    20    26    28   ar
    21    19    16   ar
    22     2     4   ar
    23    43    40   ar
    24    27    29   ar
    25     9     3    1
    26     3     6   ar
    27    17    28    1
    28    17    15   ar
    29    28    31   ar
    30    46    41    1
    31    41    39   ar
    32     4    16    1
    33     4     7   ar
    34    16    14   ar
    35    29    40    1
    36    29    32   ar
    37    40    38   ar
    38     6     7   ar
    39     6     8    1
    40    31    32   ar
    41    31    33    1
    42    15    14   ar
    43    15    18    1
    44     7    12    1
    45    32    36    1
    46    14    23    1
    47    39    38   ar
    48    39    42    1
    49    38    48    1
    50    23    22    3
    51    48    47    3
    52    12    13    1
    53    36    37    1
