@<TRIPOS>MOLECULE
mol_data/opt/cam/geoms/mol2/4dg4dg-4dg.out
 38 40 0 0 0
SMALL
GASTEIGER

@<TRIPOS>ATOM
      1 C          -0.1175    0.0680   -0.4400 C.ar    1  LIG1        0.0524
      2 C           1.2759    0.0882   -0.4167 C.ar    1  LIG1       -0.0355
      3 C          -0.8296    1.1820    0.0077 C.ar    1  LIG1       -0.0433
      4 C           1.9682    1.2055    0.0403 C.ar    1  LIG1       -0.0022
      5 H           1.8296   -0.7772   -0.7628 H       1  LIG1        0.0637
      6 C          -0.1506    2.2948    0.4686 C.ar    1  LIG1       -0.0468
      7 C           1.2455    2.3215    0.4925 C.ar    1  LIG1        0.0126
      8 H          -0.7150    3.1526    0.8173 H       1  LIG1        0.0629
      9 H          -1.9133    1.1712   -0.0064 H       1  LIG1        0.0631
     10 N          -1.3882   -2.0073   -1.3292 N.1     1  LIG1       -0.1909
     11 C          -0.8163   -1.0854   -0.9286 C.1     1  LIG1        0.0992
     12 S           2.1321    3.7351    1.1030 S.3     1  LIG1       -0.1420
     13 H           1.0479    4.4055    1.5235 H       1  LIG1        0.1071
     14 C           4.1843    0.3199    0.8638 C.ar    1  LIG1        0.0601
     15 C           5.5772    0.3131    0.8132 C.ar    1  LIG1       -0.0350
     16 C           3.4580    1.1889    0.0344 C.ar    1  LIG1        0.0016
     17 C           6.2772    1.1591   -0.0387 C.ar    1  LIG1       -0.0022
     18 H           6.1250   -0.3632    1.4593 H       1  LIG1        0.0637
     19 C           4.1602    2.0280   -0.8221 C.ar    1  LIG1       -0.0390
     20 C           5.5543    2.0286   -0.8710 C.ar    1  LIG1        0.0131
     21 H           3.5979    2.6891   -1.4723 H       1  LIG1        0.0635
     22 N           2.9975   -1.2607    2.5395 N.1     1  LIG1       -0.1908
     23 C           3.5166   -0.5540    1.7854 C.1     1  LIG1        0.0998
     24 S           6.4370    3.0880   -1.9883 S.3     1  LIG1       -0.1420
     25 H           5.3474    3.5955   -2.5856 H       1  LIG1        0.1071
     26 C           8.4657   -0.0099   -0.4922 C.ar    1  LIG1        0.0596
     27 C           9.8629   -0.0238   -0.4617 C.ar    1  LIG1       -0.0427
     28 C           7.7667    1.1224   -0.0437 C.ar    1  LIG1        0.0016
     29 C          10.5668    1.0710    0.0032 C.ar    1  LIG1       -0.0473
     30 H          10.3918   -0.9022   -0.8132 H       1  LIG1        0.0631
     31 C           8.4886    2.2157    0.4256 C.ar    1  LIG1       -0.0396
     32 C           9.8823    2.2027    0.4510 C.ar    1  LIG1        0.0054
     33 H           7.9443    3.0838    0.7813 H       1  LIG1        0.0635
     34 H          11.6511    1.0488    0.0170 H       1  LIG1        0.0629
     35 N           7.2206   -2.0908   -1.4053 N.1     1  LIG1       -0.1909
     36 C           7.7659   -1.1561   -0.9969 C.1     1  LIG1        0.0998
     37 S          10.8409    3.5671    1.0460 S.3     1  LIG1       -0.1426
     38 H           9.8132    4.4002    1.2723 H       1  LIG1        0.1071
@<TRIPOS>BOND
     1    25    24    1
     2    24    20    1
     3    21    19    1
     4    35    36    3
     5    10    11    3
     6    36    26    1
     7    11     1    1
     8    20    19   ar
     9    20    17   ar
    10    19    16   ar
    11    30    27    1
    12     5     2    1
    13    26    27   ar
    14    26    28   ar
    15    27    29   ar
    16     1     2   ar
    17     1     3   ar
    18     2     4   ar
    19    28    17    1
    20    28    31   ar
    21    17    15   ar
    22     9     3    1
    23    29    34    1
    24    29    32   ar
    25     3     6   ar
    26    16     4    1
    27    16    14   ar
    28     4     7   ar
    29    31    32   ar
    30    31    33    1
    31    32    37    1
    32     6     7   ar
    33     6     8    1
    34     7    12    1
    35    15    14   ar
    36    15    18    1
    37    14    23    1
    38    37    38    1
    39    12    13    1
    40    23    22    3
