@<TRIPOS>MOLECULE
mol_data/opt/cam/geoms/mol2/4dg4dg4dg4dg-.out
 50 53 0 0 0
SMALL
GASTEIGER

@<TRIPOS>ATOM
      1 C          -0.1816    0.7037    1.2327 C.ar    1  LIG1        0.0524
      2 C           1.2094    0.6975    1.1453 C.ar    1  LIG1       -0.0355
      3 C          -0.9353    1.1893    0.1627 C.ar    1  LIG1       -0.0433
      4 C           1.8588    1.1750    0.0115 C.ar    1  LIG1       -0.0022
      5 H           1.7949    0.3176    1.9748 H       1  LIG1        0.0637
      6 C          -0.2992    1.6602   -0.9709 C.ar    1  LIG1       -0.0468
      7 C           1.0947    1.6595   -1.0632 C.ar    1  LIG1        0.0126
      8 H          -0.8958    2.0304   -1.7973 H       1  LIG1        0.0629
      9 H          -2.0174    1.1949    0.2232 H       1  LIG1        0.0631
     10 N          -1.3600   -0.1499    3.3761 N.1     1  LIG1       -0.1909
     11 C          -0.8318    0.2249    2.4179 C.1     1  LIG1        0.0992
     12 S           1.9267    2.2407   -2.5198 S.3     1  LIG1       -0.1420
     13 H           0.8131    2.4405   -3.2420 H       1  LIG1        0.1071
     14 C           4.0752   -0.0352   -0.0526 C.ar    1  LIG1        0.0601
     15 C           5.4687   -0.0048   -0.0645 C.ar    1  LIG1       -0.0350
     16 C           3.3484    1.1657   -0.0299 C.ar    1  LIG1        0.0016
     17 C           6.1678    1.1968   -0.0517 C.ar    1  LIG1       -0.0022
     18 H           6.0172   -0.9397   -0.0844 H       1  LIG1        0.0637
     19 C           4.0504    2.3647   -0.0215 C.ar    1  LIG1       -0.0390
     20 C           5.4447    2.3998   -0.0368 C.ar    1  LIG1        0.0131
     21 H           3.4881    3.2917    0.0008 H       1  LIG1        0.0635
     22 N           2.8798   -2.3342   -0.0656 N.1     1  LIG1       -0.1908
     23 C           3.4045   -1.3037   -0.0657 C.1     1  LIG1        0.0998
     24 S           6.3256    3.9414   -0.0484 S.3     1  LIG1       -0.1420
     25 H           5.2418    4.7175   -0.2051 H       1  LIG1        0.1071
     26 C           8.3872    0.6860   -1.1417 C.ar    1  LIG1        0.0601
     27 C           9.7799    0.6606   -1.0913 C.ar    1  LIG1       -0.0350
     28 C           7.6571    1.1760   -0.0475 C.ar    1  LIG1        0.0016
     29 C          10.4756    1.1197    0.0209 C.ar    1  LIG1       -0.0022
     30 H          10.3311    0.2803   -1.9436 H       1  LIG1        0.0637
     31 C           8.3545    1.6269    1.0665 C.ar    1  LIG1       -0.0390
     32 C           9.7485    1.6078    1.1183 C.ar    1  LIG1        0.0131
     33 H           7.7891    1.9919    1.9170 H       1  LIG1        0.0635
     34 N           7.2098   -0.1409   -3.2966 N.1     1  LIG1       -0.1908
     35 C           7.7246    0.2274   -2.3287 C.1     1  LIG1        0.0998
     36 S          10.6250    2.1614    2.5585 S.3     1  LIG1       -0.1420
     37 H           9.5324    2.4007    3.3006 H       1  LIG1        0.1071
     38 C          12.6646   -0.1332   -0.0062 C.ar    1  LIG1        0.0596
     39 C          14.0618   -0.1335   -0.0356 C.ar    1  LIG1       -0.0427
     40 C          11.9651    1.0842    0.0165 C.ar    1  LIG1        0.0016
     41 C          14.7653    1.0562   -0.0389 C.ar    1  LIG1       -0.0473
     42 H          14.5913   -1.0792   -0.0501 H       1  LIG1        0.0631
     43 C          12.6865    2.2742    0.0092 C.ar    1  LIG1       -0.0396
     44 C          14.0803    2.2728   -0.0156 C.ar    1  LIG1        0.0054
     45 H          12.1420    3.2122    0.0158 H       1  LIG1        0.0635
     46 H          15.8497    1.0414   -0.0578 H       1  LIG1        0.0629
     47 N          11.4192   -2.4053    0.0261 N.1     1  LIG1       -0.1909
     48 C          11.9651   -1.3856    0.0133 C.1     1  LIG1        0.0998
     49 S          15.0378    3.7617   -0.0323 S.3     1  LIG1       -0.1426
     50 H          14.0081    4.6170    0.0650 H       1  LIG1        0.1071
@<TRIPOS>BOND
     1    34    35    3
     2    13    12    1
     3    12     7    1
     4    35    26    1
     5    30    27    1
     6     8     6    1
     7    26    27   ar
     8    26    28   ar
     9    27    29   ar
    10     7     6   ar
    11     7     4   ar
    12     6     3   ar
    13    25    24    1
    14    18    15    1
    15    23    22    3
    16    23    14    1
    17    15    14   ar
    18    15    17   ar
    19    46    41    1
    20    14    16   ar
    21    17    28    1
    22    17    20   ar
    23    42    39    1
    24    24    20    1
    25    28    31   ar
    26    41    39   ar
    27    41    44   ar
    28    20    19   ar
    29    39    38   ar
    30    49    44    1
    31    49    50    1
    32    16    19   ar
    33    16     4    1
    34    19    21    1
    35    44    43   ar
    36    38    48    1
    37    38    40   ar
    38    43    45    1
    39    43    40   ar
    40     4     2   ar
    41    48    47    3
    42    40    29    1
    43    29    32   ar
    44     3     9    1
    45     3     1   ar
    46    31    32   ar
    47    31    33    1
    48    32    36    1
    49     2     1   ar
    50     2     5    1
    51     1    11    1
    52    11    10    3
    53    36    37    1
