@<TRIPOS>MOLECULE
mol_data/opt/cam/geoms/mol2/4dg4dg4dg4dg.out
 50 53 0 0 0
SMALL
GASTEIGER

@<TRIPOS>ATOM
      1 C          -0.1549    1.2799    1.3898 C.ar    1  LIG1        0.0524
      2 C           1.2347    1.2593    1.2856 C.ar    1  LIG1       -0.0355
      3 C          -0.9325    1.1245    0.2409 C.ar    1  LIG1       -0.0433
      4 C           1.8595    1.0937    0.0538 C.ar    1  LIG1       -0.0022
      5 H           1.8388    1.3775    2.1780 H       1  LIG1        0.0637
      6 C          -0.3209    0.9531   -0.9871 C.ar    1  LIG1       -0.0468
      7 C           1.0715    0.9344   -1.0985 C.ar    1  LIG1        0.0126
      8 H          -0.9358    0.8283   -1.8716 H       1  LIG1        0.0629
      9 H          -2.0137    1.1374    0.3148 H       1  LIG1        0.0631
     10 N          -1.2858    1.6334    3.6936 N.1     1  LIG1       -0.1909
     11 C          -0.7791    1.4699    2.6669 C.1     1  LIG1        0.0992
     12 S           1.8724    0.6922   -2.6640 S.3     1  LIG1       -0.1420
     13 H           0.7460    0.4751   -3.3609 H       1  LIG1        0.1071
     14 C           4.1095    0.0767    0.5840 C.ar    1  LIG1        0.0601
     15 C           5.5013    0.1274    0.5288 C.ar    1  LIG1       -0.0350
     16 C           3.3483    1.0958   -0.0098 C.ar    1  LIG1        0.0016
     17 C           6.1659    1.1724   -0.1020 C.ar    1  LIG1       -0.0022
     18 H           6.0759   -0.6682    0.9890 H       1  LIG1        0.0637
     19 C           4.0156    2.1362   -0.6448 C.ar    1  LIG1       -0.0390
     20 C           5.4084    2.1895   -0.7052 C.ar    1  LIG1        0.0131
     21 H           3.4266    2.9247   -1.1001 H       1  LIG1        0.0635
     22 N           2.9932   -1.9167    1.8063 N.1     1  LIG1       -0.1908
     23 C           3.4797   -1.0258    1.2522 C.1     1  LIG1        0.0998
     24 S           6.2446    3.5125   -1.5408 S.3     1  LIG1       -0.1420
     25 H           5.1360    4.0783   -2.0431 H       1  LIG1        0.1071
     26 C           8.3962    0.2086   -0.7921 C.ar    1  LIG1        0.0601
     27 C           9.7892    0.2411   -0.7545 C.ar    1  LIG1       -0.0350
     28 C           7.6554    1.1885   -0.1126 C.ar    1  LIG1        0.0016
     29 C          10.4750    1.2259   -0.0533 C.ar    1  LIG1       -0.0022
     30 H          10.3484   -0.5204   -1.2859 H       1  LIG1        0.0637
     31 C           8.3434    2.1744    0.5843 C.ar    1  LIG1       -0.0390
     32 C           9.7375    2.2121    0.6209 C.ar    1  LIG1        0.0131
     33 H           7.7707    2.9275    1.1142 H       1  LIG1        0.0635
     34 N           7.2382   -1.6883   -2.1242 N.1     1  LIG1       -0.1908
     35 C           7.7443   -0.8335   -1.5320 C.1     1  LIG1        0.0998
     36 S          10.6007    3.4907    1.4983 S.3     1  LIG1       -0.1420
     37 H           9.5101    4.2178    1.7876 H       1  LIG1        0.1071
     38 C          12.7168    1.4120   -1.1972 C.ar    1  LIG1        0.0596
     39 C          14.1125    1.3598   -1.1451 C.ar    1  LIG1       -0.0427
     40 C          11.9647    1.2039   -0.0298 C.ar    1  LIG1        0.0016
     41 C          14.7632    1.1088    0.0481 C.ar    1  LIG1       -0.0473
     42 H          14.6828    1.5250   -2.0518 H       1  LIG1        0.0631
     43 C          12.6334    0.9474    1.1635 C.ar    1  LIG1       -0.0396
     44 C          14.0258    0.9009    1.2155 C.ar    1  LIG1        0.0054
     45 H          12.0488    0.7742    2.0605 H       1  LIG1        0.0635
     46 H          15.8470    1.0760    0.0749 H       1  LIG1        0.0629
     47 N          11.5832    1.9172   -3.4718 N.1     1  LIG1       -0.1909
     48 C          12.0762    1.6923   -2.4498 C.1     1  LIG1        0.0998
     49 S          14.9173    0.5717    2.7089 S.3     1  LIG1       -0.1426
     50 H          13.8541    0.5297    3.5269 H       1  LIG1        0.1071
@<TRIPOS>BOND
     1    47    48    3
     2    13    12    1
     3    12     7    1
     4    48    38    1
     5    34    35    3
     6    42    39    1
     7    25    24    1
     8     8     6    1
     9    24    20    1
    10    35    26    1
    11    30    27    1
    12    38    39   ar
    13    38    40   ar
    14    39    41   ar
    15    21    19    1
    16     7     6   ar
    17     7     4   ar
    18     6     3   ar
    19    26    27   ar
    20    26    28   ar
    21    27    29   ar
    22    20    19   ar
    23    20    17   ar
    24    19    16   ar
    25    28    17    1
    26    28    31   ar
    27    17    15   ar
    28    29    40    1
    29    29    32   ar
    30    40    43   ar
    31    16     4    1
    32    16    14   ar
    33    41    46    1
    34    41    44   ar
    35     4     2   ar
    36     3     9    1
    37     3     1   ar
    38    15    14   ar
    39    15    18    1
    40    14    23    1
    41    31    32   ar
    42    31    33    1
    43    32    36    1
    44    43    44   ar
    45    43    45    1
    46    44    49    1
    47    23    22    3
    48     2     1   ar
    49     2     5    1
    50     1    11    1
    51    36    37    1
    52    11    10    3
    53    49    50    1
