@<TRIPOS>MOLECULE
mol_data/opt/cam/geoms/mol2/4dg4dg4dg-4dg-.out
 50 53 0 0 0
SMALL
GASTEIGER

@<TRIPOS>ATOM
      1 C          -0.2071    0.1463    0.7174 C.ar    1  LIG1        0.0524
      2 C           1.1856    0.1752    0.6739 C.ar    1  LIG1       -0.0355
      3 C          -0.9370    1.1391    0.0615 C.ar    1  LIG1       -0.0433
      4 C           1.8598    1.1836   -0.0082 C.ar    1  LIG1       -0.0022
      5 H           1.7532   -0.5964    1.1814 H       1  LIG1        0.0637
      6 C          -0.2761    2.1417   -0.6238 C.ar    1  LIG1       -0.0468
      7 C           1.1193    2.1772   -0.6691 C.ar    1  LIG1        0.0126
      8 H          -0.8543    2.9048   -1.1330 H       1  LIG1        0.0629
      9 H          -2.0202    1.1206    0.0904 H       1  LIG1        0.0631
     10 N          -1.4443   -1.7160    2.0263 N.1     1  LIG1       -0.1909
     11 C          -0.8871   -0.8902    1.4390 C.1     1  LIG1        0.0992
     12 S           1.9821    3.4459   -1.5653 S.3     1  LIG1       -0.1420
     13 H           0.8853    4.0084   -2.0963 H       1  LIG1        0.1071
     14 C           4.0806    0.1699   -0.6533 C.ar    1  LIG1        0.0601
     15 C           5.4737    0.1874   -0.6152 C.ar    1  LIG1       -0.0350
     16 C           3.3497    1.1841   -0.0146 C.ar    1  LIG1        0.0016
     17 C           6.1687    1.1993    0.0373 C.ar    1  LIG1       -0.0022
     18 H           6.0254   -0.6019   -1.1129 H       1  LIG1        0.0637
     19 C           4.0474    2.1898    0.6432 C.ar    1  LIG1       -0.0390
     20 C           5.4414    2.2147    0.6781 C.ar    1  LIG1        0.0131
     21 H           3.4814    2.9652    1.1476 H       1  LIG1        0.0635
     22 N           2.8943   -1.7325   -1.9526 N.1     1  LIG1       -0.1908
     23 C           3.4151   -0.8818   -1.3675 C.1     1  LIG1        0.0998
     24 S           6.3177    3.4916    1.5463 S.3     1  LIG1       -0.1420
     25 H           5.2257    4.1019    2.0326 H       1  LIG1        0.1071
     26 C           8.3742    0.1604    0.6871 C.ar    1  LIG1        0.0601
     27 C           9.7672    0.1547    0.6428 C.ar    1  LIG1       -0.0350
     28 C           7.6579    1.1778    0.0371 C.ar    1  LIG1        0.0016
     29 C          10.4765    1.1448   -0.0267 C.ar    1  LIG1       -0.0022
     30 H          10.3077   -0.6372    1.1484 H       1  LIG1        0.0637
     31 C           8.3689    2.1629   -0.6371 C.ar    1  LIG1       -0.0390
     32 C           9.7633    2.1637   -0.6784 C.ar    1  LIG1        0.0131
     33 H           7.8139    2.9407   -1.1499 H       1  LIG1        0.0635
     34 N           7.1613   -1.7024    2.0186 N.1     1  LIG1       -0.1908
     35 C           7.6945   -0.8696    1.4190 C.1     1  LIG1        0.0998
     36 S          10.6587    3.4126   -1.5657 S.3     1  LIG1       -0.1420
     37 H           9.5756    4.0352   -2.0566 H       1  LIG1        0.1071
     38 C          12.6572    0.0677   -0.6921 C.ar    1  LIG1        0.0596
     39 C          14.0539    0.0353   -0.6608 C.ar    1  LIG1       -0.0427
     40 C          11.9657    1.0977   -0.0341 C.ar    1  LIG1        0.0016
     41 C          14.7648    1.0123    0.0103 C.ar    1  LIG1       -0.0473
     42 H          14.5771   -0.7629   -1.1746 H       1  LIG1        0.0631
     43 C          12.6944    2.0725    0.6405 C.ar    1  LIG1       -0.0396
     44 C          14.0879    2.0418    0.6674 C.ar    1  LIG1        0.0054
     45 H          12.1559    2.8603    1.1561 H       1  LIG1        0.0635
     46 H          15.8488    0.9774    0.0233 H       1  LIG1        0.0629
     47 N          11.3970   -1.7837   -1.9955 N.1     1  LIG1       -0.1909
     48 C          11.9496   -0.9519   -1.4118 C.1     1  LIG1        0.0998
     49 S          15.0552    3.2560    1.5184 S.3     1  LIG1       -0.1426
     50 H          14.0327    4.0322    1.9100 H       1  LIG1        0.1071
@<TRIPOS>BOND
     1    13    12    1
     2    37    36    1
     3    47    48    3
     4    22    23    3
     5    36    32    1
     6    12     7    1
     7    48    38    1
     8    23    14    1
     9    42    39    1
    10    33    31    1
    11     8     6    1
    12    18    15    1
    13    38    39   ar
    14    38    40   ar
    15    32    31   ar
    16    32    29   ar
    17     7     6   ar
    18     7     4   ar
    19    39    41   ar
    20    14    15   ar
    21    14    16   ar
    22    31    28   ar
    23     6     3   ar
    24    15    17   ar
    25    40    29    1
    26    40    43   ar
    27    29    27   ar
    28    16     4    1
    29    16    19   ar
    30     4     2   ar
    31    41    46    1
    32    41    44   ar
    33    28    17    1
    34    28    26   ar
    35    17    20   ar
    36     3     9    1
    37     3     1   ar
    38    43    44   ar
    39    43    45    1
    40    27    26   ar
    41    27    30    1
    42    19    20   ar
    43    19    21    1
    44    44    49    1
    45     2     1   ar
    46     2     5    1
    47    20    24    1
    48    26    35    1
    49     1    11    1
    50    35    34    3
    51    11    10    3
    52    49    50    1
    53    24    25    1
