@<TRIPOS>MOLECULE
mol_data/opt/cam/geoms/mol2/4dg4dg4dg.out
 38 40 0 0 0
SMALL
GASTEIGER

@<TRIPOS>ATOM
      1 C          -0.0795    0.7004    1.2007 C.ar    1  LIG1        0.0524
      2 C           1.3118    0.6934    1.1193 C.ar    1  LIG1       -0.0355
      3 C          -0.8283    1.1881    0.1282 C.ar    1  LIG1       -0.0433
      4 C           1.9668    1.1716   -0.0111 C.ar    1  LIG1       -0.0022
      5 H           1.8935    0.3121    1.9508 H       1  LIG1        0.0637
      6 C          -0.1868    1.6598   -1.0020 C.ar    1  LIG1       -0.0468
      7 C           1.2075    1.6580   -1.0885 C.ar    1  LIG1        0.0126
      8 H          -0.7796    2.0316   -1.8305 H       1  LIG1        0.0629
      9 H          -1.9106    1.1946    0.1841 H       1  LIG1        0.0631
     10 N          -1.2671   -0.1569    3.3376 N.1     1  LIG1       -0.1909
     11 C          -0.7350    0.2199    2.3823 C.1     1  LIG1        0.0992
     12 S           2.0460    2.2392   -2.5413 S.3     1  LIG1       -0.1420
     13 H           0.9351    2.4432   -3.2666 H       1  LIG1        0.1071
     14 C           4.1817   -0.0413   -0.0614 C.ar    1  LIG1        0.0601
     15 C           5.5753   -0.0121   -0.0654 C.ar    1  LIG1       -0.0350
     16 C           3.4565    1.1606   -0.0456 C.ar    1  LIG1        0.0016
     17 C           6.2771    1.1875   -0.0515 C.ar    1  LIG1       -0.0022
     18 H           6.1220   -0.9480   -0.0802 H       1  LIG1        0.0637
     19 C           4.1607    2.3584   -0.0364 C.ar    1  LIG1       -0.0390
     20 C           5.5552    2.3917   -0.0439 C.ar    1  LIG1        0.0131
     21 H           3.5997    3.2863   -0.0198 H       1  LIG1        0.0635
     22 N           2.9909   -2.3427   -0.0752 N.1     1  LIG1       -0.1908
     23 C           3.5117   -1.3101   -0.0751 C.1     1  LIG1        0.0998
     24 S           6.4387    3.9312   -0.0544 S.3     1  LIG1       -0.1420
     25 H           5.3555    4.7083   -0.2109 H       1  LIG1        0.1071
     26 C           8.4997    0.6682   -1.1284 C.ar    1  LIG1        0.0596
     27 C           9.8959    0.6362   -1.0726 C.ar    1  LIG1       -0.0427
     28 C           7.7669    1.1630   -0.0375 C.ar    1  LIG1        0.0016
     29 C          10.5661    1.0913    0.0471 C.ar    1  LIG1       -0.0473
     30 H          10.4510    0.2546   -1.9218 H       1  LIG1        0.0631
     31 C           8.4552    1.6143    1.0848 C.ar    1  LIG1       -0.0396
     32 C           9.8480    1.5863    1.1375 C.ar    1  LIG1        0.0054
     33 H           7.8852    1.9850    1.9299 H       1  LIG1        0.0635
     34 H          11.6500    1.0637    0.0752 H       1  LIG1        0.0629
     35 N           7.3308   -0.1805   -3.2795 N.1     1  LIG1       -0.1909
     36 C           7.8391    0.2027   -2.3138 C.1     1  LIG1        0.0998
     37 S          10.7636    2.1446    2.5460 S.3     1  LIG1       -0.1426
     38 H           9.7117    2.5600    3.2686 H       1  LIG1        0.1071
@<TRIPOS>BOND
     1    35    36    3
     2    13    12    1
     3    12     7    1
     4    36    26    1
     5    30    27    1
     6     8     6    1
     7    26    27   ar
     8    26    28   ar
     9     7     6   ar
    10     7     4   ar
    11    27    29   ar
    12     6     3   ar
    13    25    24    1
    14    18    15    1
    15    22    23    3
    16    23    14    1
    17    15    14   ar
    18    15    17   ar
    19    14    16   ar
    20    24    20    1
    21    17    20   ar
    22    17    28    1
    23    16    19   ar
    24    16     4    1
    25    20    19   ar
    26    28    31   ar
    27    19    21    1
    28     4     2   ar
    29    29    34    1
    30    29    32   ar
    31     3     9    1
    32     3     1   ar
    33    31    32   ar
    34    31    33    1
    35     2     1   ar
    36     2     5    1
    37    32    37    1
    38     1    11    1
    39    11    10    3
    40    37    38    1
