@<TRIPOS>MOLECULE
mol_data/opt/cam/geoms/mol2/4dg4dg.out
 26 27 0 0 0
SMALL
GASTEIGER

@<TRIPOS>ATOM
      1 C          -0.0199    0.1987    0.6565 C.ar    1  LIG1        0.0524
      2 C           1.3737    0.2063    0.6378 C.ar    1  LIG1       -0.0355
      3 C          -0.7222    1.2017   -0.0139 C.ar    1  LIG1       -0.0433
      4 C           2.0772    1.2015   -0.0333 C.ar    1  LIG1       -0.0022
      5 H           1.9195   -0.5733    1.1569 H       1  LIG1        0.0637
      6 C          -0.0326    2.1921   -0.6885 C.ar    1  LIG1       -0.0468
      7 C           1.3640    2.2055   -0.7089 C.ar    1  LIG1        0.0126
      8 H          -0.5891    2.9636   -1.2093 H       1  LIG1        0.0629
      9 H          -1.8059    1.2007   -0.0046 H       1  LIG1        0.0631
     10 N          -1.3007   -1.6465    1.9477 N.1     1  LIG1       -0.1909
     11 C          -0.7263   -0.8270    1.3678 C.1     1  LIG1        0.0992
     12 S           2.2634    3.4584   -1.5900 S.3     1  LIG1       -0.1420
     13 H           1.1844    4.0430   -2.1339 H       1  LIG1        0.1071
     14 C           4.2908    0.1557   -0.6465 C.ar    1  LIG1        0.0596
     15 C           5.6872    0.1489   -0.5867 C.ar    1  LIG1       -0.0427
     16 C           3.5673    1.1787   -0.0125 C.ar    1  LIG1        0.0016
     17 C           6.3673    1.1446    0.0887 C.ar    1  LIG1       -0.0473
     18 H           6.2346   -0.6445   -1.0824 H       1  LIG1        0.0631
     19 C           4.2657    2.1722    0.6674 C.ar    1  LIG1       -0.0396
     20 C           5.6586    2.1676    0.7219 C.ar    1  LIG1        0.0054
     21 H           3.7029    2.9543    1.1654 H       1  LIG1        0.0635
     22 H           7.4512    1.1297    0.1232 H       1  LIG1        0.0629
     23 N           3.1028   -1.7354   -1.9606 N.1     1  LIG1       -0.1909
     24 C           3.6196   -0.8846   -1.3715 C.1     1  LIG1        0.0998
     25 S           6.5865    3.4075    1.5804 S.3     1  LIG1       -0.1426
     26 H           5.5431    4.1726    1.9370 H       1  LIG1        0.1071
@<TRIPOS>BOND
     1    13    12    1
     2    23    24    3
     3    12     7    1
     4    24    14    1
     5     8     6    1
     6    18    15    1
     7     7     6   ar
     8     7     4   ar
     9     6     3   ar
    10    14    15   ar
    11    14    16   ar
    12    15    17   ar
    13     4    16    1
    14     4     2   ar
    15     3     9    1
    16     3     1   ar
    17    16    19   ar
    18    17    22    1
    19    17    20   ar
    20     2     1   ar
    21     2     5    1
    22     1    11    1
    23    19    20   ar
    24    19    21    1
    25    20    25    1
    26    11    10    3
    27    25    26    1
