@<TRIPOS>MOLECULE
mol_data/opt/cam/geoms/mol2/4dg4dg-4dg4dg.out
 50 53 0 0 0
SMALL
GASTEIGER

@<TRIPOS>ATOM
      1 C          -0.2077    0.1379   -0.6887 C.ar    1  LIG1        0.0524
      2 C           1.1849    0.1678   -0.6477 C.ar    1  LIG1       -0.0355
      3 C          -0.9370    1.1356   -0.0394 C.ar    1  LIG1       -0.0433
      4 C           1.8598    1.1817    0.0255 C.ar    1  LIG1       -0.0022
      5 H           1.7521   -0.6075   -1.1501 H       1  LIG1        0.0637
      6 C          -0.2755    2.1437    0.6370 C.ar    1  LIG1       -0.0468
      7 C           1.1199    2.1801    0.6799 C.ar    1  LIG1        0.0126
      8 H          -0.8532    2.9105    1.1412 H       1  LIG1        0.0629
      9 H          -2.0203    1.1164   -0.0665 H       1  LIG1        0.0631
     10 N          -1.4462   -1.7350   -1.9812 N.1     1  LIG1       -0.1909
     11 C          -0.8885   -0.9043   -1.4012 C.1     1  LIG1        0.0992
     12 S           1.9836    3.4561    1.5648 S.3     1  LIG1       -0.1420
     13 H           0.8874    4.0223    2.0932 H       1  LIG1        0.1071
     14 C           4.0820    0.1739    0.6749 C.ar    1  LIG1        0.0601
     15 C           5.4751    0.1917    0.6345 C.ar    1  LIG1       -0.0350
     16 C           3.3497    1.1829    0.0296 C.ar    1  LIG1        0.0016
     17 C           6.1686    1.1988   -0.0269 C.ar    1  LIG1       -0.0022
     18 H           6.0279   -0.5935    1.1374 H       1  LIG1        0.0637
     19 C           4.0459    2.1837   -0.6371 C.ar    1  LIG1       -0.0390
     20 C           5.4399    2.2089   -0.6744 C.ar    1  LIG1        0.0131
     21 H           3.4788    2.9549   -1.1466 H       1  LIG1        0.0635
     22 N           2.8986   -1.7188    1.9909 N.1     1  LIG1       -0.1908
     23 C           3.4181   -0.8725    1.3983 C.1     1  LIG1        0.0998
     24 S           6.3143    3.4794   -1.5539 S.3     1  LIG1       -0.1420
     25 H           5.2213    4.0855   -2.0432 H       1  LIG1        0.1071
     26 C           8.3736    0.1558   -0.6720 C.ar    1  LIG1        0.0601
     27 C           9.7666    0.1510   -0.6299 C.ar    1  LIG1       -0.0350
     28 C           7.6578    1.1779   -0.0288 C.ar    1  LIG1        0.0016
     29 C          10.4765    1.1466    0.0307 C.ar    1  LIG1       -0.0022
     30 H          10.3067   -0.6446   -1.1302 H       1  LIG1        0.0637
     31 C           8.3695    2.1685    0.6366 C.ar    1  LIG1       -0.0390
     32 C           9.7640    2.1702    0.6756 C.ar    1  LIG1        0.0131
     33 H           7.8150    2.9500    1.1442 H       1  LIG1        0.0635
     34 N           7.1593   -1.7178   -1.9872 N.1     1  LIG1       -0.1908
     35 C           7.6931   -0.8801   -1.3949 C.1     1  LIG1        0.0998
     36 S          10.6602    3.4263    1.5518 S.3     1  LIG1       -0.1420
     37 H           9.5776    4.0523    2.0395 H       1  LIG1        0.1071
     38 C          12.6587    0.0755    0.7010 C.ar    1  LIG1        0.0596
     39 C          14.0554    0.0435    0.6678 C.ar    1  LIG1       -0.0427
     40 C          11.9658    1.1001    0.0362 C.ar    1  LIG1        0.0016
     41 C          14.7649    1.0155   -0.0120 C.ar    1  LIG1       -0.0473
     42 H          14.5798   -0.7504    1.1869 H       1  LIG1        0.0631
     43 C          12.6930    2.0700   -0.6471 C.ar    1  LIG1       -0.0396
     44 C          14.0865    2.0397   -0.6760 C.ar    1  LIG1        0.0054
     45 H          12.1534    2.8535   -1.1680 H       1  LIG1        0.0635
     46 H          15.8488    0.9810   -0.0264 H       1  LIG1        0.0629
     47 N          11.4014   -1.7662    2.0207 N.1     1  LIG1       -0.1909
     48 C          11.9527   -0.9387    1.4298 C.1     1  LIG1        0.0998
     49 S          15.0519    3.2476   -1.5379 S.3     1  LIG1       -0.1426
     50 H          14.0285    4.0204   -1.9339 H       1  LIG1        0.1071
@<TRIPOS>BOND
     1    25    24    1
     2    34    35    3
     3    10    11    3
     4    50    49    1
     5    24    20    1
     6    49    44    1
     7    11     1    1
     8    35    26    1
     9    45    43    1
    10     5     2    1
    11    21    19    1
    12    30    27    1
    13     1     2   ar
    14     1     3   ar
    15    44    43   ar
    16    44    41   ar
    17    20    19   ar
    18    20    17   ar
    19    26    27   ar
    20    26    28   ar
    21     2     4   ar
    22    43    40   ar
    23    19    16   ar
    24    27    29   ar
    25     9     3    1
    26     3     6   ar
    27    28    17    1
    28    28    31   ar
    29    17    15   ar
    30    46    41    1
    31    41    39   ar
    32     4    16    1
    33     4     7   ar
    34    16    14   ar
    35    29    40    1
    36    29    32   ar
    37    40    38   ar
    38    15    14   ar
    39    15    18    1
    40    31    32   ar
    41    31    33    1
    42     6     7   ar
    43     6     8    1
    44    39    38   ar
    45    39    42    1
    46    14    23    1
    47    32    36    1
    48     7    12    1
    49    38    48    1
    50    23    22    3
    51    48    47    3
    52    36    37    1
    53    12    13    1
