@<TRIPOS>MOLECULE
mol_data/opt/cam/geoms/mol2/4dh.out
 15 15 0 0 0
SMALL
GASTEIGER

@<TRIPOS>ATOM
      1 C           0.0726    0.0240    0.0093 C.ar    1  LIG1        0.0519
      2 C           1.4712    0.0154   -0.0096 C.ar    1  LIG1       -0.0426
      3 C          -0.5990    1.2508   -0.0097 C.ar    1  LIG1       -0.0426
      4 C           2.1797    1.2004   -0.0480 C.ar    1  LIG1       -0.0398
      5 H           1.9999   -0.9311    0.0042 H       1  LIG1        0.0631
      6 C           0.1075    2.4370   -0.0481 C.ar    1  LIG1       -0.0398
      7 C           1.5101    2.4328   -0.0682 C.ar    1  LIG1        0.0246
      8 H          -0.4243    3.3834   -0.0588 H       1  LIG1        0.0636
      9 H           3.2651    1.1817   -0.0587 H       1  LIG1        0.0636
     10 H          -1.6831    1.2667    0.0041 H       1  LIG1        0.0631
     11 N          -1.2535   -2.1991    0.0737 N.1     1  LIG1       -0.1909
     12 C          -0.6609   -1.2050    0.0454 C.1     1  LIG1        0.0992
     13 N           2.2165    3.6165   -0.0628 N.pl3   1  LIG1       -0.3580
     14 H           3.1790    3.5797   -0.3590 H       1  LIG1        0.1423
     15 H           1.7272    4.4461   -0.3591 H       1  LIG1        0.1423
@<TRIPOS>BOND
     1    15    13    1
     2    14    13    1
     3     7    13    1
     4     7     6   ar
     5     7     4   ar
     6     8     6    1
     7     9     4    1
     8     6     3   ar
     9     4     2   ar
    10     3    10    1
    11     3     1   ar
    12     2     5    1
    13     2     1   ar
    14     1    12    1
    15    12    11    3
