@<TRIPOS>MOLECULE
mol_data/opt/cam/geoms/mol2/4dh4dh4dh4dh-.out
 54 57 0 0 0
SMALL
GASTEIGER

@<TRIPOS>ATOM
      1 C          -0.1784    2.0436    1.0065 C.ar    1  LIG1        0.0525
      2 C           1.2142    2.0065    0.9259 C.ar    1  LIG1       -0.0348
      3 C          -0.9274    1.2358    0.1441 C.ar    1  LIG1       -0.0426
      4 C           1.8687    1.1878    0.0153 C.ar    1  LIG1        0.0053
      5 H           1.8034    2.6174    1.6011 H       1  LIG1        0.0637
      6 C          -0.2930    0.4291   -0.7757 C.ar    1  LIG1       -0.0392
      7 C           1.1076    0.3911   -0.8696 C.ar    1  LIG1        0.0325
      8 H          -0.8801   -0.1823   -1.4535 H       1  LIG1        0.0636
      9 H          -2.0100    1.2499    0.1995 H       1  LIG1        0.0631
     10 N          -1.3492    3.5837    2.7268 N.1     1  LIG1       -0.1909
     11 C          -0.8257    2.8931    1.9591 C.1     1  LIG1        0.0992
     12 N           1.7016   -0.3615   -1.8527 N.pl3   1  LIG1       -0.3575
     13 H           2.6881   -0.5490   -1.7763 H       1  LIG1        0.1423
     14 H           1.1641   -1.1248   -2.2316 H       1  LIG1        0.1423
     15 C           4.1162    0.0516    0.3126 C.ar    1  LIG1        0.0602
     16 C           5.5112    0.1225    0.2856 C.ar    1  LIG1       -0.0342
     17 C           3.3573    1.1930   -0.0193 C.ar    1  LIG1        0.0030
     18 C           6.1823    1.2846   -0.0587 C.ar    1  LIG1        0.0053
     19 H           6.0875   -0.7618    0.5354 H       1  LIG1        0.0637
     20 C           4.0289    2.3584   -0.3482 C.ar    1  LIG1       -0.0314
     21 C           5.4300    2.4406   -0.3675 C.ar    1  LIG1        0.0330
     22 H           3.4493    3.2412   -0.5988 H       1  LIG1        0.0643
     23 N           3.0086   -2.1870    0.9962 N.1     1  LIG1       -0.1908
     24 C           3.4920   -1.1778    0.6991 C.1     1  LIG1        0.0998
     25 N           6.0351    3.6391   -0.6296 N.pl3   1  LIG1       -0.3575
     26 H           7.0205    3.6505   -0.8359 H       1  LIG1        0.1423
     27 H           5.4924    4.3491   -1.0936 H       1  LIG1        0.1423
     28 C           8.4032    1.4619   -1.2623 C.ar    1  LIG1        0.0602
     29 C           9.7995    1.4464   -1.2188 C.ar    1  LIG1       -0.0342
     30 C           7.6710    1.2941   -0.0694 C.ar    1  LIG1        0.0030
     31 C          10.4968    1.2703   -0.0343 C.ar    1  LIG1        0.0053
     32 H          10.3558    1.5834   -2.1397 H       1  LIG1        0.0637
     33 C           8.3672    1.1035    1.1120 C.ar    1  LIG1       -0.0314
     34 C           9.7698    1.0778    1.1623 C.ar    1  LIG1        0.0330
     35 H           7.8076    0.9697    2.0323 H       1  LIG1        0.0643
     36 N           7.2305    1.7598   -3.5517 N.1     1  LIG1       -0.1908
     37 C           7.7459    1.6203   -2.5245 C.1     1  LIG1        0.0998
     38 N          10.3998    0.8143    2.3495 N.pl3   1  LIG1       -0.3575
     39 H          11.3822    1.0230    2.4245 H       1  LIG1        0.1423
     40 H           9.8738    0.9637    3.1958 H       1  LIG1        0.1423
     41 C          12.7448    2.2633    0.5758 C.ar    1  LIG1        0.0596
     42 C          14.1423    2.2219    0.5019 C.ar    1  LIG1       -0.0420
     43 C          11.9860    1.2590   -0.0593 C.ar    1  LIG1        0.0030
     44 C          14.7882    1.2170   -0.1866 C.ar    1  LIG1       -0.0398
     45 H          14.7190    3.0016    0.9870 H       1  LIG1        0.0631
     46 C          12.6478    0.2548   -0.7501 C.ar    1  LIG1       -0.0320
     47 C          14.0478    0.2137   -0.8305 C.ar    1  LIG1        0.0252
     48 H          12.0633   -0.5247   -1.2287 H       1  LIG1        0.0642
     49 H          15.8723    1.1991   -0.2318 H       1  LIG1        0.0636
     50 N          11.6070    4.2128    1.8451 N.1     1  LIG1       -0.1909
     51 C          12.1096    3.3438    1.2683 C.1     1  LIG1        0.0998
     52 N          14.6784   -0.8122   -1.4873 N.pl3   1  LIG1       -0.3579
     53 H          14.1384   -1.3720   -2.1270 H       1  LIG1        0.1423
     54 H          15.6469   -0.6943   -1.7365 H       1  LIG1        0.1423
@<TRIPOS>BOND
     1    36    37    3
     2    37    28    1
     3    14    12    1
     4    32    29    1
     5    53    52    1
     6    12    13    1
     7    12     7    1
     8    54    52    1
     9    52    47    1
    10     8     6    1
    11    28    29   ar
    12    28    30   ar
    13    48    46    1
    14    29    31   ar
    15    27    25    1
    16     7     6   ar
    17     7     4   ar
    18    26    25    1
    19    47    46   ar
    20    47    44   ar
    21     6     3   ar
    22    46    43   ar
    23    25    21    1
    24    22    20    1
    25    21    20   ar
    26    21    18   ar
    27    20    17   ar
    28    49    44    1
    29    44    42   ar
    30    30    18    1
    31    30    33   ar
    32    43    31    1
    33    43    41   ar
    34    18    16   ar
    35    31    34   ar
    36    17     4    1
    37    17    15   ar
    38     4     2   ar
    39     3     9    1
    40     3     1   ar
    41    16    15   ar
    42    16    19    1
    43    15    24    1
    44    42    41   ar
    45    42    45    1
    46    41    51    1
    47    24    23    3
    48     2     1   ar
    49     2     5    1
    50     1    11    1
    51    33    34   ar
    52    33    35    1
    53    34    38    1
    54    51    50    3
    55    11    10    3
    56    38    39    1
    57    38    40    1
