@<TRIPOS>MOLECULE
mol_data/opt/cam/geoms/mol2/4dh4dh4dh-4dh.out
 54 57 0 0 0
SMALL
GASTEIGER

@<TRIPOS>ATOM
      1 C          -0.1356    2.6589    0.2837 C.ar    1  LIG1        0.0525
      2 C           1.2531    2.5241    0.2853 C.ar    1  LIG1       -0.0348
      3 C          -0.9236    1.5403   -0.0064 C.ar    1  LIG1       -0.0426
      4 C           1.8671    1.3094    0.0079 C.ar    1  LIG1        0.0053
      5 H           1.8712    3.3822    0.5254 H       1  LIG1        0.0637
      6 C          -0.3290    0.3310   -0.2953 C.ar    1  LIG1       -0.0392
      7 C           1.0674    0.1872   -0.3034 C.ar    1  LIG1        0.0325
      8 H          -0.9453   -0.5299   -0.5342 H       1  LIG1        0.0636
      9 H          -2.0041    1.6290   -0.0057 H       1  LIG1        0.0631
     10 N          -1.2310    4.9475    0.7986 N.1     1  LIG1       -0.1909
     11 C          -0.7406    3.9235    0.5728 C.1     1  LIG1        0.0992
     12 N           1.6222   -1.0150   -0.6792 N.pl3   1  LIG1       -0.3575
     13 H           2.5848   -1.1785   -0.4312 H       1  LIG1        0.1423
     14 H           1.0375   -1.8287   -0.5667 H       1  LIG1        0.1423
     15 C           4.0707    0.4437    0.9286 C.ar    1  LIG1        0.0602
     16 C           5.4669    0.4472    0.9026 C.ar    1  LIG1       -0.0342
     17 C           3.3548    1.2408    0.0124 C.ar    1  LIG1        0.0030
     18 C           6.1838    1.2113   -0.0057 C.ar    1  LIG1        0.0053
     19 H           6.0037   -0.1649    1.6185 H       1  LIG1        0.0637
     20 C           4.0722    2.0144   -0.8856 C.ar    1  LIG1       -0.0314
     21 C           5.4741    2.0237   -0.9184 C.ar    1  LIG1        0.0330
     22 H           3.5272    2.6282   -1.5959 H       1  LIG1        0.0643
     23 N           2.8630   -1.0477    2.6677 N.1     1  LIG1       -0.1908
     24 C           3.3964   -0.3640    1.9007 C.1     1  LIG1        0.0998
     25 N           6.1256    2.7902   -1.8545 N.pl3   1  LIG1       -0.3575
     26 H           7.0995    2.9985   -1.6965 H       1  LIG1        0.1423
     27 H           5.5989    3.5362   -2.2808 H       1  LIG1        0.1423
     28 C           8.4287    1.5136    1.1211 C.ar    1  LIG1        0.0602
     29 C           9.8230    1.4620    1.0563 C.ar    1  LIG1       -0.0342
     30 C           7.6709    1.1688   -0.0140 C.ar    1  LIG1        0.0030
     31 C          10.4949    1.0851   -0.0958 C.ar    1  LIG1        0.0053
     32 H          10.3991    1.7544    1.9273 H       1  LIG1        0.0637
     33 C           8.3432    0.7727   -1.1618 C.ar    1  LIG1       -0.0314
     34 C           9.7419    0.7090   -1.2306 C.ar    1  LIG1        0.0330
     35 H           7.7648    0.4835   -2.0336 H       1  LIG1        0.0643
     36 N           7.3464    2.3063    3.3357 N.1     1  LIG1       -0.1908
     37 C           7.8119    1.9511    2.3372 C.1     1  LIG1        0.0998
     38 N          10.3439    0.2272   -2.3651 N.pl3   1  LIG1       -0.3575
     39 H           9.8082    0.2554   -3.2180 H       1  LIG1        0.1423
     40 H          11.3292    0.3965   -2.4866 H       1  LIG1        0.1423
     41 C          12.7143    1.9626   -0.9302 C.ar    1  LIG1        0.0596
     42 C          14.1134    1.9493   -0.8846 C.ar    1  LIG1       -0.0420
     43 C          11.9836    1.0827   -0.1048 C.ar    1  LIG1        0.0030
     44 C          14.7882    1.0927   -0.0408 C.ar    1  LIG1       -0.0398
     45 H          14.6683    2.6338   -1.5165 H       1  LIG1        0.0631
     46 C          12.6743    0.2277    0.7405 C.ar    1  LIG1       -0.0320
     47 C          14.0764    0.2166    0.7930 C.ar    1  LIG1        0.0252
     48 H          12.1117   -0.4565    1.3678 H       1  LIG1        0.0642
     49 H          15.8732    1.0941   -0.0190 H       1  LIG1        0.0636
     50 N          11.5067    3.6316   -2.4997 N.1     1  LIG1       -0.1909
     51 C          12.0450    2.8920   -1.7898 C.1     1  LIG1        0.0998
     52 N          14.7358   -0.6657    1.6105 N.pl3   1  LIG1       -0.3579
     53 H          15.7068   -0.4914    1.8127 H       1  LIG1        0.1423
     54 H          14.2177   -1.1016    2.3561 H       1  LIG1        0.1423
@<TRIPOS>BOND
     1    39    38    1
     2    50    51    3
     3    40    38    1
     4    38    34    1
     5    27    25    1
     6    35    33    1
     7    25    26    1
     8    25    21    1
     9    51    41    1
    10    22    20    1
    11    45    42    1
    12    34    33   ar
    13    34    31   ar
    14    33    30   ar
    15    41    42   ar
    16    41    43   ar
    17    21    20   ar
    18    21    18   ar
    19    20    17   ar
    20    42    44   ar
    21    12    14    1
    22    12    13    1
    23    12     7    1
    24     8     6    1
    25     7     6   ar
    26     7     4   ar
    27     6     3   ar
    28    43    31    1
    29    43    46   ar
    30    31    29   ar
    31    44    49    1
    32    44    47   ar
    33    30    18    1
    34    30    28   ar
    35     3     9    1
    36     3     1   ar
    37    18    16   ar
    38     4    17    1
    39     4     2   ar
    40    17    15   ar
    41     1     2   ar
    42     1    11    1
    43     2     5    1
    44    11    10    3
    45    46    47   ar
    46    46    48    1
    47    47    52    1
    48    16    15   ar
    49    16    19    1
    50    15    24    1
    51    29    28   ar
    52    29    32    1
    53    28    37    1
    54    52    53    1
    55    52    54    1
    56    24    23    3
    57    37    36    3
