@<TRIPOS>MOLECULE
mol_data/opt/cam/geoms/mol2/4dh4dh-4dh4dh.out
 54 57 0 0 0
SMALL
GASTEIGER

@<TRIPOS>ATOM
      1 C          -0.2209    2.3110    0.5270 C.ar    1  LIG1        0.0525
      2 C           1.1736    2.2802    0.5032 C.ar    1  LIG1       -0.0348
      3 C          -0.9335    1.2674   -0.0719 C.ar    1  LIG1       -0.0426
      4 C           1.8658    1.2323   -0.0901 C.ar    1  LIG1        0.0053
      5 H           1.7298    3.0886    0.9639 H       1  LIG1        0.0637
      6 C          -0.2608    0.2257   -0.6750 C.ar    1  LIG1       -0.0392
      7 C           1.1413    0.1823   -0.6972 C.ar    1  LIG1        0.0325
      8 H          -0.8194   -0.5795   -1.1419 H       1  LIG1        0.0636
      9 H          -2.0174    1.2824   -0.0624 H       1  LIG1        0.0631
     10 N          -1.4781    4.2529    1.6898 N.1     1  LIG1       -0.1909
     11 C          -0.9125    3.3896    1.1659 C.1     1  LIG1        0.0992
     12 N           1.7821   -0.8912   -1.2780 N.pl3   1  LIG1       -0.3575
     13 H           2.7481   -0.7658   -1.5402 H       1  LIG1        0.1423
     14 H           1.2434   -1.4304   -1.9378 H       1  LIG1        0.1423
     15 C           4.1109    2.2537   -0.6573 C.ar    1  LIG1        0.0602
     16 C           5.5054    2.1937   -0.6122 C.ar    1  LIG1       -0.0342
     17 C           3.3539    1.2204   -0.0733 C.ar    1  LIG1        0.0030
     18 C           6.1786    1.1398   -0.0130 C.ar    1  LIG1        0.0053
     19 H           6.0805    2.9822   -1.0852 H       1  LIG1        0.0637
     20 C           4.0285    0.1746    0.5408 C.ar    1  LIG1       -0.0314
     21 C           5.4273    0.1114    0.5974 C.ar    1  LIG1        0.0330
     22 H           3.4508   -0.6144    1.0120 H       1  LIG1        0.0643
     23 N           3.0189    4.2566   -1.8830 N.1     1  LIG1       -0.1908
     24 C           3.4895    3.3547   -1.3309 C.1     1  LIG1        0.0998
     25 N           6.0313   -0.9048    1.2975 N.pl3   1  LIG1       -0.3575
     26 H           5.4885   -1.7415    1.4425 H       1  LIG1        0.1423
     27 H           7.0096   -1.0738    1.1282 H       1  LIG1        0.1423
     28 C           8.3985    0.1357   -0.7038 C.ar    1  LIG1        0.0602
     29 C           9.7941    0.1943   -0.7137 C.ar    1  LIG1       -0.0342
     30 C           7.6669    1.1295   -0.0213 C.ar    1  LIG1        0.0030
     31 C          10.4929    1.2087   -0.0777 C.ar    1  LIG1        0.0053
     32 H          10.3485   -0.5617   -1.2590 H       1  LIG1        0.0637
     33 C           8.3652    2.1354    0.6243 C.ar    1  LIG1       -0.0314
     34 C           9.7672    2.2016    0.6190 C.ar    1  LIG1        0.0330
     35 H           7.8081    2.8904    1.1698 H       1  LIG1        0.0643
     36 N           7.2061   -1.7791   -1.9759 N.1     1  LIG1       -0.1908
     37 C           7.7363   -0.9141   -1.4178 C.1     1  LIG1        0.0998
     38 N          10.3986    3.1799    1.3420 N.pl3   1  LIG1       -0.3575
     39 H          11.3687    3.3633    1.1428 H       1  LIG1        0.1423
     40 H           9.8607    4.0019    1.5671 H       1  LIG1        0.1423
     41 C          12.7063    2.2303   -0.7715 C.ar    1  LIG1        0.0596
     42 C          14.1041    2.1627   -0.8158 C.ar    1  LIG1       -0.0420
     43 C          11.9815    1.2058   -0.1288 C.ar    1  LIG1        0.0030
     44 C          14.7840    1.1079   -0.2449 C.ar    1  LIG1       -0.0398
     45 H          14.6536    2.9519   -1.3167 H       1  LIG1        0.0631
     46 C          12.6782    0.1496    0.4403 C.ar    1  LIG1       -0.0320
     47 C          14.0781    0.0761    0.3923 C.ar    1  LIG1        0.0252
     48 H          12.1208   -0.6365    0.9398 H       1  LIG1        0.0642
     49 H          15.8674    1.0694   -0.2936 H       1  LIG1        0.0636
     50 N          11.5152    4.2341   -1.8994 N.1     1  LIG1       -0.1909
     51 C          12.0397    3.3284   -1.4046 C.1     1  LIG1        0.0998
     52 N          14.7389   -1.0001    0.9282 N.pl3   1  LIG1       -0.3579
     53 H          15.7282   -0.9168    1.0961 H       1  LIG1        0.1423
     54 H          14.2436   -1.5901    1.5765 H       1  LIG1        0.1423
@<TRIPOS>BOND
     1    36    37    3
     2    14    12    1
     3    50    51    3
     4    23    24    3
     5    13    12    1
     6    37    28    1
     7    51    41    1
     8    24    15    1
     9    45    42    1
    10    12     7    1
    11    32    29    1
    12     8     6    1
    13    19    16    1
    14    42    41   ar
    15    42    44   ar
    16    41    43   ar
    17    29    28   ar
    18    29    31   ar
    19    28    30   ar
    20     7     6   ar
    21     7     4   ar
    22     6     3   ar
    23    15    16   ar
    24    15    17   ar
    25    16    18   ar
    26    49    44    1
    27    44    47   ar
    28    43    31    1
    29    43    46   ar
    30     4    17    1
    31     4     2   ar
    32    31    34   ar
    33    17    20   ar
    34     3     9    1
    35     3     1   ar
    36    30    18    1
    37    30    33   ar
    38    18    21   ar
    39    47    46   ar
    40    47    52    1
    41    46    48    1
    42     2     1   ar
    43     2     5    1
    44     1    11    1
    45    20    21   ar
    46    20    22    1
    47    21    25    1
    48    34    33   ar
    49    34    38    1
    50    33    35    1
    51    52    53    1
    52    52    54    1
    53    27    25    1
    54    39    38    1
    55    11    10    3
    56    25    26    1
    57    38    40    1
