@<TRIPOS>MOLECULE
mol_data/opt/cam/geoms/mol2/4dh4dh-4dh4dh-.out
 54 57 0 0 0
SMALL
GASTEIGER

@<TRIPOS>ATOM
      1 C          -0.2132    0.2210    0.6795 C.ar    1  LIG1        0.0525
      2 C           1.1806    0.2427    0.6213 C.ar    1  LIG1       -0.0348
      3 C          -0.9313    1.2717    0.0992 C.ar    1  LIG1       -0.0426
      4 C           1.8673    1.2810    0.0045 C.ar    1  LIG1        0.0053
      5 H           1.7460   -0.5596    1.0826 H       1  LIG1        0.0637
      6 C          -0.2648    2.3021   -0.5280 C.ar    1  LIG1       -0.0392
      7 C           1.1368    2.3291   -0.5985 C.ar    1  LIG1        0.0325
      8 H          -0.8279    3.1067   -0.9904 H       1  LIG1        0.0636
      9 H          -2.0145    1.2707    0.1422 H       1  LIG1        0.0631
     10 N          -1.4498   -1.7373    1.8365 N.1     1  LIG1       -0.1909
     11 C          -0.8952   -0.8607    1.3229 C.1     1  LIG1        0.0992
     12 N           1.7594    3.3313   -1.3076 N.pl3   1  LIG1       -0.3575
     13 H           2.7405    3.4802   -1.1347 H       1  LIG1        0.1423
     14 H           1.2385    4.1874   -1.4180 H       1  LIG1        0.1423
     15 C           4.1559    2.2051    0.6066 C.ar    1  LIG1        0.0602
     16 C           5.5468    2.0817    0.5705 C.ar    1  LIG1       -0.0342
     17 C           3.3554    1.2340   -0.0295 C.ar    1  LIG1        0.0030
     18 C           6.1768    1.0232   -0.0663 C.ar    1  LIG1        0.0053
     19 H           6.1534    2.8222    1.0805 H       1  LIG1        0.0637
     20 C           3.9868    0.1841   -0.6757 C.ar    1  LIG1       -0.0314
     21 C           5.3827    0.0519   -0.7158 C.ar    1  LIG1        0.0330
     22 H           3.3775   -0.5544   -1.1870 H       1  LIG1        0.0643
     23 N           3.1229    4.2168    1.8685 N.1     1  LIG1       -0.1908
     24 C           3.5758    3.3052    1.3167 C.1     1  LIG1        0.0998
     25 N           5.9424   -0.9707   -1.4403 N.pl3   1  LIG1       -0.3575
     26 H           5.3583   -1.7730   -1.6169 H       1  LIG1        0.1423
     27 H           6.9069   -1.1990   -1.2613 H       1  LIG1        0.1423
     28 C           8.3714   -0.0822    0.5662 C.ar    1  LIG1        0.0602
     29 C           9.7681   -0.0625    0.5689 C.ar    1  LIG1       -0.0342
     30 C           7.6643    0.9607   -0.0663 C.ar    1  LIG1        0.0030
     31 C          10.4930    0.9576   -0.0275 C.ar    1  LIG1        0.0053
     32 H          10.3030   -0.8567    1.0783 H       1  LIG1        0.0637
     33 C           8.3891    1.9721   -0.6745 C.ar    1  LIG1       -0.0314
     34 C           9.7921    1.9976   -0.6788 C.ar    1  LIG1        0.0330
     35 H           7.8514    2.7650   -1.1845 H       1  LIG1        0.0643
     36 N           7.1554   -2.0364    1.7526 N.1     1  LIG1       -0.1908
     37 C           7.6910   -1.1503    1.2346 C.1     1  LIG1        0.0998
     38 N          10.4466    2.9850   -1.3697 N.pl3   1  LIG1       -0.3575
     39 H          11.4230    3.1311   -1.1705 H       1  LIG1        0.1423
     40 H           9.9329    3.8335   -1.5489 H       1  LIG1        0.1423
     41 C          12.7382    1.8933    0.6863 C.ar    1  LIG1        0.0596
     42 C          14.1336    1.7825    0.7229 C.ar    1  LIG1       -0.0420
     43 C          11.9810    0.9103    0.0165 C.ar    1  LIG1        0.0030
     44 C          14.7798    0.7251    0.1188 C.ar    1  LIG1       -0.0398
     45 H          14.7080    2.5398    1.2447 H       1  LIG1        0.0631
     46 C          12.6441   -0.1491   -0.5859 C.ar    1  LIG1       -0.0320
     47 C          14.0413   -0.2661   -0.5454 C.ar    1  LIG1        0.0252
     48 H          12.0618   -0.9032   -1.1059 H       1  LIG1        0.0642
     49 H          15.8617    0.6527    0.1624 H       1  LIG1        0.0636
     50 N          11.6124    3.8999    1.8745 N.1     1  LIG1       -0.1909
     51 C          12.1077    2.9923    1.3536 C.1     1  LIG1        0.0998
     52 N          14.6676   -1.3451   -1.1148 N.pl3   1  LIG1       -0.3579
     53 H          14.1524   -1.9047   -1.7745 H       1  LIG1        0.1423
     54 H          15.6588   -1.2889   -1.2825 H       1  LIG1        0.1423
@<TRIPOS>BOND
     1    53    52    1
     2    26    25    1
     3    40    38    1
     4    25    27    1
     5    25    21    1
     6    14    12    1
     7    38    39    1
     8    38    34    1
     9    12    13    1
    10    12     7    1
    11    54    52    1
    12    22    20    1
    13    35    33    1
    14    52    47    1
    15    48    46    1
    16     8     6    1
    17    21    20   ar
    18    21    18   ar
    19    34    33   ar
    20    34    31   ar
    21    20    17   ar
    22    33    30   ar
    23     7     6   ar
    24     7     4   ar
    25    46    47   ar
    26    46    43   ar
    27    47    44   ar
    28     6     3   ar
    29    30    18    1
    30    30    28   ar
    31    18    16   ar
    32    17     4    1
    33    17    15   ar
    34    31    43    1
    35    31    29   ar
    36     4     2   ar
    37    43    41   ar
    38     3     9    1
    39     3     1   ar
    40    44    49    1
    41    44    42   ar
    42    28    29   ar
    43    28    37    1
    44    29    32    1
    45    16    15   ar
    46    16    19    1
    47    15    24    1
    48     2     1   ar
    49     2     5    1
    50     1    11    1
    51    41    42   ar
    52    41    51    1
    53    42    45    1
    54    37    36    3
    55    24    23    3
    56    11    10    3
    57    51    50    3
