@<TRIPOS>MOLECULE
mol_data/opt/cam/geoms/mol2/4dh4dh-4dh-4dh.out
 54 57 0 0 0
SMALL
GASTEIGER

@<TRIPOS>ATOM
      1 C          -0.2393    0.8687    1.1191 C.ar    1  LIG1        0.0525
      2 C           1.1558    0.8778    1.1056 C.ar    1  LIG1       -0.0348
      3 C          -0.9324    1.2176   -0.0440 C.ar    1  LIG1       -0.0426
      4 C           1.8659    1.2138   -0.0393 C.ar    1  LIG1        0.0053
      5 H           1.6980    0.6107    2.0057 H       1  LIG1        0.0637
      6 C          -0.2405    1.5666   -1.1849 C.ar    1  LIG1       -0.0392
      7 C           1.1617    1.5730   -1.2089 C.ar    1  LIG1        0.0325
      8 H          -0.7840    1.8425   -2.0832 H       1  LIG1        0.0636
      9 H          -2.0165    1.2167   -0.0439 H       1  LIG1        0.0631
     10 N          -1.5324    0.1857    3.2559 N.1     1  LIG1       -0.1909
     11 C          -0.9512    0.4960    2.3043 C.1     1  LIG1        0.0992
     12 N           1.8277    1.8951   -2.3740 N.pl3   1  LIG1       -0.3575
     13 H           2.7872    2.1928   -2.2799 H       1  LIG1        0.1423
     14 H           1.3024    2.4270   -3.0509 H       1  LIG1        0.1423
     15 C           4.1059    2.0319    0.8061 C.ar    1  LIG1        0.0602
     16 C           5.5001    1.9566    0.7869 C.ar    1  LIG1       -0.0342
     17 C           3.3546    1.1830   -0.0275 C.ar    1  LIG1        0.0030
     18 C           6.1759    1.0582   -0.0242 C.ar    1  LIG1        0.0053
     19 H           6.0687    2.6227    1.4261 H       1  LIG1        0.0637
     20 C           4.0315    0.2936   -0.8502 C.ar    1  LIG1       -0.0314
     21 C           5.4300    0.2024   -0.8643 C.ar    1  LIG1        0.0330
     22 H           3.4560   -0.3617   -1.4966 H       1  LIG1        0.0643
     23 N           2.9911    3.7687    2.3706 N.1     1  LIG1       -0.1908
     24 C           3.4743    2.9887    1.6653 C.1     1  LIG1        0.0998
     25 N           6.0459   -0.7317   -1.6628 N.pl3   1  LIG1       -0.3575
     26 H           5.5047   -1.1210   -2.4180 H       1  LIG1        0.1423
     27 H           7.0272   -0.6115   -1.8603 H       1  LIG1        0.1423
     28 C           8.4394    2.1145   -0.3991 C.ar    1  LIG1        0.0602
     29 C           9.8326    2.0182   -0.3739 C.ar    1  LIG1       -0.0342
     30 C           7.6629    1.0071   -0.0096 C.ar    1  LIG1        0.0030
     31 C          10.4827    0.8586    0.0171 C.ar    1  LIG1        0.0053
     32 H          10.4240    2.8679   -0.6972 H       1  LIG1        0.0637
     33 C           8.3128   -0.1491    0.3962 C.ar    1  LIG1       -0.0314
     34 C           9.7111   -0.2505    0.4311 C.ar    1  LIG1        0.0330
     35 H           7.7184   -0.9992    0.7161 H       1  LIG1        0.0643
     36 N           7.3713    4.3151   -1.2488 N.1     1  LIG1       -0.1908
     37 C           7.8344    3.3269   -0.8628 C.1     1  LIG1        0.0998
     38 N          10.2973   -1.3894    0.9191 N.pl3   1  LIG1       -0.3575
     39 H           9.7400   -2.2285    0.9327 H       1  LIG1        0.1423
     40 H          11.2761   -1.5378    0.7348 H       1  LIG1        0.1423
     41 C          12.6621   -0.0371   -0.8963 C.ar    1  LIG1        0.0596
     42 C          14.0618   -0.0318   -0.9068 C.ar    1  LIG1       -0.0420
     43 C          11.9706    0.8107   -0.0062 C.ar    1  LIG1        0.0030
     44 C          14.7748    0.7936   -0.0630 C.ar    1  LIG1       -0.0398
     45 H          14.5870   -0.6807   -1.5988 H       1  LIG1        0.0631
     46 C          12.6990    1.6370    0.8357 C.ar    1  LIG1       -0.0320
     47 C          14.1021    1.6486    0.8238 C.ar    1  LIG1        0.0252
     48 H          12.1660    2.2810    1.5281 H       1  LIG1        0.0642
     49 H          15.8598    0.7840   -0.0825 H       1  LIG1        0.0636
     50 N          11.3785   -1.5717   -2.5410 N.1     1  LIG1       -0.1909
     51 C          11.9511   -0.8783   -1.8115 C.1     1  LIG1        0.0998
     52 N          14.7993    2.4472    1.6935 N.pl3   1  LIG1       -0.3579
     53 H          15.7739    2.6184    1.5073 H       1  LIG1        0.1423
     54 H          14.3105    3.2049    2.1421 H       1  LIG1        0.1423
@<TRIPOS>BOND
     1    14    12    1
     2    50    51    3
     3    26    25    1
     4    12    13    1
     5    12     7    1
     6     8     6    1
     7    27    25    1
     8    51    41    1
     9    25    21    1
    10    45    42    1
    11    22    20    1
    12    36    37    3
    13     7     6   ar
    14     7     4   ar
    15     6     3   ar
    16    42    41   ar
    17    42    44   ar
    18    41    43   ar
    19    21    20   ar
    20    21    18   ar
    21    37    28    1
    22    20    17   ar
    23    32    29    1
    24    28    29   ar
    25    28    30   ar
    26    29    31   ar
    27    49    44    1
    28    44    47   ar
    29     3     9    1
    30     3     1   ar
    31     4    17    1
    32     4     2   ar
    33    17    15   ar
    34    18    30    1
    35    18    16   ar
    36    30    33   ar
    37    43    31    1
    38    43    46   ar
    39    31    34   ar
    40    33    34   ar
    41    33    35    1
    42    34    38    1
    43    40    38    1
    44    16    15   ar
    45    16    19    1
    46    15    24    1
    47    47    46   ar
    48    47    52    1
    49    46    48    1
    50    38    39    1
    51     2     1   ar
    52     2     5    1
    53     1    11    1
    54    53    52    1
    55    24    23    3
    56    52    54    1
    57    11    10    3
