@<TRIPOS>MOLECULE
mol_data/opt/cam/geoms/mol2/4dh4dh-4dh.out
 41 43 0 0 0
SMALL
GASTEIGER

@<TRIPOS>ATOM
      1 C          -0.1152    0.1139    0.4228 C.ar    1  LIG1        0.0525
      2 C           1.2795    0.1442    0.4066 C.ar    1  LIG1       -0.0348
      3 C          -0.8220    1.2376   -0.0178 C.ar    1  LIG1       -0.0426
      4 C           1.9780    1.2618   -0.0330 C.ar    1  LIG1        0.0053
      5 H           1.8356   -0.7168    0.7609 H       1  LIG1        0.0637
      6 C          -0.1433    2.3490   -0.4691 C.ar    1  LIG1       -0.0392
      7 C           1.2595    2.3867   -0.4955 C.ar    1  LIG1        0.0325
      8 H          -0.6971    3.2123   -0.8244 H       1  LIG1        0.0636
      9 H          -1.9060    1.2297   -0.0055 H       1  LIG1        0.0631
     10 N          -1.3744   -1.9921    1.2485 N.1     1  LIG1       -0.1909
     11 C          -0.8098   -1.0501    0.8830 C.1     1  LIG1        0.0992
     12 N           1.8973    3.4826   -1.0315 N.pl3   1  LIG1       -0.3575
     13 H           2.8724    3.6048   -0.8102 H       1  LIG1        0.1423
     14 H           1.3756    4.3453   -1.0302 H       1  LIG1        0.1423
     15 C           4.2444    2.0856    0.7647 C.ar    1  LIG1        0.0602
     16 C           5.6364    1.9698    0.7490 C.ar    1  LIG1       -0.0342
     17 C           3.4667    1.2216   -0.0334 C.ar    1  LIG1        0.0030
     18 C           6.2894    1.0217   -0.0232 C.ar    1  LIG1        0.0053
     19 H           6.2248    2.6250    1.3822 H       1  LIG1        0.0637
     20 C           4.1209    0.2834   -0.8144 C.ar    1  LIG1       -0.0314
     21 C           5.5183    0.1606   -0.8359 C.ar    1  LIG1        0.0330
     22 H           3.5297   -0.3694   -1.4486 H       1  LIG1        0.0643
     23 N           3.1734    3.8834    2.2900 N.1     1  LIG1       -0.1908
     24 C           3.6414    3.0654    1.6175 C.1     1  LIG1        0.0998
     25 N           6.1030   -0.7376   -1.6924 N.pl3   1  LIG1       -0.3575
     26 H           5.5286   -1.5022   -2.0108 H       1  LIG1        0.1423
     27 H           7.0646   -0.9880   -1.5280 H       1  LIG1        0.1423
     28 C           8.4672   -0.1684    0.4952 C.ar    1  LIG1        0.0596
     29 C           9.8669   -0.1597    0.5294 C.ar    1  LIG1       -0.0420
     30 C           7.7771    0.9607    0.0084 C.ar    1  LIG1        0.0030
     31 C          10.5827    0.9372    0.0989 C.ar    1  LIG1       -0.0398
     32 H          10.3893   -1.0303    0.9100 H       1  LIG1        0.0631
     33 C           8.5101    2.0580   -0.4203 C.ar    1  LIG1       -0.0320
     34 C           9.9119    2.0720   -0.3816 C.ar    1  LIG1        0.0252
     35 H           7.9794    2.9254   -0.8002 H       1  LIG1        0.0642
     36 H          11.6672    0.9284    0.1378 H       1  LIG1        0.0636
     37 N           7.2125   -2.2655    1.3518 N.1     1  LIG1       -0.1909
     38 C           7.7650   -1.3185    0.9800 C.1     1  LIG1        0.0998
     39 N          10.6095    3.1867   -0.7740 N.pl3   1  LIG1       -0.3579
     40 H          11.5924    3.0886   -0.9693 H       1  LIG1        0.1423
     41 H          10.1311    3.8763   -1.3305 H       1  LIG1        0.1423
@<TRIPOS>BOND
     1    26    25    1
     2    25    27    1
     3    25    21    1
     4    22    20    1
     5    41    39    1
     6    12    14    1
     7    12    13    1
     8    12     7    1
     9    40    39    1
    10    21    20   ar
    11    21    18   ar
    12     8     6    1
    13    20    17   ar
    14    35    33    1
    15    39    34    1
    16     7     6   ar
    17     7     4   ar
    18     6     3   ar
    19    33    34   ar
    20    33    30   ar
    21    34    31   ar
    22    17     4    1
    23    17    15   ar
    24     4     2   ar
    25    18    30    1
    26    18    16   ar
    27     3     9    1
    28     3     1   ar
    29    30    28   ar
    30    31    36    1
    31    31    29   ar
    32     2     1   ar
    33     2     5    1
    34     1    11    1
    35    28    29   ar
    36    28    38    1
    37    29    32    1
    38    16    15   ar
    39    16    19    1
    40    15    24    1
    41    11    10    3
    42    38    37    3
    43    24    23    3
