@<TRIPOS>MOLECULE
mol_data/opt/cam/geoms/mol2/4dh4dh4dh4dh.out
 54 57 0 0 0
SMALL
GASTEIGER

@<TRIPOS>ATOM
      1 C          -0.2027    1.8278    1.2136 C.ar    1  LIG1        0.0525
      2 C           1.1912    1.8068    1.1631 C.ar    1  LIG1       -0.0348
      3 C          -0.9287    1.2826    0.1501 C.ar    1  LIG1       -0.0426
      4 C           1.8700    1.2684    0.0776 C.ar    1  LIG1        0.0053
      5 H           1.7577    2.2264    1.9866 H       1  LIG1        0.0637
      6 C          -0.2697    0.7343   -0.9298 C.ar    1  LIG1       -0.0392
      7 C           1.1319    0.7153   -0.9929 C.ar    1  LIG1        0.0325
      8 H          -0.8388    0.3091   -1.7506 H       1  LIG1        0.0636
      9 H          -2.0124    1.2904    0.1795 H       1  LIG1        0.0631
     10 N          -1.4330    2.8863    3.2310 N.1     1  LIG1       -0.1909
     11 C          -0.8798    2.4091    2.3332 C.1     1  LIG1        0.0992
     12 N           1.7578    0.1905   -2.1024 N.pl3   1  LIG1       -0.3575
     13 H           2.7273   -0.0714   -2.0088 H       1  LIG1        0.1423
     14 H           1.2124   -0.4371   -2.6721 H       1  LIG1        0.1423
     15 C           4.1252    0.6560    1.0478 C.ar    1  LIG1        0.0602
     16 C           5.5193    0.7009    0.9719 C.ar    1  LIG1       -0.0342
     17 C           3.3578    1.2852    0.0488 C.ar    1  LIG1        0.0030
     18 C           6.1804    1.3419   -0.0634 C.ar    1  LIG1        0.0053
     19 H           6.1025    0.1932    1.7323 H       1  LIG1        0.0637
     20 C           4.0206    1.9436   -0.9774 C.ar    1  LIG1       -0.0314
     21 C           5.4196    2.0005   -1.0560 C.ar    1  LIG1        0.0330
     22 H           3.4344    2.4498   -1.7378 H       1  LIG1        0.0643
     23 N           3.0668   -0.6560    3.0131 N.1     1  LIG1       -0.1908
     24 C           3.5192   -0.0642    2.1271 C.1     1  LIG1        0.0998
     25 N           6.0146    2.7376   -2.0453 N.pl3   1  LIG1       -0.3575
     26 H           6.9982    2.6098   -2.2204 H       1  LIG1        0.1423
     27 H           5.4653    2.9537   -2.8614 H       1  LIG1        0.1423
     28 C           8.3677    0.6734   -1.1383 C.ar    1  LIG1        0.0602
     29 C           9.7631    0.6861   -1.1408 C.ar    1  LIG1       -0.0342
     30 C           7.6671    1.3287   -0.1055 C.ar    1  LIG1        0.0030
     31 C          10.4922    1.3137   -0.1416 C.ar    1  LIG1        0.0053
     32 H          10.2909    0.1815   -1.9422 H       1  LIG1        0.0637
     33 C           8.3948    1.9528    0.8938 C.ar    1  LIG1       -0.0314
     34 C           9.7971    1.9577    0.9051 C.ar    1  LIG1        0.0330
     35 H           7.8599    2.4675    1.6858 H       1  LIG1        0.0643
     36 N           7.0987   -0.5959   -3.0059 N.1     1  LIG1       -0.1908
     37 C           7.6665   -0.0324   -2.1692 C.1     1  LIG1        0.0998
     38 N          10.4669    2.5708    1.9381 N.pl3   1  LIG1       -0.3575
     39 H          11.4335    2.8121    1.7836 H       1  LIG1        0.1423
     40 H           9.9470    3.2399    2.4840 H       1  LIG1        0.1423
     41 C          12.6736    1.8696   -1.2796 C.ar    1  LIG1        0.0596
     42 C          14.0719    1.8156   -1.3077 C.ar    1  LIG1       -0.0420
     43 C          11.9799    1.3049   -0.1919 C.ar    1  LIG1        0.0030
     44 C          14.7822    1.2243   -0.2842 C.ar    1  LIG1       -0.0398
     45 H          14.5990    2.2533   -2.1481 H       1  LIG1        0.0631
     46 C          12.7066    0.7196    0.8378 C.ar    1  LIG1       -0.0320
     47 C          14.1077    0.6631    0.8110 C.ar    1  LIG1        0.0252
     48 H          12.1721    0.2755    1.6719 H       1  LIG1        0.0642
     49 H          15.8660    1.1871   -0.3258 H       1  LIG1        0.0636
     50 N          11.4295    3.0604   -3.2137 N.1     1  LIG1       -0.1909
     51 C          11.9761    2.5229   -2.3463 C.1     1  LIG1        0.0998
     52 N          14.7995    0.0323    1.8135 N.pl3   1  LIG1       -0.3579
     53 H          15.7893    0.1973    1.8929 H       1  LIG1        0.1423
     54 H          14.3230   -0.1643    2.6781 H       1  LIG1        0.1423
@<TRIPOS>BOND
     1    50    51    3
     2    36    37    3
     3    27    25    1
     4    14    12    1
     5    51    41    1
     6    26    25    1
     7    37    28    1
     8    45    42    1
     9    12    13    1
    10    12     7    1
    11    25    21    1
    12    32    29    1
    13     8     6    1
    14    22    20    1
    15    42    41   ar
    16    42    44   ar
    17    41    43   ar
    18    29    28   ar
    19    29    31   ar
    20    28    30   ar
    21    21    20   ar
    22    21    18   ar
    23     7     6   ar
    24     7     4   ar
    25    20    17   ar
    26     6     3   ar
    27    49    44    1
    28    44    47   ar
    29    43    31    1
    30    43    46   ar
    31    31    34   ar
    32    30    18    1
    33    30    33   ar
    34    18    16   ar
    35    17     4    1
    36    17    15   ar
    37     4     2   ar
    38     3     9    1
    39     3     1   ar
    40    47    46   ar
    41    47    52    1
    42    46    48    1
    43    33    34   ar
    44    33    35    1
    45    34    38    1
    46    16    15   ar
    47    16    19    1
    48    15    24    1
    49     2     1   ar
    50     2     5    1
    51     1    11    1
    52    39    38    1
    53    52    53    1
    54    52    54    1
    55    38    40    1
    56    24    23    3
    57    11    10    3
