@<TRIPOS>MOLECULE
mol_data/opt/cam/geoms/mol2/4dh4dh4dh.out
 41 43 0 0 0
SMALL
GASTEIGER

@<TRIPOS>ATOM
      1 C          -0.0742    0.7776    1.2345 C.ar    1  LIG1        0.0525
      2 C           1.3177    0.7425    1.1427 C.ar    1  LIG1       -0.0348
      3 C          -0.8127    1.2968    0.1667 C.ar    1  LIG1       -0.0426
      4 C           1.9803    1.2222    0.0210 C.ar    1  LIG1        0.0053
      5 H           1.8950    0.3383    1.9667 H       1  LIG1        0.0637
      6 C          -0.1684    1.7645   -0.9596 C.ar    1  LIG1       -0.0392
      7 C           1.2303    1.7379   -1.0578 C.ar    1  LIG1        0.0325
      8 H          -0.7474    2.1605   -1.7880 H       1  LIG1        0.0636
      9 H          -1.8948    1.3262    0.2263 H       1  LIG1        0.0631
     10 N          -1.2757   -0.0746    3.3638 N.1     1  LIG1       -0.1909
     11 C          -0.7359    0.2999    2.4110 C.1     1  LIG1        0.0992
     12 N           1.8511    2.2429   -2.1826 N.pl3   1  LIG1       -0.3575
     13 H           2.7932    1.9273   -2.3592 H       1  LIG1        0.1423
     14 H           1.2816    2.2995   -3.0130 H       1  LIG1        0.1423
     15 C           4.1914   -0.0070   -0.0237 C.ar    1  LIG1        0.0602
     16 C           5.5869    0.0261   -0.0665 C.ar    1  LIG1       -0.0342
     17 C           3.4684    1.1998   -0.0316 C.ar    1  LIG1        0.0030
     18 C           6.2905    1.2199   -0.1054 C.ar    1  LIG1        0.0053
     19 H           6.1340   -0.9100   -0.0709 H       1  LIG1        0.0637
     20 C           4.1733    2.3943   -0.0852 C.ar    1  LIG1       -0.0314
     21 C           5.5730    2.4346   -0.1139 C.ar    1  LIG1        0.0330
     22 H           3.6192    3.3278   -0.0947 H       1  LIG1        0.0643
     23 N           3.0154   -2.3136    0.0370 N.1     1  LIG1       -0.1908
     24 C           3.5267   -1.2759    0.0092 C.1     1  LIG1        0.0998
     25 N           6.2255    3.6478   -0.1150 N.pl3   1  LIG1       -0.3575
     26 H           7.1872    3.6515   -0.4175 H       1  LIG1        0.1423
     27 H           5.6904    4.4501   -0.4077 H       1  LIG1        0.1423
     28 C           8.4750    0.6860   -1.2501 C.ar    1  LIG1        0.0596
     29 C           9.8746    0.6648   -1.2362 C.ar    1  LIG1       -0.0420
     30 C           7.7795    1.2082   -0.1433 C.ar    1  LIG1        0.0030
     31 C          10.5823    1.1549   -0.1586 C.ar    1  LIG1       -0.0398
     32 H          10.4041    0.2606   -2.0916 H       1  LIG1        0.0631
     33 C           8.5026    1.7102    0.9311 C.ar    1  LIG1       -0.0320
     34 C           9.9047    1.6891    0.9482 C.ar    1  LIG1        0.0252
     35 H           7.9645    2.1087    1.7856 H       1  LIG1        0.0642
     36 H          11.6671    1.1248   -0.1622 H       1  LIG1        0.0636
     37 N           7.2318   -0.1715   -3.3536 N.1     1  LIG1       -0.1909
     38 C           7.7760    0.2064   -2.4044 C.1     1  LIG1        0.0998
     39 N          10.5962    2.1411    2.0439 N.pl3   1  LIG1       -0.3579
     40 H          11.5800    2.3305    1.9461 H       1  LIG1        0.1423
     41 H          10.1113    2.7133    2.7153 H       1  LIG1        0.1423
@<TRIPOS>BOND
     1    37    38    3
     2    14    12    1
     3    38    28    1
     4    13    12    1
     5    12     7    1
     6    32    29    1
     7     8     6    1
     8    28    29   ar
     9    28    30   ar
    10    29    31   ar
    11     7     6   ar
    12     7     4   ar
    13     6     3   ar
    14    26    25    1
    15    27    25    1
    16    36    31    1
    17    31    34   ar
    18    30    18    1
    19    30    33   ar
    20    25    21    1
    21    21    18   ar
    22    21    20   ar
    23    18    16   ar
    24    22    20    1
    25    20    17   ar
    26    19    16    1
    27    16    15   ar
    28    17    15   ar
    29    17     4    1
    30    15    24    1
    31    24    23    3
    32     4     2   ar
    33     3     9    1
    34     3     1   ar
    35    33    34   ar
    36    33    35    1
    37    34    39    1
    38     2     1   ar
    39     2     5    1
    40     1    11    1
    41    40    39    1
    42    39    41    1
    43    11    10    3
