@<TRIPOS>MOLECULE
mol_data/opt/cam/geoms/mol2/4dh4dh-4dh-4dh-.out
 54 57 0 0 0
SMALL
GASTEIGER

@<TRIPOS>ATOM
      1 C          -0.2497    0.0386    0.0154 C.ar    1  LIG1        0.0525
      2 C           1.1457    0.0453    0.0091 C.ar    1  LIG1       -0.0348
      3 C          -0.9313    1.2605    0.0123 C.ar    1  LIG1       -0.0426
      4 C           1.8674    1.2311    0.0022 C.ar    1  LIG1        0.0053
      5 H           1.6831   -0.8966    0.0278 H       1  LIG1        0.0637
      6 C          -0.2295    2.4462   -0.0102 C.ar    1  LIG1       -0.0392
      7 C           1.1750    2.4633   -0.0257 C.ar    1  LIG1        0.0325
      8 H          -0.7648    3.3901   -0.0295 H       1  LIG1        0.0636
      9 H          -2.0154    1.2709    0.0237 H       1  LIG1        0.0631
     10 N          -1.5438   -2.2034    0.0302 N.1     1  LIG1       -0.1909
     11 C          -0.9662   -1.2000    0.0266 C.1     1  LIG1        0.0992
     12 N           1.8379    3.6597   -0.1337 N.pl3   1  LIG1       -0.3575
     13 H           2.8248    3.6825    0.0671 H       1  LIG1        0.1423
     14 H           1.3394    4.4886    0.1483 H       1  LIG1        0.1423
     15 C           4.1257    1.6748    1.0632 C.ar    1  LIG1        0.0602
     16 C           5.5182    1.5924    1.0066 C.ar    1  LIG1       -0.0342
     17 C           3.3546    1.1736   -0.0049 C.ar    1  LIG1        0.0030
     18 C           6.1747    1.0119   -0.0674 C.ar    1  LIG1        0.0053
     19 H           6.1005    1.9852    1.8327 H       1  LIG1        0.0637
     20 C           4.0127    0.5950   -1.0783 C.ar    1  LIG1       -0.0314
     21 C           5.4100    0.4975   -1.1365 C.ar    1  LIG1        0.0330
     22 H           3.4241    0.2195   -1.9095 H       1  LIG1        0.0643
     23 N           3.0273    2.7168    3.1646 N.1     1  LIG1       -0.1908
     24 C           3.5094    2.2442    2.2244 C.1     1  LIG1        0.0998
     25 N           6.0096   -0.1101   -2.2157 N.pl3   1  LIG1       -0.3575
     26 H           5.4542   -0.1918   -3.0531 H       1  LIG1        0.1423
     27 H           6.9817    0.1020   -2.3816 H       1  LIG1        0.1423
     28 C           8.4454    2.1141   -0.0999 C.ar    1  LIG1        0.0602
     29 C           9.8376    2.0090   -0.1115 C.ar    1  LIG1       -0.0342
     30 C           7.6613    0.9458   -0.0863 C.ar    1  LIG1        0.0030
     31 C          10.4791    0.7801   -0.0986 C.ar    1  LIG1        0.0053
     32 H          10.4325    2.9152   -0.1332 H       1  LIG1        0.0637
     33 C           8.3030   -0.2846   -0.0876 C.ar    1  LIG1       -0.0314
     34 C           9.6999   -0.3965   -0.0848 C.ar    1  LIG1        0.0330
     35 H           7.7026   -1.1890   -0.0769 H       1  LIG1        0.0643
     36 N           7.3631    4.4670   -0.1327 N.1     1  LIG1       -0.1908
     37 C           7.8397    3.4124   -0.1203 C.1     1  LIG1        0.0998
     38 N          10.2878   -1.6395   -0.0344 N.pl3   1  LIG1       -0.3575
     39 H           9.7181   -2.4264   -0.3023 H       1  LIG1        0.1423
     40 H          11.2559   -1.7050   -0.3076 H       1  LIG1        0.1423
     41 C          12.7090    1.1771   -1.2098 C.ar    1  LIG1        0.0596
     42 C          14.1073    1.1266   -1.1686 C.ar    1  LIG1       -0.0420
     43 C          11.9671    0.7152   -0.1064 C.ar    1  LIG1        0.0030
     44 C          14.7685    0.6247   -0.0674 C.ar    1  LIG1       -0.0398
     45 H          14.6729    1.4842   -2.0217 H       1  LIG1        0.0631
     46 C          12.6429    0.2007    0.9927 C.ar    1  LIG1       -0.0320
     47 C          14.0439    0.1505    1.0371 C.ar    1  LIG1        0.0252
     48 H          12.0694   -0.1502    1.8451 H       1  LIG1        0.0642
     49 H          15.8533    0.5987   -0.0504 H       1  LIG1        0.0636
     50 N          11.5484    2.0540   -3.3521 N.1     1  LIG1       -0.1909
     51 C          12.0569    1.6678   -2.3867 C.1     1  LIG1        0.0998
     52 N          14.6904   -0.3118    2.1551 N.pl3   1  LIG1       -0.3579
     53 H          14.1648   -0.8412    2.8311 H       1  LIG1        0.1423
     54 H          15.6656   -0.5507    2.0826 H       1  LIG1        0.1423
@<TRIPOS>BOND
     1    50    51    3
     2    26    25    1
     3    51    41    1
     4    27    25    1
     5    25    21    1
     6    45    42    1
     7    22    20    1
     8    41    42   ar
     9    41    43   ar
    10    42    44   ar
    11    21    20   ar
    12    21    18   ar
    13    20    17   ar
    14    40    38    1
    15    39    38    1
    16    12     7    1
    17    12    13    1
    18    12    14    1
    19    32    29    1
    20    36    37    3
    21    37    28    1
    22    29    28   ar
    23    29    31   ar
    24    43    31    1
    25    43    46   ar
    26    28    30   ar
    27    31    34   ar
    28    33    30   ar
    29    33    34   ar
    30    33    35    1
    31    30    18    1
    32    34    38    1
    33    18    16   ar
    34    44    49    1
    35    44    47   ar
    36     8     6    1
    37     7     6   ar
    38     7     4   ar
    39     6     3   ar
    40    17     4    1
    41    17    15   ar
    42     4     2   ar
    43     2     1   ar
    44     2     5    1
    45     3     1   ar
    46     3     9    1
    47     1    11    1
    48    11    10    3
    49    46    47   ar
    50    46    48    1
    51    16    15   ar
    52    16    19    1
    53    47    52    1
    54    15    24    1
    55    54    52    1
    56    52    53    1
    57    24    23    3
