@<TRIPOS>MOLECULE
mol_data/opt/cam/geoms/mol2/4dh4dh-.out
 28 29 0 0 0
SMALL
GASTEIGER

@<TRIPOS>ATOM
      1 C          -0.0221    0.2230    0.6069 C.ar    1  LIG1        0.0525
      2 C           1.3731    0.2416    0.6103 C.ar    1  LIG1       -0.0348
      3 C          -0.7108    1.2500   -0.0467 C.ar    1  LIG1       -0.0426
      4 C           2.0897    1.2536   -0.0154 C.ar    1  LIG1        0.0053
      5 H           1.9149   -0.5430    1.1269 H       1  LIG1        0.0637
      6 C          -0.0141    2.2541   -0.6837 C.ar    1  LIG1       -0.0392
      7 C           1.3896    2.2776   -0.6915 C.ar    1  LIG1        0.0325
      8 H          -0.5536    3.0403   -1.2023 H       1  LIG1        0.0636
      9 H          -1.7949    1.2516   -0.0527 H       1  LIG1        0.0631
     10 N          -1.3072   -1.6892    1.7878 N.1     1  LIG1       -0.1909
     11 C          -0.7328   -0.8323    1.2627 C.1     1  LIG1        0.0992
     12 N           2.0468    3.2505   -1.4091 N.pl3   1  LIG1       -0.3575
     13 H           3.0200    3.4047   -1.1995 H       1  LIG1        0.1423
     14 H           1.5336    4.1009   -1.5821 H       1  LIG1        0.1423
     15 C           4.3465    2.1969    0.6614 C.ar    1  LIG1        0.0596
     16 C           5.7418    2.0820    0.6859 C.ar    1  LIG1       -0.0420
     17 C           3.5782    1.2046    0.0181 C.ar    1  LIG1        0.0030
     18 C           6.3785    1.0109    0.0956 C.ar    1  LIG1       -0.0398
     19 H           6.3240    2.8472    1.1871 H       1  LIG1        0.0631
     20 C           4.2325    0.1318   -0.5701 C.ar    1  LIG1       -0.0320
     21 C           5.6292    0.0105   -0.5416 C.ar    1  LIG1        0.0252
     22 H           3.6418   -0.6297   -1.0696 H       1  LIG1        0.0642
     23 H           7.4606    0.9351    0.1295 H       1  LIG1        0.0636
     24 N           3.2507    4.2340    1.8259 N.1     1  LIG1       -0.1909
     25 C           3.7293    3.3122    1.3142 C.1     1  LIG1        0.0998
     26 N           6.2455   -1.0832   -1.0967 N.pl3   1  LIG1       -0.3579
     27 H           5.7191   -1.6475   -1.7436 H       1  LIG1        0.1423
     28 H           7.2330   -1.0275   -1.2856 H       1  LIG1        0.1423
@<TRIPOS>BOND
     1    27    26    1
     2    14    12    1
     3    12    13    1
     4    12     7    1
     5    28    26    1
     6     8     6    1
     7    26    21    1
     8    22    20    1
     9     7     6   ar
    10     7     4   ar
    11     6     3   ar
    12    20    21   ar
    13    20    17   ar
    14    21    18   ar
    15     9     3    1
    16     3     1   ar
    17     4    17    1
    18     4     2   ar
    19    17    15   ar
    20    18    23    1
    21    18    16   ar
    22     1     2   ar
    23     1    11    1
    24     2     5    1
    25    15    16   ar
    26    15    25    1
    27    16    19    1
    28    11    10    3
    29    25    24    3
