@<TRIPOS>MOLECULE
mol_data/opt/cam/geoms/mol2/4dh4ai12fa6le.out
 51 54 0 0 0
SMALL
GASTEIGER

@<TRIPOS>ATOM
      1 C          -0.1909   -0.0950    0.4105 C.ar    1  LIG1        0.0525
      2 C           1.1936    0.0772    0.4715 C.ar    1  LIG1       -0.0349
      3 C          -0.9435    0.7444   -0.4153 C.ar    1  LIG1       -0.0426
      4 C           1.8448    1.0597   -0.2640 C.ar    1  LIG1        0.0040
      5 H           1.7797   -0.5640    1.1208 H       1  LIG1        0.0637
      6 C          -0.3149    1.7215   -1.1595 C.ar    1  LIG1       -0.0392
      7 C           1.0755    1.8976   -1.1051 C.ar    1  LIG1        0.0324
      8 H          -0.9013    2.3683   -1.8049 H       1  LIG1        0.0636
      9 H          -2.0194    0.6234   -0.4711 H       1  LIG1        0.0631
     10 N          -1.3457   -1.9409    1.8117 N.1     1  LIG1       -0.1909
     11 C          -0.8285   -1.1152    1.1866 C.1     1  LIG1        0.0992
     12 N           1.6639    2.8953   -1.8543 N.pl3   1  LIG1       -0.3575
     13 H           2.6546    2.8091   -2.0242 H       1  LIG1        0.1423
     14 H           1.1345    3.2331   -2.6428 H       1  LIG1        0.1423
     15 C           4.1390    0.0607   -0.3150 C.ar    1  LIG1       -0.0533
     16 C           5.5128    0.1704   -0.1973 C.ar    1  LIG1       -0.0501
     17 C           3.3231    1.1834   -0.1707 C.ar    1  LIG1       -0.0158
     18 C           6.1302    1.3997    0.0745 C.ar    1  LIG1        0.0239
     19 H           6.1297   -0.7106   -0.3215 H       1  LIG1        0.0625
     20 C           3.9418    2.4056    0.1040 C.ar    1  LIG1       -0.0504
     21 C           5.3218    2.5457    0.2349 C.ar    1  LIG1       -0.0391
     22 H           3.3212    3.2847    0.2488 H       1  LIG1        0.0626
     23 H           3.6937   -0.9032   -0.5393 H       1  LIG1        0.0624
     24 C           5.8745    3.9091    0.5646 C.3     1  LIG1       -0.0390
     25 H           5.0590    4.5926    0.8105 H       1  LIG1        0.0278
     26 H           6.4391    4.3313   -0.2697 H       1  LIG1        0.0278
     27 H           6.5672    3.8728    1.4077 H       1  LIG1        0.0278
     28 C           7.5840    1.4168    0.1891 C.ar    1  LIG1        0.1771
     29 C           8.5103    0.4282    0.4071 C.ar    1  LIG1        0.1632
     30 C           9.7947    1.0349    0.4092 C.ar    1  LIG1        0.0266
     31 C           9.5822    2.3649    0.1882 C.ar    1  LIG1        0.1445
     32 O           8.2601    2.6002    0.0510 O.2     1  LIG1       -0.4509
     33 O           8.2171   -0.8851    0.5940 O.3     1  LIG1       -0.5032
     34 H           9.0216   -1.3583    0.8323 H       1  LIG1        0.2923
     35 H          10.7470    0.5539    0.5811 H       1  LIG1        0.0692
     36 C          10.2628    4.7864    0.5016 C.ar    1  LIG1        0.2255
     37 C          10.5236    3.4713    0.0442 C.ar    1  LIG1        0.0800
     38 C          11.7643    3.2541   -0.5312 C.ar    1  LIG1       -0.0291
     39 C          12.6976    4.2937   -0.6410 C.ar    1  LIG1        0.0437
     40 C          12.3127    5.5432   -0.1652 C.ar    1  LIG1        0.0468
     41 N          11.1256    5.7801    0.3908 N.ar    1  LIG1       -0.2195
     42 H          12.0109    2.2709   -0.9160 H       1  LIG1        0.0639
     43 H          12.9933    6.3867   -0.2366 H       1  LIG1        0.0843
     44 O           9.0811    5.0170    1.0884 O.3     1  LIG1       -0.4792
     45 C           8.8364    6.3368    1.5659 C.3     1  LIG1        0.0804
     46 H           7.8379    6.3047    1.9996 H       1  LIG1        0.0660
     47 H           9.5724    6.6228    2.3202 H       1  LIG1        0.0660
     48 H           8.8753    7.0615    0.7501 H       1  LIG1        0.0660
     49 C          13.9830    4.0890   -1.2306 C.1     1  LIG1       -0.0681
     50 C          15.0665    3.9167   -1.7259 C.1     1  LIG1       -0.1139
     51 H          16.0258    3.7670   -2.1652 H       1  LIG1        0.1232
@<TRIPOS>BOND
     1    14    12    1
     2    51    50    1
     3    13    12    1
     4    12     7    1
     5     8     6    1
     6    50    49    3
     7    49    39    1
     8     6     7   ar
     9     6     3   ar
    10     7     4   ar
    11    42    38    1
    12    39    38   ar
    13    39    40   ar
    14    23    15    1
    15    38    37   ar
    16     9     3    1
    17     3     1   ar
    18    19    16    1
    19    15    16   ar
    20    15    17   ar
    21    26    24    1
    22     4    17    1
    23     4     2   ar
    24    43    40    1
    25    16    18   ar
    26    17    20   ar
    27    40    41   ar
    28    37    31    1
    29    37    36   ar
    30    32    31   ar
    31    32    28   ar
    32    18    28    1
    33    18    21   ar
    34    20    21   ar
    35    20    22    1
    36    31    30   ar
    37    28    29   ar
    38    21    24    1
    39    41    36   ar
    40    29    30   ar
    41    29    33    1
    42    30    35    1
    43     1     2   ar
    44     1    11    1
    45     2     5    1
    46    36    44    1
    47    24    25    1
    48    24    27    1
    49    33    34    1
    50    48    45    1
    51    44    45    1
    52    11    10    3
    53    45    46    1
    54    45    47    1
