@<TRIPOS>MOLECULE
mol_data/opt/cam/geoms/mol2/4dh4dh.out
 28 29 0 0 0
SMALL
GASTEIGER

@<TRIPOS>ATOM
      1 C           0.0074    0.2116    0.6943 C.ar    1  LIG1        0.0525
      2 C           1.3995    0.2048    0.6062 C.ar    1  LIG1       -0.0348
      3 C          -0.7065    1.2576    0.1017 C.ar    1  LIG1       -0.0426
      4 C           2.0894    1.2183   -0.0473 C.ar    1  LIG1        0.0053
      5 H           1.9565   -0.6051    1.0633 H       1  LIG1        0.0637
      6 C          -0.0363    2.2651   -0.5600 C.ar    1  LIG1       -0.0392
      7 C           1.3631    2.2690   -0.6481 C.ar    1  LIG1        0.0325
      8 H          -0.5954    3.0727   -1.0223 H       1  LIG1        0.0636
      9 H          -1.7888    1.2714    0.1619 H       1  LIG1        0.0631
     10 N          -1.2444   -1.6676    1.9618 N.1     1  LIG1       -0.1909
     11 C          -0.6813   -0.8325    1.3917 C.1     1  LIG1        0.0992
     12 N           2.0053    3.3107   -1.2890 N.pl3   1  LIG1       -0.3575
     13 H           2.9482    3.1344   -1.6010 H       1  LIG1        0.1423
     14 H           1.4487    3.8325   -1.9484 H       1  LIG1        0.1423
     15 C           4.2768    0.1221   -0.6874 C.ar    1  LIG1        0.0596
     16 C           5.6767    0.1217   -0.6744 C.ar    1  LIG1       -0.0420
     17 C           3.5779    1.1899   -0.0931 C.ar    1  LIG1        0.0030
     18 C           6.3845    1.1541   -0.0955 C.ar    1  LIG1       -0.0398
     19 H           6.2063   -0.7047   -1.1350 H       1  LIG1        0.0631
     20 C           4.3033    2.2287    0.4792 C.ar    1  LIG1       -0.0320
     21 C           5.7047    2.2305    0.4935 C.ar    1  LIG1        0.0252
     22 H           3.7655    3.0494    0.9435 H       1  LIG1        0.0642
     23 H           7.4696    1.1338   -0.0901 H       1  LIG1        0.0636
     24 N           3.0698   -1.8384   -1.8732 N.1     1  LIG1       -0.1909
     25 C           3.5908   -0.9566   -1.3339 C.1     1  LIG1        0.0998
     26 N           6.3956    3.2434    1.1145 N.pl3   1  LIG1       -0.3579
     27 H           7.3731    3.3520    0.8986 H       1  LIG1        0.1423
     28 H           5.9052    4.1007    1.3109 H       1  LIG1        0.1423
@<TRIPOS>BOND
     1    14    12    1
     2    24    25    3
     3    13    12    1
     4    25    15    1
     5    12     7    1
     6    19    16    1
     7     8     6    1
     8    15    16   ar
     9    15    17   ar
    10    16    18   ar
    11     7     6   ar
    12     7     4   ar
    13     6     3   ar
    14    18    23    1
    15    18    21   ar
    16    17     4    1
    17    17    20   ar
    18     4     2   ar
    19     3     9    1
    20     3     1   ar
    21    20    21   ar
    22    20    22    1
    23    21    26    1
    24     2     1   ar
    25     2     5    1
    26     1    11    1
    27    27    26    1
    28    26    28    1
    29    11    10    3
