@<TRIPOS>MOLECULE
mol_data/opt/cam/geoms/mol2/4dh4dh4dh-4dh-.out
 54 57 0 0 0
SMALL
GASTEIGER

@<TRIPOS>ATOM
      1 C          -0.2118    0.6819    1.1134 C.ar    1  LIG1        0.0525
      2 C           1.1810    0.6569    1.0441 C.ar    1  LIG1       -0.0348
      3 C          -0.9332    1.2824    0.0771 C.ar    1  LIG1       -0.0426
      4 C           1.8651    1.2226   -0.0253 C.ar    1  LIG1        0.0053
      5 H           1.7433    0.1928    1.8463 H       1  LIG1        0.0637
      6 C          -0.2698    1.8403   -0.9953 C.ar    1  LIG1       -0.0392
      7 C           1.1306    1.8252   -1.0705 C.ar    1  LIG1        0.0325
      8 H          -0.8348    2.3029   -1.7986 H       1  LIG1        0.0636
      9 H          -2.0162    1.3054    0.1193 H       1  LIG1        0.0631
     10 N          -1.4565   -0.3457    3.1379 N.1     1  LIG1       -0.1909
     11 C          -0.8950    0.1084    2.2336 C.1     1  LIG1        0.0992
     12 N           1.7608    2.4232   -2.1425 N.pl3   1  LIG1       -0.3575
     13 H           2.7153    2.1520   -2.3219 H       1  LIG1        0.1423
     14 H           1.2039    2.5503   -2.9730 H       1  LIG1        0.1423
     15 C           4.0705   -0.0162    0.0185 C.ar    1  LIG1        0.0602
     16 C           5.4663    0.0136    0.0393 C.ar    1  LIG1       -0.0342
     17 C           3.3531    1.1942   -0.0478 C.ar    1  LIG1        0.0030
     18 C           6.1815    1.2002   -0.0118 C.ar    1  LIG1        0.0053
     19 H           6.0092   -0.9228    0.1087 H       1  LIG1        0.0637
     20 C           4.0692    2.3804   -0.1213 C.ar    1  LIG1       -0.0314
     21 C           5.4716    2.4178   -0.1163 C.ar    1  LIG1        0.0330
     22 H           3.5242    3.3170   -0.1841 H       1  LIG1        0.0643
     23 N           2.9159   -2.3337    0.0413 N.1     1  LIG1       -0.1908
     24 C           3.4113   -1.2875    0.0384 C.1     1  LIG1        0.0998
     25 N           6.1153    3.6187   -0.2741 N.pl3   1  LIG1       -0.3575
     26 H           7.0958    3.6687   -0.0480 H       1  LIG1        0.1423
     27 H           5.5967    4.4502   -0.0388 H       1  LIG1        0.1423
     28 C           8.4171    1.7398    1.0536 C.ar    1  LIG1        0.0602
     29 C           9.8109    1.6656    1.0263 C.ar    1  LIG1       -0.0342
     30 C           7.6685    1.1553    0.0123 C.ar    1  LIG1        0.0030
     31 C          10.4919    1.0130    0.0099 C.ar    1  LIG1        0.0053
     32 H          10.3751    2.1231    1.8311 H       1  LIG1        0.0637
     33 C           8.3498    0.5010   -1.0016 C.ar    1  LIG1       -0.0314
     34 C           9.7484    0.4087   -1.0266 C.ar    1  LIG1        0.0330
     35 H           7.7796    0.0565   -1.8114 H       1  LIG1        0.0643
     36 N           7.2696    2.9227    3.0515 N.1     1  LIG1       -0.1908
     37 C           7.7761    2.3861    2.1598 C.1     1  LIG1        0.0998
     38 N          10.3685   -0.2795   -2.0437 N.pl3   1  LIG1       -0.3575
     39 H           9.8315   -0.4338   -2.8825 H       1  LIG1        0.1423
     40 H          11.3470   -0.0920   -2.1979 H       1  LIG1        0.1423
     41 C          12.7435    2.1487   -0.0220 C.ar    1  LIG1        0.0596
     42 C          14.1402    2.0685    0.0231 C.ar    1  LIG1       -0.0420
     43 C          11.9797    0.9666    0.0233 C.ar    1  LIG1        0.0030
     44 C          14.7808    0.8501    0.1043 C.ar    1  LIG1       -0.0398
     45 H          14.7216    2.9830   -0.0127 H       1  LIG1        0.0631
     46 C          12.6362   -0.2559    0.0958 C.ar    1  LIG1       -0.0320
     47 C          14.0355   -0.3385    0.1431 C.ar    1  LIG1        0.0252
     48 H          12.0476   -1.1670    0.1404 H       1  LIG1        0.0642
     49 H          15.8645    0.8075    0.1439 H       1  LIG1        0.0636
     50 N          11.6316    4.4769   -0.2444 N.1     1  LIG1       -0.1909
     51 C          12.1184    3.4318   -0.1407 C.1     1  LIG1        0.0998
     52 N          14.6585   -1.5538    0.2692 N.pl3   1  LIG1       -0.3579
     53 H          14.1299   -2.3896    0.0814 H       1  LIG1        0.1423
     54 H          15.6450   -1.6124    0.0786 H       1  LIG1        0.1423
@<TRIPOS>BOND
     1    14    12    1
     2    39    38    1
     3    13    12    1
     4    40    38    1
     5    12     7    1
     6    38    34    1
     7    35    33    1
     8     8     6    1
     9     7     6   ar
    10     7     4   ar
    11    34    33   ar
    12    34    31   ar
    13    33    30   ar
    14     6     3   ar
    15    25    21    1
    16    25    26    1
    17    25    27    1
    18    50    51    3
    19    22    20    1
    20    51    41    1
    21    20    21   ar
    22    20    17   ar
    23    21    18   ar
    24    17     4    1
    25    17    15   ar
    26     4     2   ar
    27    41    42   ar
    28    41    43   ar
    29    45    42    1
    30    18    30    1
    31    18    16   ar
    32    31    43    1
    33    31    29   ar
    34    30    28   ar
    35    15    24    1
    36    15    16   ar
    37    42    44   ar
    38    43    46   ar
    39    24    23    3
    40    16    19    1
    41     3     9    1
    42     3     1   ar
    43    54    52    1
    44    53    52    1
    45    46    48    1
    46    46    47   ar
    47    44    47   ar
    48    44    49    1
    49    47    52    1
    50    29    28   ar
    51    29    32    1
    52     2     1   ar
    53     2     5    1
    54    28    37    1
    55     1    11    1
    56    37    36    3
    57    11    10    3
