@<TRIPOS>MOLECULE
mol_data/opt/cam/geoms/mol2/4di6ae-13hh13li.out
 54 57 0 0 0
SMALL
GASTEIGER

@<TRIPOS>ATOM
      1 C          -0.0056    1.6494   -0.2028 C.ar    1  LIG1        0.0524
      2 C           1.3360    1.3557   -0.4428 C.ar    1  LIG1       -0.0363
      3 C          -0.3924    2.1417    1.0438 C.ar    1  LIG1       -0.0441
      4 C           2.3040    1.5438    0.5430 C.ar    1  LIG1       -0.0123
      5 H           1.6334    0.9888   -1.4188 H       1  LIG1        0.0636
      6 C           0.5667    2.3207    2.0259 C.ar    1  LIG1       -0.0570
      7 C           1.9142    2.0294    1.8061 C.ar    1  LIG1       -0.0426
      8 H           0.2629    2.6868    3.0016 H       1  LIG1        0.0621
      9 H          -1.4337    2.3725    1.2366 H       1  LIG1        0.0630
     10 N          -1.7684    1.2863   -2.0682 N.1     1  LIG1       -0.1909
     11 C          -0.9808    1.4488   -1.2367 C.1     1  LIG1        0.0992
     12 C           2.8971    2.2178    2.9323 C.3     1  LIG1       -0.0391
     13 H           2.3825    2.2040    3.8952 H       1  LIG1        0.0278
     14 H           3.4198    3.1764    2.8568 H       1  LIG1        0.0278
     15 H           3.6592    1.4362    2.9371 H       1  LIG1        0.0278
     16 C           4.7554    2.1298    0.3542 C.ar    1  LIG1        0.0361
     17 C           3.7138    1.2043    0.2235 C.ar    1  LIG1        0.0017
     18 C           4.0640   -0.0274   -0.3132 C.ar    1  LIG1       -0.0350
     19 C           5.3895   -0.3228   -0.6383 C.ar    1  LIG1        0.0527
     20 C           6.3871    0.6413   -0.3400 C.ar    1  LIG1        0.1043
     21 N           6.0230    1.8680    0.0965 N.ar    1  LIG1       -0.2516
     22 H           3.3008   -0.7734   -0.5104 H       1  LIG1        0.0637
     23 H           4.5362    3.1461    0.6757 H       1  LIG1        0.0836
     24 C           5.6427   -1.5280   -1.3606 C.1     1  LIG1       -0.0675
     25 C           5.7850   -2.5380   -2.0043 C.1     1  LIG1       -0.1138
     26 H           5.9074   -3.4129   -2.6007 H       1  LIG1        0.1232
     27 C           7.8094    0.4590   -0.4916 C.ar    1  LIG1        0.0894
     28 C           8.6919   -0.6281   -0.4469 C.ar    1  LIG1        0.0734
     29 C          10.0086   -0.1058   -0.5477 C.ar    1  LIG1        0.0734
     30 C           9.9101    1.2814   -0.6196 C.ar    1  LIG1        0.0897
     31 N           8.5979    1.5982   -0.5784 N.ar    1  LIG1       -0.3487
     32 H           8.2268    2.5362   -0.6079 H       1  LIG1        0.1661
     33 N           8.4617   -1.9639   -0.1989 N.pl3   1  LIG1       -0.3548
     34 H           7.6416   -2.3691   -0.6264 H       1  LIG1        0.1424
     35 H           9.3080   -2.5050   -0.3249 H       1  LIG1        0.1424
     36 N          11.1537   -0.9466   -0.5369 N.pl3   1  LIG1       -0.3548
     37 H          11.6663   -0.9828   -1.4096 H       1  LIG1        0.1424
     38 H          11.7802   -0.8075    0.2463 H       1  LIG1        0.1424
     39 C          10.9187    2.3087   -0.7124 C.ar    1  LIG1        0.1072
     40 C          10.7910    3.6835   -0.6635 C.ar    1  LIG1        0.1496
     41 C          12.0724    4.2767   -0.8236 C.ar    1  LIG1        0.0092
     42 C          12.9523    3.2295   -0.9653 C.ar    1  LIG1        0.0087
     43 N          12.2558    2.0534   -0.8969 N.ar    1  LIG1       -0.3563
     44 H          12.6397    1.1289   -0.9844 H       1  LIG1        0.1655
     45 H          14.0210    3.2389   -1.1179 H       1  LIG1        0.0811
     46 O           9.5916    4.3393   -0.5278 O.3     1  LIG1       -0.4927
     47 C           9.3700    4.8764    0.7710 C.3     1  LIG1        0.0789
     48 H           8.3885    5.3522    0.7510 H       1  LIG1        0.0660
     49 H           9.3769    4.0854    1.5288 H       1  LIG1        0.0660
     50 H          10.1279    5.6241    1.0276 H       1  LIG1        0.0660
     51 C          12.3793    5.7404   -0.8514 C.3     1  LIG1       -0.0348
     52 H          13.3489    5.9310   -1.3173 H       1  LIG1        0.0279
     53 H          12.4079    6.1774    0.1528 H       1  LIG1        0.0279
     54 H          11.6197    6.2839   -1.4199 H       1  LIG1        0.0279
@<TRIPOS>BOND
     1    26    25    1
     2    10    11    3
     3    25    24    3
     4    54    51    1
     5     5     2    1
     6    37    36    1
     7    24    19    1
     8    52    51    1
     9    11     1    1
    10    45    42    1
    11    44    43    1
    12    42    43   ar
    13    42    41   ar
    14    43    39   ar
    15    51    41    1
    16    51    53    1
    17    41    40   ar
    18    39    40   ar
    19    39    30    1
    20    40    46    1
    21    19    20   ar
    22    19    18   ar
    23    34    33    1
    24    30    31   ar
    25    30    29   ar
    26    32    31    1
    27    31    27   ar
    28    29    36    1
    29    29    28   ar
    30    36    38    1
    31    46    47    1
    32    22    18    1
    33    27    28   ar
    34    27    20    1
    35    28    33    1
    36     2     1   ar
    37     2     4   ar
    38    20    21   ar
    39    35    33    1
    40    18    17   ar
    41     1     3   ar
    42    21    16   ar
    43    17    16   ar
    44    17     4    1
    45    16    23    1
    46     4     7   ar
    47    48    47    1
    48    47    50    1
    49    47    49    1
    50     3     9    1
    51     3     6   ar
    52     7     6   ar
    53     7    12    1
    54     6     8    1
    55    14    12    1
    56    12    15    1
    57    12    13    1
