@<TRIPOS>MOLECULE
mol_data/opt/cam/geoms/mol2/4dl12aa6li-6de.out
 52 55 0 0 0
SMALL
GASTEIGER

@<TRIPOS>ATOM
      1 C           0.8118   -0.6557   -1.3750 C.ar    1  LIG1        0.0527
      2 C           1.9088   -0.2589   -0.6160 C.ar    1  LIG1       -0.0302
      3 C          -0.1374    0.2976   -1.7597 C.ar    1  LIG1       -0.0409
      4 C           2.0772    1.0643   -0.2028 C.ar    1  LIG1        0.0601
      5 H           2.6726   -0.9849   -0.3624 H       1  LIG1        0.0639
      6 C           0.0059    1.6057   -1.3475 C.ar    1  LIG1       -0.0180
      7 C           1.0855    2.0035   -0.5521 C.ar    1  LIG1        0.1308
      8 H          -0.7279    2.3598   -1.6061 H       1  LIG1        0.0655
      9 H          -0.9866    0.0016   -2.3649 H       1  LIG1        0.0631
     10 N           0.5632   -3.1293   -2.1030 N.1     1  LIG1       -0.1909
     11 C           0.6752   -2.0242   -1.7791 C.1     1  LIG1        0.0992
     12 O           1.0818    3.3062   -0.1978 O.3     1  LIG1       -0.4944
     13 C           1.4690    3.7014    1.1188 C.3     1  LIG1        0.0788
     14 H           0.7934    4.5107    1.4022 H       1  LIG1        0.0660
     15 H           1.3539    2.8776    1.8279 H       1  LIG1        0.0660
     16 H           2.4975    4.0612    1.1239 H       1  LIG1        0.0660
     17 C           3.3027    1.3936    0.5307 C.ar    1  LIG1        0.1392
     18 C           3.9654    0.7596    1.5381 C.ar    1  LIG1       -0.0151
     19 C           5.1453    1.5165    1.7836 C.ar    1  LIG1       -0.0151
     20 C           5.1258    2.5618    0.9079 C.ar    1  LIG1        0.1408
     21 O           4.0052    2.4903    0.1388 O.2     1  LIG1       -0.4545
     22 H           3.6341   -0.1266    2.0583 H       1  LIG1        0.0656
     23 H           5.8977    1.3287    2.5348 H       1  LIG1        0.0656
     24 C           5.7068    4.9498    0.2881 C.ar    1  LIG1        0.2260
     25 C           6.0800    3.6389    0.6668 C.ar    1  LIG1        0.0790
     26 C           7.4355    3.4274    0.8549 C.ar    1  LIG1       -0.0410
     27 C           8.3859    4.4377    0.6741 C.ar    1  LIG1       -0.0235
     28 C           7.8917    5.6737    0.2586 C.ar    1  LIG1        0.0805
     29 N           6.5830    5.9062    0.0785 N.ar    1  LIG1       -0.2120
     30 H           7.7701    2.4380    1.1522 H       1  LIG1        0.0630
     31 O           4.4012    5.2197    0.1573 O.3     1  LIG1       -0.4792
     32 C           4.0430    6.5666   -0.1560 C.3     1  LIG1        0.0804
     33 H           2.9545    6.5707   -0.1919 H       1  LIG1        0.0660
     34 H           4.4098    7.2549    0.6082 H       1  LIG1        0.0660
     35 H           4.4539    6.8604   -1.1240 H       1  LIG1        0.0660
     36 C           9.8401    4.1479    0.9438 C.3     1  LIG1       -0.0377
     37 H          10.3768    5.0320    1.2918 H       1  LIG1        0.0278
     38 H          10.3580    3.7775    0.0529 H       1  LIG1        0.0278
     39 H           9.9348    3.3771    1.7119 H       1  LIG1        0.0278
     40 C           8.4608    8.1245    0.4979 C.ar    1  LIG1        0.1492
     41 C           8.7604    6.8505   -0.0127 C.ar    1  LIG1        0.0377
     42 C           9.8833    6.7557   -0.8276 C.ar    1  LIG1       -0.0329
     43 C          10.6528    7.8857   -1.1007 C.ar    1  LIG1        0.0435
     44 C          10.2519    9.0997   -0.5286 C.ar    1  LIG1        0.0444
     45 N           9.1883    9.2168    0.2496 N.ar    1  LIG1       -0.2428
     46 H          10.1533    5.8059   -1.2731 H       1  LIG1        0.0638
     47 H          10.8227   10.0041   -0.7180 H       1  LIG1        0.0842
     48 N           6.4491    8.5540    2.0905 N.1     1  LIG1       -0.1893
     49 C           7.3303    8.3420    1.3736 C.1     1  LIG1        0.1198
     50 C          11.8062    7.8195   -1.9407 C.1     1  LIG1       -0.0681
     51 C          12.7789    7.7683   -2.6470 C.1     1  LIG1       -0.1139
     52 H          13.6402    7.7250   -3.2740 H       1  LIG1        0.1232
@<TRIPOS>BOND
     1    52    51    1
     2    51    50    3
     3     9     3    1
     4    10    11    3
     5    50    43    1
     6    11     1    1
     7     3     1   ar
     8     3     6   ar
     9     8     6    1
    10     1     2   ar
    11     6     7   ar
    12    46    42    1
    13    35    32    1
    14    43    42   ar
    15    43    44   ar
    16    42    41   ar
    17    47    44    1
    18     2     5    1
    19     2     4   ar
    20     7     4   ar
    21     7    12    1
    22    44    45   ar
    23     4    17    1
    24    12    13    1
    25    33    32    1
    26    32    31    1
    27    32    34    1
    28    41    28    1
    29    41    40   ar
    30    38    36    1
    31    29    28   ar
    32    29    24   ar
    33    21    17   ar
    34    21    20   ar
    35    31    24    1
    36    45    40   ar
    37    28    27   ar
    38    24    25   ar
    39    40    49    1
    40    17    18   ar
    41    25    26   ar
    42    25    20    1
    43    27    26   ar
    44    27    36    1
    45    26    30    1
    46    20    19   ar
    47    36    37    1
    48    36    39    1
    49    13    16    1
    50    13    14    1
    51    13    15    1
    52    49    48    3
    53    18    19   ar
    54    18    22    1
    55    19    23    1
