@<TRIPOS>MOLECULE
mol_data/opt/cam/geoms/mol2/4ea.out
 14 14 0 0 0
SMALL
GASTEIGER

@<TRIPOS>ATOM
      1 C           0.1137    0.0684    0.0003 C.ar    1  LIG1        0.0247
      2 C           1.5132    0.0670   -0.0000 C.ar    1  LIG1       -0.0463
      3 C          -0.5691    1.2901    0.0002 C.ar    1  LIG1       -0.0463
      4 C           2.2125    1.2652   -0.0004 C.ar    1  LIG1       -0.0606
      5 H           2.0415   -0.8798   -0.0000 H       1  LIG1        0.0630
      6 C           0.1369    2.4844   -0.0002 C.ar    1  LIG1       -0.0606
      7 C           1.5276    2.4757   -0.0005 C.ar    1  LIG1       -0.0617
      8 H          -0.4012    3.4266   -0.0002 H       1  LIG1        0.0618
      9 H           3.2975    1.2541   -0.0007 H       1  LIG1        0.0618
     10 H          -1.6533    1.2904    0.0005 H       1  LIG1        0.0630
     11 C          -0.6120   -1.1670    0.0007 C.1     1  LIG1       -0.0697
     12 C          -1.2217   -2.2051    0.0010 C.1     1  LIG1       -0.1139
     13 H          -1.7614   -3.1239    0.0014 H       1  LIG1        0.1232
     14 H           2.0772    3.4113   -0.0008 H       1  LIG1        0.0618
@<TRIPOS>BOND
     1    14     7    1
     2     9     4    1
     3     7     4   ar
     4     7     6   ar
     5     4     2   ar
     6     8     6    1
     7     6     3   ar
     8     2     5    1
     9     2     1   ar
    10     3     1   ar
    11     3    10    1
    12     1    11    1
    13    11    12    3
    14    12    13    1
