@<TRIPOS>MOLECULE
mol_data/opt/cam/geoms/mol2/4ea13dd-6aa-13fh-.out
 44 47 0 0 0
SMALL
GASTEIGER

@<TRIPOS>ATOM
      1 C          -0.1084    0.0908   -0.4662 C.ar    1  LIG1        0.0253
      2 C           1.2773    0.0119   -0.3101 C.ar    1  LIG1       -0.0372
      3 C          -0.7708    1.2863   -0.1657 C.ar    1  LIG1       -0.0463
      4 C           2.0019    1.1116    0.1509 C.ar    1  LIG1        0.0008
      5 H           1.7827   -0.9137   -0.5566 H       1  LIG1        0.0636
      6 C          -0.0524    2.3800    0.2932 C.ar    1  LIG1       -0.0600
      7 C           1.3230    2.2964    0.4563 C.ar    1  LIG1       -0.0525
      8 H          -0.5689    3.3020    0.5375 H       1  LIG1        0.0618
      9 H          -1.8457    1.3440   -0.2915 H       1  LIG1        0.0630
     10 C          -0.8429   -1.0423   -0.9432 C.1     1  LIG1       -0.0696
     11 C          -1.4622   -1.9925   -1.3446 C.1     1  LIG1       -0.1139
     12 H          -2.0049   -2.8397   -1.6964 H       1  LIG1        0.1232
     13 H           1.8666    3.1471    0.8554 H       1  LIG1        0.0624
     14 C           3.4570    1.0376    0.3051 C.ar    1  LIG1        0.0658
     15 C           4.3017   -0.0090    0.6259 C.ar    1  LIG1        0.0949
     16 C           5.6411    0.5032    0.6392 C.ar    1  LIG1        0.0949
     17 C           5.5785    1.8499    0.3237 C.ar    1  LIG1        0.0672
     18 N           4.2528    2.1404    0.1391 N.ar    1  LIG1       -0.3521
     19 H           3.9191    3.0173   -0.2297 H       1  LIG1        0.1660
     20 N           3.6029   -2.4297    1.1681 N.1     1  LIG1       -0.1908
     21 C           3.9174   -1.3416    0.9302 C.1     1  LIG1        0.1026
     22 N           7.7753   -0.8266    1.2023 N.1     1  LIG1       -0.1908
     23 C           6.8130   -0.2322    0.9562 C.1     1  LIG1        0.1026
     24 C           6.3386    4.2102    0.4537 C.ar    1  LIG1        0.0374
     25 C           6.6159    2.8676    0.1892 C.ar    1  LIG1        0.0177
     26 C           7.9252    2.5572   -0.2073 C.ar    1  LIG1       -0.0491
     27 C           8.8563    3.5648   -0.3275 C.ar    1  LIG1       -0.0335
     28 C           8.4680    4.8874   -0.0577 C.ar    1  LIG1        0.0907
     29 N           7.2177    5.1946    0.3319 N.ar    1  LIG1       -0.2527
     30 H           8.2036    1.5317   -0.4217 H       1  LIG1        0.0625
     31 H           5.3511    4.5046    0.8073 H       1  LIG1        0.0836
     32 H           9.8748    3.3591   -0.6332 H       1  LIG1        0.0640
     33 C           9.3851    5.9944   -0.1768 C.ar    1  LIG1        0.1088
     34 C          10.7141    6.0870   -0.5487 C.ar    1  LIG1        0.1643
     35 C          11.1050    7.4438   -0.4798 C.ar    1  LIG1        0.0849
     36 C           9.9968    8.1590   -0.0631 C.ar    1  LIG1        0.0267
     37 N           8.9782    7.2831    0.1125 N.ar    1  LIG1       -0.3549
     38 H           8.0366    7.4744    0.4167 H       1  LIG1        0.1655
     39 H           9.8737    9.2168    0.1159 H       1  LIG1        0.0827
     40 O          11.5384    5.0859   -0.9229 O.3     1  LIG1       -0.5031
     41 H          12.3890    5.5211   -1.1083 H       1  LIG1        0.2923
     42 N          12.4351    7.8205   -0.8138 N.pl3   1  LIG1       -0.3540
     43 H          12.4768    8.4586   -1.6004 H       1  LIG1        0.1425
     44 H          12.9312    8.2407   -0.0358 H       1  LIG1        0.1425
@<TRIPOS>BOND
     1    12    11    1
     2    43    42    1
     3    11    10    3
     4    41    40    1
     5    10     1    1
     6    40    34    1
     7    42    35    1
     8    42    44    1
     9    32    27    1
    10     5     2    1
    11    34    35   ar
    12    34    33   ar
    13    35    36   ar
    14     1     2   ar
    15     1     3   ar
    16    30    26    1
    17    27    26   ar
    18    27    28   ar
    19     2     4   ar
    20     9     3    1
    21    19    18    1
    22    26    25   ar
    23    33    28    1
    24    33    37   ar
    25     3     6   ar
    26    36    37   ar
    27    36    39    1
    28    28    29   ar
    29    37    38    1
    30    18    14   ar
    31    18    17   ar
    32     4    14    1
    33     4     7   ar
    34    25    17    1
    35    25    24   ar
    36     6     7   ar
    37     6     8    1
    38    14    15   ar
    39    17    16   ar
    40    29    24   ar
    41    24    31    1
    42     7    13    1
    43    15    16   ar
    44    15    21    1
    45    16    23    1
    46    21    20    3
    47    23    22    3
