@<TRIPOS>MOLECULE
mol_data/opt/cam/geoms/mol2/4ea13li6fl13lf-.out
 56 59 0 0 0
SMALL
GASTEIGER

@<TRIPOS>ATOM
      1 C          -0.3521    0.0504   -0.9615 C.ar    1  LIG1        0.0253
      2 C           1.0060   -0.0112   -0.6453 C.ar    1  LIG1       -0.0371
      3 C          -1.0200    1.2803   -0.9227 C.ar    1  LIG1       -0.0463
      4 C           1.7078    1.1416   -0.2794 C.ar    1  LIG1        0.0031
      5 H           1.5267   -0.9600   -0.6897 H       1  LIG1        0.0636
      6 C          -0.3272    2.4257   -0.5618 C.ar    1  LIG1       -0.0600
      7 C           1.0209    2.3609   -0.2369 C.ar    1  LIG1       -0.0524
      8 H          -0.8438    3.3790   -0.5226 H       1  LIG1        0.0618
      9 H          -2.0737    1.3240   -1.1723 H       1  LIG1        0.0630
     10 C          -1.0570   -1.1412   -1.3328 C.1     1  LIG1       -0.0696
     11 C          -1.6530   -2.1397   -1.6438 C.1     1  LIG1       -0.1139
     12 H          -2.1781   -3.0246   -1.9206 H       1  LIG1        0.1232
     13 H           1.5367    3.2635    0.0760 H       1  LIG1        0.0624
     14 C           3.1314    1.0658    0.0377 C.ar    1  LIG1        0.0895
     15 C           3.9293    0.0141    0.4377 C.ar    1  LIG1        0.1487
     16 C           5.2682    0.4675    0.5998 C.ar    1  LIG1        0.0173
     17 C           5.2654    1.8089    0.2791 C.ar    1  LIG1        0.0587
     18 N           3.9583    2.1718   -0.0137 N.ar    1  LIG1       -0.3509
     19 H           3.7410    2.9850   -0.5712 H       1  LIG1        0.1660
     20 O           3.5269   -1.2728    0.6690 O.3     1  LIG1       -0.4927
     21 C           2.9152   -1.4739    1.9377 C.3     1  LIG1        0.0789
     22 H           2.6989   -2.5400    2.0164 H       1  LIG1        0.0660
     23 H           3.5871   -1.1780    2.7511 H       1  LIG1        0.0660
     24 H           1.9814   -0.9079    2.0221 H       1  LIG1        0.0660
     25 C           6.4111   -0.3775    1.0639 C.3     1  LIG1       -0.0342
     26 H           7.1961    0.2301    1.5192 H       1  LIG1        0.0279
     27 H           6.8592   -0.9425    0.2395 H       1  LIG1        0.0279
     28 H           6.0746   -1.1118    1.7996 H       1  LIG1        0.0279
     29 C           6.1853    4.1035    0.7186 C.ar    1  LIG1        0.2225
     30 C           6.3474    2.7935    0.2377 C.ar    1  LIG1        0.0635
     31 C           7.6015    2.4806   -0.2917 C.ar    1  LIG1       -0.0035
     32 C           8.6184    3.4234   -0.3234 C.ar    1  LIG1        0.1484
     33 C           8.3630    4.6966    0.2204 C.ar    1  LIG1        0.1361
     34 N           7.1492    4.9985    0.7023 N.ar    1  LIG1       -0.2072
     35 H           7.7512    1.4965   -0.7159 H       1  LIG1        0.0663
     36 O           5.0084    4.5434    1.2373 O.3     1  LIG1       -0.4919
     37 H           4.4372    3.7793    1.3995 H       1  LIG1        0.2937
     38 O           9.8303    3.2136   -0.8939 O.3     1  LIG1       -0.4929
     39 C          10.1508    1.9103   -1.3223 C.3     1  LIG1        0.0789
     40 H          11.1844    1.9503   -1.6651 H       1  LIG1        0.0660
     41 H          10.0720    1.1860   -0.5029 H       1  LIG1        0.0660
     42 H           9.5111    1.5842   -2.1518 H       1  LIG1        0.0660
     43 C           9.3207    5.7991    0.2707 C.ar    1  LIG1        0.1146
     44 C          10.7050    5.9385    0.2383 C.ar    1  LIG1        0.1883
     45 C          10.9923    7.3181    0.3988 C.ar    1  LIG1        0.1769
     46 C           9.7986    7.9852    0.5450 C.ar    1  LIG1        0.0480
     47 N           8.8036    7.0544    0.4672 N.ar    1  LIG1       -0.3533
     48 H           7.8200    7.1790    0.6518 H       1  LIG1        0.1656
     49 H           9.5916    9.0340    0.6940 H       1  LIG1        0.0845
     50 O          11.6468    4.9600    0.1766 O.3     1  LIG1       -0.4895
     51 C          12.4045    4.9599   -1.0228 C.3     1  LIG1        0.0791
     52 H          13.1578    4.1768   -0.9164 H       1  LIG1        0.0660
     53 H          11.7635    4.7353   -1.8827 H       1  LIG1        0.0660
     54 H          12.9053    5.9210   -1.1764 H       1  LIG1        0.0660
     55 O          12.2682    7.8054    0.3925 O.3     1  LIG1       -0.5023
     56 H          12.2453    8.7469    0.5950 H       1  LIG1        0.2923
@<TRIPOS>BOND
     1    42    39    1
     2    12    11    1
     3    53    51    1
     4    40    39    1
     5    11    10    3
     6    10     1    1
     7    39    38    1
     8    39    41    1
     9    54    51    1
    10     9     3    1
    11    51    52    1
    12    51    50    1
    13     1     3   ar
    14     1     2   ar
    15     3     6   ar
    16    38    32    1
    17    35    31    1
    18     5     2    1
    19     2     4   ar
    20    19    18    1
    21     6     8    1
    22     6     7   ar
    23    32    31   ar
    24    32    33   ar
    25    31    30   ar
    26     4     7   ar
    27     4    14    1
    28     7    13    1
    29    18    14   ar
    30    18    17   ar
    31    14    15   ar
    32    50    44    1
    33    33    43    1
    34    33    34   ar
    35    30    17    1
    36    30    29   ar
    37    44    43   ar
    38    44    45   ar
    39    27    25    1
    40    43    47   ar
    41    17    16   ar
    42    55    45    1
    43    55    56    1
    44    45    46   ar
    45    15    16   ar
    46    15    20    1
    47    47    46   ar
    48    47    48    1
    49    46    49    1
    50    16    25    1
    51    20    21    1
    52    34    29   ar
    53    29    36    1
    54    25    26    1
    55    25    28    1
    56    36    37    1
    57    21    22    1
    58    21    24    1
    59    21    23    1
