@<TRIPOS>MOLECULE
mol_data/opt/cam/geoms/mol2/4ea13ff12ih-12lh-.out
 49 52 0 0 0
SMALL
GASTEIGER

@<TRIPOS>ATOM
      1 C          -0.1644    0.0152    0.4366 C.ar    1  LIG1        0.0253
      2 C           1.2185   -0.0651    0.2679 C.ar    1  LIG1       -0.0371
      3 C          -0.8025    1.2603    0.3926 C.ar    1  LIG1       -0.0463
      4 C           1.9824    1.0871    0.0495 C.ar    1  LIG1        0.0032
      5 H           1.7049   -1.0313    0.3058 H       1  LIG1        0.0636
      6 C          -0.0504    2.4038    0.1723 C.ar    1  LIG1       -0.0600
      7 C           1.3238    2.3224   -0.0023 C.ar    1  LIG1       -0.0524
      8 H          -0.5395    3.3714    0.1282 H       1  LIG1        0.0618
      9 H          -1.8765    1.3171    0.5268 H       1  LIG1        0.0630
     10 C          -0.9289   -1.1770    0.6604 C.1     1  LIG1       -0.0696
     11 C          -1.5760   -2.1745    0.8487 C.1     1  LIG1       -0.1139
     12 H          -2.1452   -3.0595    1.0152 H       1  LIG1        0.1232
     13 H           1.8804    3.2327   -0.2016 H       1  LIG1        0.0624
     14 C           3.4267    0.9887   -0.1160 C.ar    1  LIG1        0.0928
     15 C           4.2455   -0.1045   -0.3415 C.ar    1  LIG1        0.1849
     16 C           5.5732    0.3499   -0.4530 C.ar    1  LIG1        0.1879
     17 C           5.5744    1.7232   -0.2720 C.ar    1  LIG1        0.1286
     18 N           4.2654    2.0839   -0.0923 N.ar    1  LIG1       -0.3459
     19 H           3.9925    3.0321    0.1053 H       1  LIG1        0.1662
     20 O           3.8634   -1.4015   -0.4693 O.3     1  LIG1       -0.5019
     21 H           4.6726   -1.9145   -0.6041 H       1  LIG1        0.2924
     22 O           6.6149   -0.5231   -0.6831 O.3     1  LIG1       -0.5018
     23 H           7.0258   -0.3040   -1.5289 H       1  LIG1        0.2924
     24 C           6.6049    2.7338   -0.2649 C.ar    1  LIG1        0.1603
     25 C           7.9653    2.7404   -0.1240 C.ar    1  LIG1        0.0183
     26 C           8.3584    4.1183   -0.1907 C.ar    1  LIG1        0.0778
     27 C           7.2116    4.8518   -0.3493 C.ar    1  LIG1        0.1951
     28 O           6.1338    4.0042   -0.3928 O.2     1  LIG1       -0.4478
     29 C           8.9104    1.6084    0.1163 C.3     1  LIG1       -0.0343
     30 H           9.5035    1.7945    1.0175 H       1  LIG1        0.0279
     31 H           9.6190    1.4904   -0.7133 H       1  LIG1        0.0279
     32 H           8.3833    0.6630    0.2411 H       1  LIG1        0.0279
     33 N           9.6599    4.5700   -0.0319 N.pl3   1  LIG1       -0.3547
     34 H          10.3592    3.9673   -0.4413 H       1  LIG1        0.1424
     35 H           9.7902    5.5466   -0.2696 H       1  LIG1        0.1424
     36 C           6.9446    6.2589   -0.4674 C.ar    1  LIG1        0.2147
     37 C           7.7260    7.3758   -0.3508 C.ar    1  LIG1        0.1895
     38 C           6.8939    8.5119   -0.6101 C.ar    1  LIG1        0.1059
     39 C           5.6598    8.0073   -0.8633 C.ar    1  LIG1        0.1171
     40 O           5.6818    6.6381   -0.7790 O.2     1  LIG1       -0.4541
     41 H           4.7073    8.4530   -1.0967 H       1  LIG1        0.1050
     42 O           9.0670    7.4446   -0.0661 O.3     1  LIG1       -0.4896
     43 C           9.3347    7.7934    1.2963 C.3     1  LIG1        0.0791
     44 H          10.4167    7.8999    1.3846 H       1  LIG1        0.0660
     45 H           8.8466    8.7382    1.5523 H       1  LIG1        0.0660
     46 H           8.9879    7.0036    1.9692 H       1  LIG1        0.0660
     47 N           7.3459    9.8304   -0.5234 N.pl3   1  LIG1       -0.3527
     48 H           8.2952    9.9222   -0.8636 H       1  LIG1        0.1425
     49 H           6.7422   10.4981   -0.9835 H       1  LIG1        0.1425
@<TRIPOS>BOND
     1    23    22    1
     2    41    39    1
     3    49    47    1
     4    48    47    1
     5    39    40   ar
     6    39    38   ar
     7    40    36   ar
     8    31    29    1
     9    22    16    1
    10    38    47    1
    11    38    37   ar
    12    21    20    1
    13    20    15    1
    14    36    37   ar
    15    36    27    1
    16    16    15   ar
    17    16    17   ar
    18    34    33    1
    19    28    27   ar
    20    28    24   ar
    21    37    42    1
    22    27    26   ar
    23    15    14   ar
    24    17    24    1
    25    17    18   ar
    26    35    33    1
    27    24    25   ar
    28    13     7    1
    29    26    25   ar
    30    26    33    1
    31    25    29    1
    32    14    18   ar
    33    14     4    1
    34    18    19    1
    35    42    43    1
    36     7     4   ar
    37     7     6   ar
    38     4     2   ar
    39    29    32    1
    40    29    30    1
    41     8     6    1
    42     6     3   ar
    43     2     5    1
    44     2     1   ar
    45     3     1   ar
    46     3     9    1
    47     1    10    1
    48    10    11    3
    49    11    12    1
    50    43    44    1
    51    43    45    1
    52    43    46    1
