@<TRIPOS>MOLECULE
mol_data/opt/cam/geoms/mol2/4ea4ih-12ee-12al.out
 51 54 0 0 0
SMALL
GASTEIGER

@<TRIPOS>ATOM
      1 C          -0.1961    0.3098   -0.7546 C.ar    1  LIG1        0.0253
      2 C           1.2017    0.3129   -0.7472 C.ar    1  LIG1       -0.0386
      3 C          -0.8913    0.9593    0.2712 C.ar    1  LIG1       -0.0463
      4 C           1.9141    0.9541    0.2649 C.ar    1  LIG1       -0.0164
      5 H           1.7320   -0.1777   -1.5550 H       1  LIG1        0.0636
      6 C          -0.1889    1.6012    1.2796 C.ar    1  LIG1       -0.0600
      7 C           1.2006    1.6019    1.2771 C.ar    1  LIG1       -0.0539
      8 H          -0.7273    2.1029    2.0769 H       1  LIG1        0.0618
      9 H          -1.9754    0.9543    0.2661 H       1  LIG1        0.0630
     10 C          -0.9088   -0.3495   -1.8086 C.1     1  LIG1       -0.0696
     11 C          -1.5086   -0.9034   -2.6933 C.1     1  LIG1       -0.1139
     12 H          -2.0385   -1.3937   -3.4770 H       1  LIG1        0.1232
     13 H           1.7459    2.0973    2.0738 H       1  LIG1        0.0624
     14 C           4.1856   -0.1809    0.2077 C.ar    1  LIG1       -0.0420
     15 C           5.5628   -0.0287    0.2173 C.ar    1  LIG1       -0.0458
     16 C           3.4026    0.9882    0.2599 C.ar    1  LIG1       -0.0132
     17 C           6.2089    1.2125    0.2781 C.ar    1  LIG1        0.0394
     18 H           6.1788   -0.9196    0.1815 H       1  LIG1        0.0628
     19 C           4.0270    2.2272    0.3214 C.ar    1  LIG1       -0.0324
     20 C           5.4180    2.3839    0.3281 C.ar    1  LIG1        0.0360
     21 H           3.4102    3.1210    0.3526 H       1  LIG1        0.0642
     22 C           3.5927   -1.5675    0.1694 C.3     1  LIG1       -0.0391
     23 H           4.3264   -2.3019    0.5092 H       1  LIG1        0.0278
     24 H           3.2843   -1.8620   -0.8391 H       1  LIG1        0.0278
     25 H           2.7111   -1.6497    0.8092 H       1  LIG1        0.0278
     26 N           5.9455    3.6549    0.4422 N.pl3   1  LIG1       -0.3574
     27 H           6.8835    3.8069    0.1099 H       1  LIG1        0.1423
     28 H           5.3051    4.4090    0.2525 H       1  LIG1        0.1423
     29 C           7.6653    1.2392    0.3078 C.ar    1  LIG1        0.1541
     30 C           8.6307    0.3277    0.6650 C.ar    1  LIG1        0.0865
     31 C           9.9072    0.9684    0.4427 C.ar    1  LIG1        0.0894
     32 C           9.6256    2.2222   -0.0247 C.ar    1  LIG1        0.1872
     33 O           8.2823    2.3821   -0.1119 O.2     1  LIG1       -0.4491
     34 C           8.4677   -0.9809    1.1875 C.1     1  LIG1       -0.0646
     35 C           8.3665   -2.0945    1.6338 C.1     1  LIG1       -0.1138
     36 H           8.2762   -3.0764    2.0376 H       1  LIG1        0.1232
     37 C          11.1893    0.4128    0.6772 C.1     1  LIG1       -0.0645
     38 C          12.2788   -0.0601    0.8756 C.1     1  LIG1       -0.1138
     39 H          13.2346   -0.4944    1.0587 H       1  LIG1        0.1232
     40 C          10.4437    3.3392   -0.4085 C.ar    1  LIG1        0.1746
     41 C          11.7973    3.5039   -0.4879 C.ar    1  LIG1        0.0291
     42 C          11.9909    4.8493   -0.9257 C.ar    1  LIG1        0.1583
     43 C          10.7545    5.3986   -1.0791 C.ar    1  LIG1        0.1342
     44 O           9.8018    4.4773   -0.7631 O.2     1  LIG1       -0.4560
     45 H          10.4143    6.3719   -1.3877 H       1  LIG1        0.1068
     46 H          12.5371    2.7540   -0.2603 H       1  LIG1        0.0693
     47 O          13.1451    5.5112   -1.1622 O.3     1  LIG1       -0.4919
     48 C          14.3345    4.7773   -0.9499 C.3     1  LIG1        0.0789
     49 H          15.1579    5.4521   -1.1823 H       1  LIG1        0.0660
     50 H          14.4217    4.4479    0.0920 H       1  LIG1        0.0660
     51 H          14.3887    3.9027   -1.6086 H       1  LIG1        0.0660
@<TRIPOS>BOND
     1    12    11    1
     2    11    10    3
     3    10     1    1
     4    51    48    1
     5     5     2    1
     6    45    43    1
     7    49    48    1
     8    47    48    1
     9    47    42    1
    10    43    42   ar
    11    43    44   ar
    12    48    50    1
    13    42    41   ar
    14    24    22    1
    15    44    40   ar
    16     1     2   ar
    17     1     3   ar
    18     2     4   ar
    19    41    40   ar
    20    41    46    1
    21    40    32    1
    22    33    32   ar
    23    33    29   ar
    24    32    31   ar
    25    27    26    1
    26    22    14    1
    27    22    23    1
    28    22    25    1
    29    18    15    1
    30    14    15   ar
    31    14    16   ar
    32    15    17   ar
    33    28    26    1
    34    16     4    1
    35    16    19   ar
    36     4     7   ar
    37     9     3    1
    38     3     6   ar
    39    17    29    1
    40    17    20   ar
    41    29    30   ar
    42    19    20   ar
    43    19    21    1
    44    20    26    1
    45    31    30   ar
    46    31    37    1
    47    30    34    1
    48    37    38    3
    49    38    39    1
    50    34    35    3
    51     7     6   ar
    52     7    13    1
    53     6     8    1
    54    35    36    1
