@<TRIPOS>MOLECULE
mol_data/opt/cam/geoms/mol2/4ea4ea-4ea-4ea.out
 50 53 0 0 0
SMALL
GASTEIGER

@<TRIPOS>ATOM
      1 C          -0.2404    0.1069   -0.2626 C.ar    1  LIG1        0.0253
      2 C           1.1560    0.1176   -0.1991 C.ar    1  LIG1       -0.0386
      3 C          -0.9332    1.3205   -0.3131 C.ar    1  LIG1       -0.0463
      4 C           1.8669    1.3168   -0.1818 C.ar    1  LIG1       -0.0156
      5 H           1.6880   -0.8258   -0.1462 H       1  LIG1        0.0636
      6 C          -0.2306    2.5163   -0.2985 C.ar    1  LIG1       -0.0600
      7 C           1.1563    2.5190   -0.2322 C.ar    1  LIG1       -0.0539
      8 H          -0.7685    3.4574   -0.3442 H       1  LIG1        0.0618
      9 H          -2.0162    1.3138   -0.3633 H       1  LIG1        0.0630
     10 C          -0.9517   -1.1369   -0.2726 C.1     1  LIG1       -0.0696
     11 C          -1.5502   -2.1814   -0.2822 C.1     1  LIG1       -0.1139
     12 H          -2.0797   -3.1060   -0.2893 H       1  LIG1        0.1232
     13 H           1.6956    3.4587   -0.2279 H       1  LIG1        0.0624
     14 C           4.1144    2.0744    0.7362 C.ar    1  LIG1        0.0329
     15 C           5.5107    2.0082    0.7040 C.ar    1  LIG1       -0.0380
     16 C           3.3519    1.2922   -0.1547 C.ar    1  LIG1       -0.0024
     17 C           6.1830    1.1789   -0.1895 C.ar    1  LIG1       -0.0155
     18 H           6.0708    2.6107    1.4080 H       1  LIG1        0.0636
     19 C           4.0363    0.4597   -1.0409 C.ar    1  LIG1       -0.0523
     20 C           5.4206    0.3982   -1.0612 C.ar    1  LIG1       -0.0533
     21 H           3.4649   -0.1340   -1.7465 H       1  LIG1        0.0624
     22 C           3.5088    2.9196    1.7242 C.1     1  LIG1       -0.0690
     23 C           3.0486    3.6364    2.5749 C.1     1  LIG1       -0.1139
     24 H           2.6283    4.2623    3.3280 H       1  LIG1        0.1232
     25 H           5.9188   -0.2442   -1.7799 H       1  LIG1        0.0624
     26 C           8.5070    2.2096   -0.2112 C.ar    1  LIG1        0.0329
     27 C           9.8952    2.0379   -0.2230 C.ar    1  LIG1       -0.0380
     28 C           7.6641    1.0809   -0.1994 C.ar    1  LIG1       -0.0024
     29 C          10.4805    0.7749   -0.2234 C.ar    1  LIG1       -0.0155
     30 H          10.5235    2.9216   -0.2237 H       1  LIG1        0.0636
     31 C           8.2626   -0.1806   -0.2077 C.ar    1  LIG1       -0.0523
     32 C           9.6385   -0.3391   -0.2179 C.ar    1  LIG1       -0.0533
     33 H           7.6262   -1.0590   -0.1896 H       1  LIG1        0.0624
     34 C           7.9979    3.5497   -0.2454 C.1     1  LIG1       -0.0690
     35 C           7.6207    4.6924   -0.2826 C.1     1  LIG1       -0.1139
     36 H           7.2696    5.6980   -0.3143 H       1  LIG1        0.1232
     37 H          10.0642   -1.3354   -0.2220 H       1  LIG1        0.0624
     38 C          12.6755   -0.2106    0.5910 C.ar    1  LIG1        0.0324
     39 C          14.0698   -0.2909    0.4855 C.ar    1  LIG1       -0.0457
     40 C          11.9590    0.6414   -0.2742 C.ar    1  LIG1       -0.0025
     41 C          14.7588    0.4579   -0.4543 C.ar    1  LIG1       -0.0606
     42 H          14.6033   -0.9475    1.1635 H       1  LIG1        0.0630
     43 C          12.6762    1.3896   -1.2101 C.ar    1  LIG1       -0.0529
     44 C          14.0578    1.3045   -1.3048 C.ar    1  LIG1       -0.0611
     45 H          12.1292    2.0359   -1.8886 H       1  LIG1        0.0624
     46 H          15.8388    0.3817   -0.5214 H       1  LIG1        0.0618
     47 C          12.0324   -0.9825    1.6141 C.1     1  LIG1       -0.0691
     48 C          11.5430   -1.6439    2.4932 C.1     1  LIG1       -0.1139
     49 H          11.0956   -2.2196    3.2703 H       1  LIG1        0.1232
     50 H          14.5849    1.8941   -2.0476 H       1  LIG1        0.0618
@<TRIPOS>BOND
     1    50    44    1
     2    45    43    1
     3    25    20    1
     4    21    19    1
     5    44    43   ar
     6    44    41   ar
     7    43    40   ar
     8    20    19   ar
     9    20    17   ar
    10    19    16   ar
    11    46    41    1
    12    41    39   ar
    13     9     3    1
    14     8     6    1
    15    36    35    1
    16     3     6   ar
    17     3     1   ar
    18     6     7   ar
    19    12    11    1
    20    35    34    3
    21    11    10    3
    22    40    29    1
    23    40    38   ar
    24    10     1    1
    25     1     2   ar
    26    34    26    1
    27     7    13    1
    28     7     4   ar
    29    30    27    1
    30    29    27   ar
    31    29    32   ar
    32    27    26   ar
    33    37    32    1
    34    32    31   ar
    35    26    28   ar
    36    31    28   ar
    37    31    33    1
    38    28    17    1
    39     2     4   ar
    40     2     5    1
    41    17    15   ar
    42     4    16    1
    43    16    14   ar
    44    39    38   ar
    45    39    42    1
    46    38    47    1
    47    15    14   ar
    48    15    18    1
    49    14    22    1
    50    47    48    3
    51    22    23    3
    52    48    49    1
    53    23    24    1
