@<TRIPOS>MOLECULE
mol_data/opt/cam/geoms/mol2/4ea4ea.out
 26 27 0 0 0
SMALL
GASTEIGER

@<TRIPOS>ATOM
      1 C          -0.0763    0.1452    0.2842 C.ar    1  LIG1        0.0253
      2 C           1.3151    0.1033    0.4053 C.ar    1  LIG1       -0.0386
      3 C          -0.6821    1.2403   -0.3415 C.ar    1  LIG1       -0.0463
      4 C           2.1073    1.1389   -0.0874 C.ar    1  LIG1       -0.0156
      5 H           1.7757   -0.7452    0.8959 H       1  LIG1        0.0636
      6 C           0.1011    2.2730   -0.8330 C.ar    1  LIG1       -0.0600
      7 C           1.4836    2.2258   -0.7060 C.ar    1  LIG1       -0.0539
      8 H          -0.3673    3.1200   -1.3231 H       1  LIG1        0.0618
      9 H          -1.7616    1.2693   -0.4358 H       1  LIG1        0.0630
     10 C          -0.8762   -0.9242    0.8042 C.1     1  LIG1       -0.0696
     11 C          -1.5509   -1.8206    1.2403 C.1     1  LIG1       -0.1139
     12 H          -2.1464   -2.6147    1.6280 H       1  LIG1        0.1232
     13 H           2.0920    3.0307   -1.1054 H       1  LIG1        0.0624
     14 C           4.3785    0.0155   -0.2876 C.ar    1  LIG1        0.0324
     15 C           5.7670    0.0724   -0.1129 C.ar    1  LIG1       -0.0457
     16 C           3.5852    1.1244    0.0707 C.ar    1  LIG1       -0.0025
     17 C           6.3757    1.2042    0.4042 C.ar    1  LIG1       -0.0606
     18 H           6.3605   -0.7885   -0.3994 H       1  LIG1        0.0630
     19 C           4.2220    2.2552    0.5859 C.ar    1  LIG1       -0.0529
     20 C           5.5986    2.3021    0.7537 C.ar    1  LIG1       -0.0611
     21 H           3.6147    3.1058    0.8771 H       1  LIG1        0.0624
     22 H           7.4524    1.2289    0.5331 H       1  LIG1        0.0618
     23 C           3.8190   -1.1728   -0.8628 C.1     1  LIG1       -0.0691
     24 C           3.3985   -2.1883   -1.3541 C.1     1  LIG1       -0.1139
     25 H           3.0076   -3.0796   -1.7881 H       1  LIG1        0.1232
     26 H           6.0623    3.1932    1.1637 H       1  LIG1        0.0618
@<TRIPOS>BOND
     1    25    24    1
     2    24    23    3
     3     8     6    1
     4    13     7    1
     5    23    14    1
     6     6     7   ar
     7     6     3   ar
     8     7     4   ar
     9     9     3    1
    10    18    15    1
    11     3     1   ar
    12    14    15   ar
    13    14    16   ar
    14    15    17   ar
    15     4    16    1
    16     4     2   ar
    17    16    19   ar
    18     1     2   ar
    19     1    10    1
    20    17    22    1
    21    17    20   ar
    22     2     5    1
    23    19    20   ar
    24    19    21    1
    25    20    26    1
    26    10    11    3
    27    11    12    1
