@<TRIPOS>MOLECULE
mol_data/opt/cam/geoms/mol2/4ea4ea4ea-4ea-.out
 50 53 0 0 0
SMALL
GASTEIGER

@<TRIPOS>ATOM
      1 C          -0.2958    0.3457    0.3836 C.ar    1  LIG1        0.0253
      2 C           1.0988    0.3097    0.4626 C.ar    1  LIG1       -0.0386
      3 C          -0.9116    1.1149   -0.6097 C.ar    1  LIG1       -0.0463
      4 C           1.8848    1.0316   -0.4342 C.ar    1  LIG1       -0.0156
      5 H           1.5668   -0.2833    1.2384 H       1  LIG1        0.0636
      6 C          -0.1346    1.8352   -1.5037 C.ar    1  LIG1       -0.0600
      7 C           1.2512    1.7972   -1.4169 C.ar    1  LIG1       -0.0539
      8 H          -0.6108    2.4280   -2.2776 H       1  LIG1        0.0618
      9 H          -1.9937    1.1395   -0.6698 H       1  LIG1        0.0630
     10 C          -1.0885   -0.3960    1.3191 C.1     1  LIG1       -0.0696
     11 C          -1.7571   -1.0178    2.1037 C.1     1  LIG1       -0.1139
     12 H          -2.3465   -1.5679    2.8004 H       1  LIG1        0.1232
     13 H           1.8536    2.3524   -2.1285 H       1  LIG1        0.0624
     14 C           4.1287   -0.1467   -0.2284 C.ar    1  LIG1        0.0329
     15 C           5.5226   -0.0665   -0.1421 C.ar    1  LIG1       -0.0380
     16 C           3.3670    1.0334   -0.3354 C.ar    1  LIG1       -0.0024
     17 C           6.1920    1.1541   -0.1576 C.ar    1  LIG1       -0.0155
     18 H           6.0869   -0.9880   -0.0521 H       1  LIG1        0.0636
     19 C           4.0497    2.2510   -0.3578 C.ar    1  LIG1       -0.0523
     20 C           5.4304    2.3193   -0.2695 C.ar    1  LIG1       -0.0533
     21 H           3.4750    3.1682   -0.4315 H       1  LIG1        0.0624
     22 C           3.5312   -1.4502   -0.2359 C.1     1  LIG1       -0.0690
     23 C           3.0773   -2.5652   -0.2456 C.1     1  LIG1       -0.1139
     24 H           2.6573   -3.5445   -0.2539 H       1  LIG1        0.1232
     25 H           5.9227    3.2842   -0.2886 H       1  LIG1        0.0624
     26 C           8.3888    2.0428    0.7631 C.ar    1  LIG1        0.0329
     27 C           9.7869    2.0283    0.7612 C.ar    1  LIG1       -0.0380
     28 C           7.6751    1.1877   -0.1012 C.ar    1  LIG1       -0.0024
     29 C          10.5079    1.1804   -0.0748 C.ar    1  LIG1       -0.0155
     30 H          10.3097    2.6872    1.4430 H       1  LIG1        0.0636
     31 C           8.4086    0.3385   -0.9306 C.ar    1  LIG1       -0.0523
     32 C           9.7942    0.3285   -0.9203 C.ar    1  LIG1       -0.0533
     33 H           7.8748   -0.3107   -1.6165 H       1  LIG1        0.0624
     34 C           7.7314    2.9133    1.6944 C.1     1  LIG1       -0.0690
     35 C           7.2263    3.6540    2.4979 C.1     1  LIG1       -0.1139
     36 H           6.7667    4.3005    3.2094 H       1  LIG1        0.1232
     37 H          10.3318   -0.3296   -1.5950 H       1  LIG1        0.0624
     38 C          12.7891    2.2992   -0.1180 C.ar    1  LIG1        0.0324
     39 C          14.1845    2.1836   -0.0905 C.ar    1  LIG1       -0.0457
     40 C          11.9924    1.1381   -0.0498 C.ar    1  LIG1       -0.0025
     41 C          14.7966    0.9442   -0.0009 C.ar    1  LIG1       -0.0606
     42 H          14.7801    3.0876   -0.1494 H       1  LIG1        0.0630
     43 C          12.6325   -0.1001    0.0354 C.ar    1  LIG1       -0.0529
     44 C          14.0158   -0.2039    0.0602 C.ar    1  LIG1       -0.0611
     45 H          12.0244   -0.9961    0.1036 H       1  LIG1        0.0624
     46 H          15.8789    0.8751    0.0200 H       1  LIG1        0.0618
     47 C          12.2240    3.6103   -0.2512 C.1     1  LIG1       -0.0691
     48 C          11.8000    4.7307   -0.3707 C.1     1  LIG1       -0.1139
     49 H          11.4073    5.7157   -0.4765 H       1  LIG1        0.1232
     50 H          14.4825   -1.1805    0.1346 H       1  LIG1        0.0618
@<TRIPOS>BOND
     1     8     6    1
     2    13     7    1
     3    33    31    1
     4    37    32    1
     5     6     7   ar
     6     6     3   ar
     7     7     4   ar
     8    31    32   ar
     9    31    28   ar
    10    32    29   ar
    11     9     3    1
    12     3     1   ar
    13    49    48    1
    14     4    16    1
    15     4     2   ar
    16    21    19    1
    17    48    47    3
    18    19    16   ar
    19    19    20   ar
    20    16    14   ar
    21    25    20    1
    22    20    17   ar
    23    24    23    1
    24    47    38    1
    25    23    22    3
    26    22    14    1
    27    14    15   ar
    28    17    15   ar
    29    17    28    1
    30    42    39    1
    31    15    18    1
    32    38    39   ar
    33    38    40   ar
    34    28    26   ar
    35    39    41   ar
    36    29    40    1
    37    29    27   ar
    38    40    43   ar
    39    41    46    1
    40    41    44   ar
    41    43    44   ar
    42    43    45    1
    43    44    50    1
    44     1     2   ar
    45     1    10    1
    46     2     5    1
    47    27    26   ar
    48    27    30    1
    49    26    34    1
    50    10    11    3
    51    34    35    3
    52    11    12    1
    53    35    36    1
