@<TRIPOS>MOLECULE
mol_data/opt/cam/geoms/mol2/4ea4ea4ea4ea.out
 50 53 0 0 0
SMALL
GASTEIGER

@<TRIPOS>ATOM
      1 C          -0.3516    0.7856    0.4534 C.ar    1  LIG1        0.0253
      2 C           1.0340    0.6798    0.5996 C.ar    1  LIG1       -0.0386
      3 C          -0.8929    1.0800   -0.8028 C.ar    1  LIG1       -0.0463
      4 C           1.8844    0.8658   -0.4894 C.ar    1  LIG1       -0.0156
      5 H           1.4448    0.4570    1.5764 H       1  LIG1        0.0636
      6 C          -0.0519    1.2657   -1.8890 C.ar    1  LIG1       -0.0600
      7 C           1.3248    1.1622   -1.7353 C.ar    1  LIG1       -0.0539
      8 H          -0.4708    1.4885   -2.8647 H       1  LIG1        0.0618
      9 H          -1.9684    1.1596   -0.9137 H       1  LIG1        0.0630
     10 C          -1.2105    0.6001    1.5855 C.1     1  LIG1       -0.0696
     11 C          -1.9348    0.4453    2.5344 C.1     1  LIG1       -0.1139
     12 H          -2.5742    0.3086    3.3758 H       1  LIG1        0.1232
     13 H           1.9767    1.2942   -2.5926 H       1  LIG1        0.0624
     14 C           4.0167   -0.2707    0.3069 C.ar    1  LIG1        0.0329
     15 C           5.4113   -0.2740    0.4079 C.ar    1  LIG1       -0.0380
     16 C           3.3607    0.7968   -0.3388 C.ar    1  LIG1       -0.0024
     17 C           6.1847    0.7577   -0.1168 C.ar    1  LIG1       -0.0155
     18 H           5.8894   -1.1071    0.9075 H       1  LIG1        0.0636
     19 C           4.1466    1.8231   -0.8642 C.ar    1  LIG1       -0.0523
     20 C           5.5281    1.8114   -0.7561 C.ar    1  LIG1       -0.0533
     21 H           3.6560    2.6567   -1.3556 H       1  LIG1        0.0624
     22 C           3.3039   -1.3899    0.8512 C.1     1  LIG1       -0.0690
     23 C           2.7494   -2.3517    1.3167 C.1     1  LIG1       -0.1139
     24 H           2.2432   -3.1961    1.7244 H       1  LIG1        0.1232
     25 H           6.1078    2.6234   -1.1825 H       1  LIG1        0.0624
     26 C           8.4769   -0.3304   -0.2917 C.ar    1  LIG1        0.0329
     27 C           9.8639   -0.2418   -0.1384 C.ar    1  LIG1       -0.0380
     28 C           7.6624    0.7753    0.0263 C.ar    1  LIG1       -0.0024
     29 C          10.4757    0.9199    0.3238 C.ar    1  LIG1       -0.0155
     30 H          10.4661   -1.1055   -0.3910 H       1  LIG1        0.0636
     31 C           8.2872    1.9356    0.4848 C.ar    1  LIG1       -0.0523
     32 C           9.6628    2.0115    0.6355 C.ar    1  LIG1       -0.0533
     33 H           7.6734    2.7921    0.7435 H       1  LIG1        0.0624
     34 C           7.9372   -1.5568   -0.8030 C.1     1  LIG1       -0.0690
     35 C           7.5305   -2.6021   -1.2402 C.1     1  LIG1       -0.1139
     36 H           7.1526   -3.5210   -1.6253 H       1  LIG1        0.1232
     37 H          10.1150    2.9324    0.9890 H       1  LIG1        0.0624
     38 C          12.8711    0.6070   -0.4640 C.ar    1  LIG1        0.0324
     39 C          14.2438    0.7103   -0.2065 C.ar    1  LIG1       -0.0457
     40 C          11.9454    0.9998    0.5242 C.ar    1  LIG1       -0.0025
     41 C          14.7084    1.1967    1.0045 C.ar    1  LIG1       -0.0606
     42 H          14.9399    0.4081   -0.9809 H       1  LIG1        0.0630
     43 C          12.4378    1.4917    1.7348 C.ar    1  LIG1       -0.0529
     44 C          13.8000    1.5915    1.9793 C.ar    1  LIG1       -0.0611
     45 H          11.7303    1.7814    2.5047 H       1  LIG1        0.0624
     46 H          15.7755    1.2682    1.1857 H       1  LIG1        0.0618
     47 C          12.4603    0.1316   -1.7529 C.1     1  LIG1       -0.0691
     48 C          12.1658   -0.2663   -2.8503 C.1     1  LIG1       -0.1139
     49 H          11.8868   -0.6170   -3.8172 H       1  LIG1        0.1232
     50 H          14.1507    1.9706    2.9335 H       1  LIG1        0.0618
@<TRIPOS>BOND
     1    49    48    1
     2     8     6    1
     3    48    47    3
     4    13     7    1
     5     6     7   ar
     6     6     3   ar
     7    47    38    1
     8     7     4   ar
     9    36    35    1
    10    21    19    1
    11    35    34    3
    12    25    20    1
    13    42    39    1
    14     9     3    1
    15    19    20   ar
    16    19    16   ar
    17    34    26    1
    18     3     1   ar
    19    20    17   ar
    20     4    16    1
    21     4     2   ar
    22    38    39   ar
    23    38    40   ar
    24    30    27    1
    25    16    14   ar
    26    26    27   ar
    27    26    28   ar
    28    39    41   ar
    29    27    29   ar
    30    17    28    1
    31    17    15   ar
    32    28    31   ar
    33    14    15   ar
    34    14    22    1
    35    29    40    1
    36    29    32   ar
    37    15    18    1
    38     1     2   ar
    39     1    10    1
    40    31    32   ar
    41    31    33    1
    42    40    43   ar
    43     2     5    1
    44    32    37    1
    45    22    23    3
    46    41    46    1
    47    41    44   ar
    48    23    24    1
    49    10    11    3
    50    43    44   ar
    51    43    45    1
    52    44    50    1
    53    11    12    1
