@<TRIPOS>MOLECULE
mol_data/opt/cam/geoms/mol2/4ea4ea4ea.out
 38 40 0 0 0
SMALL
GASTEIGER

@<TRIPOS>ATOM
      1 C          -0.2344    0.3970    0.4409 C.ar    1  LIG1        0.0253
      2 C           1.1548    0.3204    0.5707 C.ar    1  LIG1       -0.0386
      3 C          -0.7904    1.1629   -0.5896 C.ar    1  LIG1       -0.0463
      4 C           1.9941    0.9986   -0.3119 C.ar    1  LIG1       -0.0156
      5 H           1.5765   -0.2704    1.3742 H       1  LIG1        0.0636
      6 C           0.0397    1.8393   -1.4699 C.ar    1  LIG1       -0.0600
      7 C           1.4198    1.7610   -1.3327 C.ar    1  LIG1       -0.0539
      8 H          -0.3902    2.4291   -2.2727 H       1  LIG1        0.0618
      9 H          -1.8684    1.2190   -0.6891 H       1  LIG1        0.0630
     10 C          -1.0823   -0.2997    1.3625 C.1     1  LIG1       -0.0696
     11 C          -1.7973   -0.8834    2.1354 C.1     1  LIG1       -0.1139
     12 H          -2.4286   -1.4000    2.8208 H       1  LIG1        0.1232
     13 H           2.0639    2.2809   -2.0343 H       1  LIG1        0.0624
     14 C           4.1934   -0.2420   -0.0020 C.ar    1  LIG1        0.0329
     15 C           5.5848   -0.2067    0.1321 C.ar    1  LIG1       -0.0380
     16 C           3.4713    0.9583   -0.1595 C.ar    1  LIG1       -0.0024
     17 C           6.2907    0.9928    0.1140 C.ar    1  LIG1       -0.0155
     18 H           6.1146   -1.1435    0.2506 H       1  LIG1        0.0636
     19 C           4.1902    2.1539   -0.1805 C.ar    1  LIG1       -0.0523
     20 C           5.5691    2.1777   -0.0442 C.ar    1  LIG1       -0.0533
     21 H           3.6478    3.0870   -0.2912 H       1  LIG1        0.0624
     22 C           3.5536   -1.5256   -0.0011 C.1     1  LIG1       -0.0690
     23 C           3.0620   -2.6244   -0.0010 C.1     1  LIG1       -0.1139
     24 H           2.6105   -3.5896   -0.0015 H       1  LIG1        0.1232
     25 H           6.0960    3.1259   -0.0712 H       1  LIG1        0.0624
     26 C           8.6467    0.2147   -0.4357 C.ar    1  LIG1        0.0324
     27 C          10.0258    0.3070   -0.2097 C.ar    1  LIG1       -0.0457
     28 C           7.7642    1.0333    0.2983 C.ar    1  LIG1       -0.0025
     29 C          10.5388    1.1941    0.7225 C.ar    1  LIG1       -0.0606
     30 H          10.6886   -0.3271   -0.7877 H       1  LIG1        0.0630
     31 C           8.3054    1.9230    1.2287 C.ar    1  LIG1       -0.0529
     32 C           9.6735    2.0079    1.4438 C.ar    1  LIG1       -0.0611
     33 H           7.6301    2.5448    1.8072 H       1  LIG1        0.0624
     34 H          11.6099    1.2503    0.8842 H       1  LIG1        0.0618
     35 C           8.1877   -0.6965   -1.4431 C.1     1  LIG1       -0.0691
     36 C           7.8528   -1.4701   -2.3025 C.1     1  LIG1       -0.1139
     37 H           7.5371   -2.1501   -3.0599 H       1  LIG1        0.1232
     38 H          10.0619    2.7043    2.1796 H       1  LIG1        0.0618
@<TRIPOS>BOND
     1    37    36    1
     2    36    35    3
     3     8     6    1
     4    13     7    1
     5     6     7   ar
     6     6     3   ar
     7    35    26    1
     8     7     4   ar
     9    30    27    1
    10     9     3    1
    11     3     1   ar
    12    26    27   ar
    13    26    28   ar
    14     4    16    1
    15     4     2   ar
    16    21    19    1
    17    27    29   ar
    18    19    16   ar
    19    19    20   ar
    20    16    14   ar
    21    25    20    1
    22    20    17   ar
    23    14    22    1
    24    14    15   ar
    25    24    23    1
    26    22    23    3
    27    17    15   ar
    28    17    28    1
    29    15    18    1
    30    28    31   ar
    31     1     2   ar
    32     1    10    1
    33     2     5    1
    34    29    34    1
    35    29    32   ar
    36    31    32   ar
    37    31    33    1
    38    10    11    3
    39    32    38    1
    40    11    12    1
