@<TRIPOS>MOLECULE
mol_data/opt/cam/geoms/mol2/4ea4ea-4ea.out
 38 40 0 0 0
SMALL
GASTEIGER

@<TRIPOS>ATOM
      1 C          -0.1458    0.1385    0.0006 C.ar    1  LIG1        0.0253
      2 C           1.2503    0.1390    0.0710 C.ar    1  LIG1       -0.0386
      3 C          -0.8116    1.2976   -0.4098 C.ar    1  LIG1       -0.0463
      4 C           1.9873    1.2759   -0.2575 C.ar    1  LIG1       -0.0156
      5 H           1.7613   -0.7578    0.4030 H       1  LIG1        0.0636
      6 C          -0.0829    2.4306   -0.7398 C.ar    1  LIG1       -0.0600
      7 C           1.3036    2.4246   -0.6646 C.ar    1  LIG1       -0.0539
      8 H          -0.5998    3.3277   -1.0642 H       1  LIG1        0.0618
      9 H          -1.8943    1.2985   -0.4659 H       1  LIG1        0.0630
     10 C          -0.8845   -1.0391    0.3484 C.1     1  LIG1       -0.0696
     11 C          -1.5062   -2.0282    0.6389 C.1     1  LIG1       -0.1139
     12 H          -2.0561   -2.9033    0.8980 H       1  LIG1        0.1232
     13 H           1.8631    3.3133   -0.9313 H       1  LIG1        0.0624
     14 C           4.2492    2.2217    0.4169 C.ar    1  LIG1        0.0329
     15 C           5.6438    2.1124    0.4177 C.ar    1  LIG1       -0.0380
     16 C           3.4713    1.2292   -0.2109 C.ar    1  LIG1       -0.0024
     17 C           6.2980    1.0396   -0.1815 C.ar    1  LIG1       -0.0155
     18 H           6.2204    2.8783    0.9244 H       1  LIG1        0.0636
     19 C           4.1386    0.1571   -0.8065 C.ar    1  LIG1       -0.0523
     20 C           5.5200    0.0559   -0.7954 C.ar    1  LIG1       -0.0533
     21 H           3.5533   -0.6035   -1.3123 H       1  LIG1        0.0624
     22 C           3.6650    3.3383    1.1016 C.1     1  LIG1       -0.0690
     23 C           3.2248    4.2891    1.6946 C.1     1  LIG1       -0.1139
     24 H           2.8203    5.1222    2.2217 H       1  LIG1        0.1232
     25 H           6.0003   -0.7851   -1.2810 H       1  LIG1        0.0624
     26 C           8.5060   -0.1675    0.1691 C.ar    1  LIG1        0.0324
     27 C           9.9059   -0.1461    0.1357 C.ar    1  LIG1       -0.0457
     28 C           7.7824    0.9877   -0.1911 C.ar    1  LIG1       -0.0025
     29 C          10.5936    0.9953   -0.2426 C.ar    1  LIG1       -0.0606
     30 H          10.4443   -1.0426    0.4219 H       1  LIG1        0.0630
     31 C           8.4981    2.1271   -0.5649 C.ar    1  LIG1       -0.0529
     32 C           9.8853    2.1386   -0.5925 C.ar    1  LIG1       -0.0611
     33 H           7.9466    3.0143   -0.8575 H       1  LIG1        0.0624
     34 H          11.6782    0.9923   -0.2629 H       1  LIG1        0.0618
     35 C           7.8620   -1.3708    0.6095 C.1     1  LIG1       -0.0691
     36 C           7.3726   -2.4018    0.9928 C.1     1  LIG1       -0.1139
     37 H           6.9247   -3.3062    1.3351 H       1  LIG1        0.1232
     38 H          10.4114    3.0382   -0.8942 H       1  LIG1        0.0618
@<TRIPOS>BOND
     1    21    19    1
     2    25    20    1
     3     8     6    1
     4    13     7    1
     5    38    32    1
     6    33    31    1
     7    19    20   ar
     8    19    16   ar
     9    20    17   ar
    10     6     7   ar
    11     6     3   ar
    12     7     4   ar
    13    32    31   ar
    14    32    29   ar
    15    31    28   ar
    16     9     3    1
    17     3     1   ar
    18    34    29    1
    19     4    16    1
    20     4     2   ar
    21    29    27   ar
    22    16    14   ar
    23    28    17    1
    24    28    26   ar
    25    17    15   ar
    26     1     2   ar
    27     1    10    1
    28     2     5    1
    29    27    26   ar
    30    27    30    1
    31    26    35    1
    32    10    11    3
    33    14    15   ar
    34    14    22    1
    35    15    18    1
    36    35    36    3
    37    11    12    1
    38    36    37    1
    39    22    23    3
    40    23    24    1
