@<TRIPOS>MOLECULE
mol_data/opt/cam/geoms/mol2/4ea4ea-4ea4ea.out
 50 53 0 0 0
SMALL
GASTEIGER

@<TRIPOS>ATOM
      1 C          -0.2838    0.2087    0.0318 C.ar    1  LIG1        0.0253
      2 C           1.1096    0.1970    0.1437 C.ar    1  LIG1       -0.0386
      3 C          -0.9145    1.3080   -0.5589 C.ar    1  LIG1       -0.0463
      4 C           1.8781    1.2639   -0.3199 C.ar    1  LIG1       -0.0156
      5 H           1.5933   -0.6515    0.6147 H       1  LIG1        0.0636
      6 C          -0.1544    2.3708   -1.0241 C.ar    1  LIG1       -0.0600
      7 C           1.2291    2.3536   -0.9066 C.ar    1  LIG1       -0.0539
      8 H          -0.6440    3.2205   -1.4881 H       1  LIG1        0.0618
      9 H          -1.9950    1.3181   -0.6473 H       1  LIG1        0.0630
     10 C          -1.0553   -0.8952    0.5211 C.1     1  LIG1       -0.0696
     11 C          -1.7045   -1.8225    0.9308 C.1     1  LIG1       -0.1139
     12 H          -2.2789   -2.6428    1.2950 H       1  LIG1        0.1232
     13 H           1.8135    3.1863   -1.2794 H       1  LIG1        0.0624
     14 C           4.1380    2.2613    0.2827 C.ar    1  LIG1        0.0329
     15 C           5.5295    2.1313    0.3432 C.ar    1  LIG1       -0.0380
     16 C           3.3589    1.2012   -0.2210 C.ar    1  LIG1       -0.0024
     17 C           6.1794    0.9734   -0.0754 C.ar    1  LIG1       -0.0155
     18 H           6.1062    2.9527    0.7534 H       1  LIG1        0.0636
     19 C           4.0216    0.0444   -0.6357 C.ar    1  LIG1       -0.0523
     20 C           5.3998   -0.0760   -0.5665 C.ar    1  LIG1       -0.0533
     21 H           3.4360   -0.7716   -1.0458 H       1  LIG1        0.0624
     22 C           3.5570    3.4735    0.7823 C.1     1  LIG1       -0.0690
     23 C           3.1191    4.5064    1.2191 C.1     1  LIG1       -0.1139
     24 H           2.7162    5.4127    1.6086 H       1  LIG1        0.1232
     25 H           5.8770   -0.9853   -0.9115 H       1  LIG1        0.0624
     26 C           8.3553   -0.2093    0.4995 C.ar    1  LIG1        0.0329
     27 C           9.7534   -0.2184    0.5053 C.ar    1  LIG1       -0.0380
     28 C           7.6612    0.8974   -0.0306 C.ar    1  LIG1       -0.0024
     29 C          10.4937    0.8477    0.0019 C.ar    1  LIG1       -0.0155
     30 H          10.2608   -1.0759    0.9291 H       1  LIG1        0.0636
     31 C           8.4138    1.9626   -0.5267 C.ar    1  LIG1       -0.0523
     32 C           9.7994    1.9452   -0.5112 C.ar    1  LIG1       -0.0533
     33 H           7.8950    2.8128   -0.9567 H       1  LIG1        0.0624
     34 C           7.6781   -1.3296    1.0855 C.1     1  LIG1       -0.0690
     35 C           7.1568   -2.2878    1.5949 C.1     1  LIG1       -0.1139
     36 H           6.6833   -3.1276    2.0489 H       1  LIG1        0.1232
     37 H          10.3519    2.7819   -0.9259 H       1  LIG1        0.0624
     38 C          12.7578   -0.2315   -0.4062 C.ar    1  LIG1        0.0324
     39 C          14.1546   -0.1553   -0.3385 C.ar    1  LIG1       -0.0457
     40 C          11.9784    0.8541    0.0428 C.ar    1  LIG1       -0.0025
     41 C          14.7849    0.9731    0.1597 C.ar    1  LIG1       -0.0606
     42 H          14.7368   -0.9983   -0.6934 H       1  LIG1        0.0630
     43 C          12.6367    1.9824    0.5365 C.ar    1  LIG1       -0.0529
     44 C          14.0212    2.0485    0.5975 C.ar    1  LIG1       -0.0611
     45 H          12.0419    2.8147    0.8979 H       1  LIG1        0.0624
     46 H          15.8679    1.0129    0.2049 H       1  LIG1        0.0618
     47 C          12.1742   -1.4139   -0.9694 C.1     1  LIG1       -0.0691
     48 C          11.7350   -2.4238   -1.4560 C.1     1  LIG1       -0.1139
     49 H          11.3288   -3.3113   -1.8836 H       1  LIG1        0.1232
     50 H          14.5022    2.9367    0.9938 H       1  LIG1        0.0618
@<TRIPOS>BOND
     1    49    48    1
     2     8     6    1
     3    48    47    3
     4    13     7    1
     5    21    19    1
     6     6     7   ar
     7     6     3   ar
     8    47    38    1
     9    33    31    1
    10    37    32    1
    11    25    20    1
    12     7     4   ar
    13    42    39    1
    14     9     3    1
    15    19    20   ar
    16    19    16   ar
    17    20    17   ar
    18     3     1   ar
    19    31    32   ar
    20    31    28   ar
    21    32    29   ar
    22    38    39   ar
    23    38    40   ar
    24    39    41   ar
    25     4    16    1
    26     4     2   ar
    27    16    14   ar
    28    17    28    1
    29    17    15   ar
    30    28    26   ar
    31    29    40    1
    32    29    27   ar
    33     1     2   ar
    34     1    10    1
    35    40    43   ar
    36     2     5    1
    37    41    46    1
    38    41    44   ar
    39    14    15   ar
    40    14    22    1
    41    15    18    1
    42    26    27   ar
    43    26    34    1
    44    27    30    1
    45    10    11    3
    46    43    44   ar
    47    43    45    1
    48    44    50    1
    49    22    23    3
    50    11    12    1
    51    34    35    3
    52    23    24    1
    53    35    36    1
