@<TRIPOS>MOLECULE
mol_data/opt/cam/geoms/mol2/4ea4ea4ea4ea-.out
 50 53 0 0 0
SMALL
GASTEIGER

@<TRIPOS>ATOM
      1 C          -0.2954    0.6847    0.5586 C.ar    1  LIG1        0.0253
      2 C           1.0994    0.6427    0.6302 C.ar    1  LIG1       -0.0386
      3 C          -0.9164    0.9352   -0.6700 C.ar    1  LIG1       -0.0463
      4 C           1.8806    0.8490   -0.5058 C.ar    1  LIG1       -0.0156
      5 H           1.5718    0.4538    1.5861 H       1  LIG1        0.0636
      6 C          -0.1444    1.1410   -1.8027 C.ar    1  LIG1       -0.0600
      7 C           1.2419    1.1009   -1.7231 C.ar    1  LIG1       -0.0539
      8 H          -0.6249    1.3297   -2.7570 H       1  LIG1        0.0618
      9 H          -1.9988    0.9653   -0.7231 H       1  LIG1        0.0630
     10 C          -1.0828    0.4791    1.7382 C.1     1  LIG1       -0.0696
     11 C          -1.7470    0.3072    2.7273 C.1     1  LIG1       -0.1139
     12 H          -2.3330    0.1549    3.6041 H       1  LIG1        0.1232
     13 H           1.8400    1.2483   -2.6164 H       1  LIG1        0.0624
     14 C           4.1011   -0.1788    0.1904 C.ar    1  LIG1        0.0329
     15 C           5.4977   -0.1175    0.2186 C.ar    1  LIG1       -0.0380
     16 C           3.3645    0.8479   -0.4341 C.ar    1  LIG1       -0.0024
     17 C           6.1950    0.9397   -0.3593 C.ar    1  LIG1       -0.0155
     18 H           6.0386   -0.9196    0.7049 H       1  LIG1        0.0636
     19 C           4.0743    1.8999   -1.0141 C.ar    1  LIG1       -0.0523
     20 C           5.4587    1.9521   -0.9781 C.ar    1  LIG1       -0.0533
     21 H           3.5214    2.7028   -1.4902 H       1  LIG1        0.0624
     22 C           3.4695   -1.3205    0.7858 C.1     1  LIG1       -0.0690
     23 C           2.9847   -2.2993    1.2917 C.1     1  LIG1       -0.1139
     24 H           2.5394   -3.1596    1.7357 H       1  LIG1        0.1232
     25 H           5.9774    2.7831   -1.4448 H       1  LIG1        0.0624
     26 C           8.5224   -0.0480   -0.6279 C.ar    1  LIG1        0.0329
     27 C           9.9097    0.1099   -0.5417 C.ar    1  LIG1       -0.0380
     28 C           7.6756    1.0266   -0.2922 C.ar    1  LIG1       -0.0024
     29 C          10.4899    1.3063   -0.1300 C.ar    1  LIG1       -0.0155
     30 H          10.5409   -0.7338   -0.7974 H       1  LIG1        0.0636
     31 C           8.2693    2.2240    0.1118 C.ar    1  LIG1       -0.0523
     32 C           9.6443    2.3687    0.1955 C.ar    1  LIG1       -0.0533
     33 H           7.6292    3.0572    0.3822 H       1  LIG1        0.0624
     34 C           8.0184   -1.3074   -1.0928 C.1     1  LIG1       -0.0690
     35 C           7.6439   -2.3787   -1.4946 C.1     1  LIG1       -0.1139
     36 H           7.2940   -3.3213   -1.8478 H       1  LIG1        0.1232
     37 H          10.0662    3.3139    0.5158 H       1  LIG1        0.0624
     38 C          12.6547    1.9704    1.0218 C.ar    1  LIG1        0.0324
     39 C          14.0515    2.0678    0.9915 C.ar    1  LIG1       -0.0457
     40 C          11.9689    1.4386   -0.0894 C.ar    1  LIG1       -0.0025
     41 C          14.7727    1.6459   -0.1134 C.ar    1  LIG1       -0.0606
     42 H          14.5611    2.4739    1.8580 H       1  LIG1        0.0630
     43 C          12.7181    1.0164   -1.1897 C.ar    1  LIG1       -0.0529
     44 C          14.1019    1.1154   -1.2088 C.ar    1  LIG1       -0.0611
     45 H          12.1949    0.6201   -2.0536 H       1  LIG1        0.0624
     46 H          15.8542    1.7300   -0.1185 H       1  LIG1        0.0618
     47 C          11.9763    2.3885    2.2139 C.1     1  LIG1       -0.0691
     48 C          11.4566    2.7457    3.2395 C.1     1  LIG1       -0.1139
     49 H          10.9824    3.0531    4.1430 H       1  LIG1        0.1232
     50 H          14.6544    0.7845   -2.0819 H       1  LIG1        0.0618
@<TRIPOS>BOND
     1     8     6    1
     2    13     7    1
     3    50    44    1
     4    45    43    1
     5    36    35    1
     6     6     7   ar
     7     6     3   ar
     8     7     4   ar
     9    35    34    3
    10    21    19    1
    11    25    20    1
    12    44    43   ar
    13    44    41   ar
    14    43    40   ar
    15    34    26    1
    16    19    20   ar
    17    19    16   ar
    18    20    17   ar
    19    30    27    1
    20     9     3    1
    21     3     1   ar
    22    26    27   ar
    23    26    28   ar
    24    27    29   ar
    25     4    16    1
    26     4     2   ar
    27    16    14   ar
    28    17    28    1
    29    17    15   ar
    30    28    31   ar
    31    29    40    1
    32    29    32   ar
    33    46    41    1
    34    41    39   ar
    35    40    38   ar
    36    31    32   ar
    37    31    33    1
    38    14    15   ar
    39    14    22    1
    40    32    37    1
    41    15    18    1
    42     1     2   ar
    43     1    10    1
    44     2     5    1
    45    22    23    3
    46    39    38   ar
    47    39    42    1
    48    38    47    1
    49    23    24    1
    50    10    11    3
    51    47    48    3
    52    11    12    1
    53    48    49    1
