@<TRIPOS>MOLECULE
mol_data/opt/cam/geoms/mol2/4ea4ed-13ai-13de.out
 49 52 0 0 0
SMALL
GASTEIGER

@<TRIPOS>ATOM
      1 C          -0.1830    0.2851   -0.7510 C.ar    1  LIG1        0.0253
      2 C           1.2127    0.2533   -0.6977 C.ar    1  LIG1       -0.0386
      3 C          -0.8875    1.1198    0.1236 C.ar    1  LIG1       -0.0463
      4 C           1.9097    1.0434    0.2148 C.ar    1  LIG1       -0.0155
      5 H           1.7505   -0.3897   -1.3834 H       1  LIG1        0.0636
      6 C          -0.1981    1.9077    1.0321 C.ar    1  LIG1       -0.0600
      7 C           1.1896    1.8732    1.0783 C.ar    1  LIG1       -0.0539
      8 H          -0.7446    2.5507    1.7137 H       1  LIG1        0.0618
      9 H          -1.9705    1.1413    0.0813 H       1  LIG1        0.0630
     10 C          -0.8845   -0.5277   -1.6998 C.1     1  LIG1       -0.0696
     11 C          -1.4757   -1.2098   -2.4959 C.1     1  LIG1       -0.1139
     12 H          -1.9984   -1.8129   -3.2022 H       1  LIG1        0.1232
     13 H           1.7218    2.4804    1.8034 H       1  LIG1        0.0624
     14 C           4.1682   -0.1351    0.3123 C.ar    1  LIG1        0.0331
     15 C           5.5602   -0.0599    0.3388 C.ar    1  LIG1       -0.0354
     16 C           3.3941    1.0455    0.2539 C.ar    1  LIG1       -0.0012
     17 C           6.2495    1.1533    0.3305 C.ar    1  LIG1        0.0168
     18 H           6.1255   -0.9834    0.3583 H       1  LIG1        0.0637
     19 C           4.0726    2.2569    0.2422 C.ar    1  LIG1       -0.0348
     20 C           5.4666    2.3270    0.2861 C.ar    1  LIG1        0.0615
     21 H           3.5061    3.1797    0.1885 H       1  LIG1        0.0637
     22 C           3.5693   -1.4351    0.3660 C.1     1  LIG1       -0.0690
     23 C           3.1120   -2.5468    0.4219 C.1     1  LIG1       -0.1139
     24 H           2.6909   -3.5251    0.4702 H       1  LIG1        0.1232
     25 N           6.6025    4.6565    0.2823 N.1     1  LIG1       -0.1908
     26 C           6.0744    3.6255    0.2939 C.1     1  LIG1        0.0998
     27 C           7.7070    1.1466    0.3946 C.ar    1  LIG1        0.0485
     28 C           8.5663    0.1966    0.9186 C.ar    1  LIG1       -0.0328
     29 C           9.8944    0.6656    0.7976 C.ar    1  LIG1       -0.0231
     30 C           9.8138    1.9062    0.1811 C.ar    1  LIG1        0.0676
     31 N           8.4888    2.1815   -0.0464 N.ar    1  LIG1       -0.3527
     32 H           8.1595    2.9717   -0.5770 H       1  LIG1        0.1660
     33 H           8.2685   -0.7241    1.3999 H       1  LIG1        0.0641
     34 C          11.1244   -0.0216    1.3017 C.3     1  LIG1       -0.0376
     35 H          11.8566    0.6976    1.6769 H       1  LIG1        0.0278
     36 H          11.6210   -0.5985    0.5169 H       1  LIG1        0.0278
     37 H          10.8729   -0.7039    2.1169 H       1  LIG1        0.0278
     38 C          10.8060    2.9137   -0.1344 C.ar    1  LIG1        0.0819
     39 C          12.1011    2.8339   -0.6208 C.ar    1  LIG1        0.0937
     40 C          12.6053    4.1734   -0.7520 C.ar    1  LIG1        0.0600
     41 C          11.5939    5.0123   -0.3515 C.ar    1  LIG1        0.0190
     42 N          10.5221    4.2476    0.0115 N.ar    1  LIG1       -0.3573
     43 H           9.6643    4.6036    0.4087 H       1  LIG1        0.1655
     44 H          11.5689    6.0889   -0.2998 H       1  LIG1        0.0820
     45 N          13.3192    0.6710   -1.3119 N.1     1  LIG1       -0.1908
     46 C          12.7773    1.6453   -0.9991 C.1     1  LIG1        0.1026
     47 C          13.8908    4.5543   -1.2206 C.1     1  LIG1       -0.0669
     48 C          14.9821    4.8682   -1.6182 C.1     1  LIG1       -0.1138
     49 H          15.9502    5.1385   -1.9721 H       1  LIG1        0.1232
@<TRIPOS>BOND
     1    12    11    1
     2    11    10    3
     3    49    48    1
     4    10     1    1
     5    48    47    3
     6     5     2    1
     7    45    46    3
     8    47    40    1
     9    46    39    1
    10    40    39   ar
    11    40    41   ar
    12     1     2   ar
    13     1     3   ar
    14     2     4   ar
    15    39    38   ar
    16    32    31    1
    17    41    44    1
    18    41    42   ar
    19    38    42   ar
    20    38    30    1
    21    31    30   ar
    22    31    27   ar
    23    42    43    1
    24     9     3    1
    25     3     6   ar
    26    30    29   ar
    27    21    19    1
    28     4    16    1
    29     4     7   ar
    30    19    16   ar
    31    19    20   ar
    32    16    14   ar
    33    25    26    3
    34    20    26    1
    35    20    17   ar
    36    14    15   ar
    37    14    22    1
    38    17    15   ar
    39    17    27    1
    40    15    18    1
    41    22    23    3
    42    27    28   ar
    43    23    24    1
    44    36    34    1
    45    29    28   ar
    46    29    34    1
    47    28    33    1
    48     6     7   ar
    49     6     8    1
    50     7    13    1
    51    34    35    1
    52    34    37    1
