@<TRIPOS>MOLECULE
mol_data/opt/cam/geoms/mol2/4ea4ea-.out
 26 27 0 0 0
SMALL
GASTEIGER

@<TRIPOS>ATOM
      1 C          -0.0017    0.1057    0.1488 C.ar    1  LIG1        0.0253
      2 C           1.3933    0.1451    0.2303 C.ar    1  LIG1       -0.0386
      3 C          -0.6835    1.1708   -0.4478 C.ar    1  LIG1       -0.0463
      4 C           2.1132    1.2293   -0.2691 C.ar    1  LIG1       -0.0156
      5 H           1.9165   -0.6772    0.7056 H       1  LIG1        0.0636
      6 C           0.0284    2.2507   -0.9485 C.ar    1  LIG1       -0.0600
      7 C           1.4137    2.2843   -0.8609 C.ar    1  LIG1       -0.0539
      8 H          -0.5008    3.0739   -1.4170 H       1  LIG1        0.0618
      9 H          -1.7652    1.1412   -0.5128 H       1  LIG1        0.0630
     10 C          -0.7229   -1.0152    0.6747 C.1     1  LIG1       -0.0696
     11 C          -1.3299   -1.9568    1.1153 C.1     1  LIG1       -0.1139
     12 H          -1.8661   -2.7901    1.5071 H       1  LIG1        0.1232
     13 H           1.9603    3.1299   -1.2613 H       1  LIG1        0.0624
     14 C           4.3437    2.3140    0.2849 C.ar    1  LIG1        0.0324
     15 C           5.7419    2.2389    0.3171 C.ar    1  LIG1       -0.0457
     16 C           3.5980    1.2213   -0.2022 C.ar    1  LIG1       -0.0025
     17 C           6.4060    1.1043   -0.1194 C.ar    1  LIG1       -0.0606
     18 H           6.2973    3.0874    0.7006 H       1  LIG1        0.0630
     19 C           4.2898    0.0871   -0.6323 C.ar    1  LIG1       -0.0529
     20 C           5.6753    0.0220   -0.5945 C.ar    1  LIG1       -0.0611
     21 H           3.7216   -0.7512   -1.0213 H       1  LIG1        0.0624
     22 H           7.4896    1.0652   -0.0874 H       1  LIG1        0.0618
     23 C           3.7217    3.5036    0.7892 C.1     1  LIG1       -0.0691
     24 C           3.2503    4.5198    1.2303 C.1     1  LIG1       -0.1139
     25 H           2.8177    5.4113    1.6222 H       1  LIG1        0.1232
     26 H           6.1831   -0.8715   -0.9426 H       1  LIG1        0.0618
@<TRIPOS>BOND
     1     8     6    1
     2    13     7    1
     3    21    19    1
     4     6     7   ar
     5     6     3   ar
     6    26    20    1
     7     7     4   ar
     8    19    20   ar
     9    19    16   ar
    10    20    17   ar
    11     9     3    1
    12     3     1   ar
    13     4    16    1
    14     4     2   ar
    15    16    14   ar
    16    17    22    1
    17    17    15   ar
    18     1     2   ar
    19     1    10    1
    20     2     5    1
    21    14    15   ar
    22    14    23    1
    23    15    18    1
    24    10    11    3
    25    23    24    3
    26    11    12    1
    27    24    25    1
