@<TRIPOS>MOLECULE
mol_data/opt/cam/geoms/mol2/4ea4ea-4ea-4ea-.out
 50 53 0 0 0
SMALL
GASTEIGER

@<TRIPOS>ATOM
      1 C          -0.1916    0.0020   -0.3208 C.ar    1  LIG1        0.0253
      2 C           1.2001    0.0634   -0.2037 C.ar    1  LIG1       -0.0386
      3 C          -0.9249    1.1895   -0.4065 C.ar    1  LIG1       -0.0463
      4 C           1.8665    1.2875   -0.1674 C.ar    1  LIG1       -0.0156
      5 H           1.7630   -0.8599   -0.1237 H       1  LIG1        0.0636
      6 C          -0.2665    2.4099   -0.3734 C.ar    1  LIG1       -0.0600
      7 C           1.1158    2.4630   -0.2537 C.ar    1  LIG1       -0.0539
      8 H          -0.8356    3.3307   -0.4463 H       1  LIG1        0.0618
      9 H          -2.0041    1.1436   -0.4983 H       1  LIG1        0.0630
     10 C          -0.8569   -1.2667   -0.3493 C.1     1  LIG1       -0.0696
     11 C          -1.4166   -2.3322   -0.3744 C.1     1  LIG1       -0.1139
     12 H          -1.9118   -3.2755   -0.3953 H       1  LIG1        0.1232
     13 H           1.6204    3.4216   -0.2354 H       1  LIG1        0.0624
     14 C           4.0486    2.1303    0.8311 C.ar    1  LIG1        0.0329
     15 C           5.4465    2.1117    0.8548 C.ar    1  LIG1       -0.0380
     16 C           3.3492    1.3158   -0.0824 C.ar    1  LIG1       -0.0024
     17 C           6.1815    1.2986   -0.0035 C.ar    1  LIG1       -0.0155
     18 H           5.9575    2.7388    1.5745 H       1  LIG1        0.0636
     19 C           4.0964    0.5010   -0.9338 C.ar    1  LIG1       -0.0523
     20 C           5.4816    0.4862   -0.8982 C.ar    1  LIG1       -0.0533
     21 H           3.5739   -0.1170   -1.6564 H       1  LIG1        0.0624
     22 C           3.3759    2.9616    1.7870 C.1     1  LIG1       -0.0690
     23 C           2.8583    3.6686    2.6125 C.1     1  LIG1       -0.1139
     24 H           2.3875    4.2855    3.3427 H       1  LIG1        0.1232
     25 H           6.0301   -0.1440   -1.5906 H       1  LIG1        0.0624
     26 C           8.4710    2.4047    0.0496 C.ar    1  LIG1        0.0329
     27 C           9.8632    2.2834    0.0960 C.ar    1  LIG1       -0.0380
     28 C           7.6643    1.2487    0.0484 C.ar    1  LIG1       -0.0024
     29 C          10.4877    1.0402    0.1406 C.ar    1  LIG1       -0.0155
     30 H          10.4592    3.1874    0.0951 H       1  LIG1        0.0636
     31 C           8.3016    0.0081    0.0884 C.ar    1  LIG1       -0.0523
     32 C           9.6822   -0.1004    0.1368 C.ar    1  LIG1       -0.0533
     33 H           7.6943   -0.8909    0.0981 H       1  LIG1        0.0624
     34 C           7.9168    3.7253   -0.0246 C.1     1  LIG1       -0.0690
     35 C           7.4990    4.8523   -0.0924 C.1     1  LIG1       -0.1139
     36 H           7.1137    5.8440   -0.1520 H       1  LIG1        0.1232
     37 H          10.1439   -1.0820    0.1613 H       1  LIG1        0.0624
     38 C          12.8443    1.6013   -0.6277 C.ar    1  LIG1        0.0324
     39 C          14.2270    1.4313   -0.4840 C.ar    1  LIG1       -0.0457
     40 C          11.9648    0.9122    0.2322 C.ar    1  LIG1       -0.0025
     41 C          14.7461    0.5926    0.4885 C.ar    1  LIG1       -0.0606
     42 H          14.8869    1.9657   -1.1581 H       1  LIG1        0.0630
     43 C          12.5116    0.0685    1.2014 C.ar    1  LIG1       -0.0529
     44 C          13.8832   -0.0941    1.3342 C.ar    1  LIG1       -0.0611
     45 H          11.8400   -0.4530    1.8753 H       1  LIG1        0.0624
     46 H          15.8201    0.4748    0.5849 H       1  LIG1        0.0618
     47 C          12.3752    2.4540   -1.6806 C.1     1  LIG1       -0.0691
     48 C          12.0309    3.1739   -2.5820 C.1     1  LIG1       -0.1139
     49 H          11.7074    3.8076   -3.3753 H       1  LIG1        0.1232
     50 H          14.2768   -0.7512    2.1026 H       1  LIG1        0.0618
@<TRIPOS>BOND
     1    49    48    1
     2    48    47    3
     3    47    38    1
     4    21    19    1
     5    25    20    1
     6    42    39    1
     7    19    20   ar
     8    19    16   ar
     9    20    17   ar
    10    38    39   ar
    11    38    40   ar
    12     9     3    1
    13    39    41   ar
    14     8     6    1
    15     3     6   ar
    16     3     1   ar
    17    12    11    1
    18    11    10    3
    19     6     7   ar
    20    10     1    1
    21     1     2   ar
    22     7    13    1
    23     7     4   ar
    24     2     4   ar
    25     2     5    1
    26     4    16    1
    27    36    35    1
    28    35    34    3
    29    16    14   ar
    30    34    26    1
    31    17    28    1
    32    17    15   ar
    33    28    26   ar
    34    28    31   ar
    35    26    27   ar
    36    31    33    1
    37    31    32   ar
    38    30    27    1
    39    27    29   ar
    40    32    29   ar
    41    32    37    1
    42    29    40    1
    43    40    43   ar
    44    41    46    1
    45    41    44   ar
    46    14    15   ar
    47    14    22    1
    48    15    18    1
    49    43    44   ar
    50    43    45    1
    51    44    50    1
    52    22    23    3
    53    23    24    1
