@<TRIPOS>MOLECULE
mol_data/opt/cam/geoms/mol2/4ea4ea4ea-4ea.out
 50 53 0 0 0
SMALL
GASTEIGER

@<TRIPOS>ATOM
      1 C          -0.3117    0.4424    0.3831 C.ar    1  LIG1        0.0253
      2 C           1.0822    0.3818    0.4597 C.ar    1  LIG1       -0.0386
      3 C          -0.9154    1.2116   -0.6177 C.ar    1  LIG1       -0.0463
      4 C           1.8793    1.0794   -0.4465 C.ar    1  LIG1       -0.0156
      5 H           1.5411   -0.2111    1.2411 H       1  LIG1        0.0636
      6 C          -0.1274    1.9074   -1.5213 C.ar    1  LIG1       -0.0600
      7 C           1.2577    1.8452   -1.4367 C.ar    1  LIG1       -0.0539
      8 H          -0.5944    2.4999   -2.3010 H       1  LIG1        0.0618
      9 H          -1.9971    1.2553   -0.6760 H       1  LIG1        0.0630
     10 C          -1.1157   -0.2740    1.3286 C.1     1  LIG1       -0.0696
     11 C          -1.7938   -0.8744    2.1216 C.1     1  LIG1       -0.1139
     12 H          -2.3917   -1.4057    2.8255 H       1  LIG1        0.1232
     13 H           1.8685    2.3811   -2.1558 H       1  LIG1        0.0624
     14 C           4.1021   -0.1374   -0.2375 C.ar    1  LIG1        0.0329
     15 C           5.4974   -0.0820   -0.1550 C.ar    1  LIG1       -0.0380
     16 C           3.3615    1.0554   -0.3505 C.ar    1  LIG1       -0.0024
     17 C           6.1883    1.1264   -0.1790 C.ar    1  LIG1       -0.0155
     18 H           6.0455   -1.0127   -0.0608 H       1  LIG1        0.0636
     19 C           4.0657    2.2605   -0.3818 C.ar    1  LIG1       -0.0523
     20 C           5.4475    2.3044   -0.2962 C.ar    1  LIG1       -0.0533
     21 H           3.5073    3.1874   -0.4602 H       1  LIG1        0.0624
     22 C           3.4804   -1.4296   -0.2349 C.1     1  LIG1       -0.0690
     23 C           3.0049   -2.5356   -0.2361 C.1     1  LIG1       -0.1139
     24 H           2.5669   -3.5070   -0.2379 H       1  LIG1        0.1232
     25 H           5.9569    3.2603   -0.3217 H       1  LIG1        0.0624
     26 C           8.4015    1.9771    0.7355 C.ar    1  LIG1        0.0329
     27 C           9.7996    1.9318    0.7296 C.ar    1  LIG1       -0.0380
     28 C           7.6718    1.1336   -0.1251 C.ar    1  LIG1       -0.0024
     29 C          10.5040    1.0664   -0.1026 C.ar    1  LIG1       -0.0155
     30 H          10.3388    2.5762    1.4148 H       1  LIG1        0.0636
     31 C           8.3892    0.2684   -0.9536 C.ar    1  LIG1       -0.0523
     32 C           9.7738    0.2282   -0.9477 C.ar    1  LIG1       -0.0533
     33 H           7.8412   -0.3713   -1.6373 H       1  LIG1        0.0624
     34 C           7.7645    2.8674    1.6619 C.1     1  LIG1       -0.0690
     35 C           7.2778    3.6255    2.4605 C.1     1  LIG1       -0.1139
     36 H           6.8327    4.2863    3.1682 H       1  LIG1        0.1232
     37 H          10.2936   -0.4479   -1.6160 H       1  LIG1        0.0624
     38 C          12.7639   -0.0918   -0.0248 C.ar    1  LIG1        0.0324
     39 C          14.1614   -0.0018   -0.0341 C.ar    1  LIG1       -0.0457
     40 C          11.9893    1.0835   -0.1043 C.ar    1  LIG1       -0.0025
     41 C          14.7971    1.2262   -0.1161 C.ar    1  LIG1       -0.0606
     42 H          14.7396   -0.9165    0.0337 H       1  LIG1        0.0630
     43 C          12.6529    2.3098   -0.1817 C.ar    1  LIG1       -0.0529
     44 C          14.0382    2.3881   -0.1878 C.ar    1  LIG1       -0.0611
     45 H          12.0622    3.2166   -0.2578 H       1  LIG1        0.0624
     46 H          15.8807    1.2756   -0.1226 H       1  LIG1        0.0618
     47 C          12.1742   -1.3926    0.1042 C.1     1  LIG1       -0.0691
     48 C          11.7308   -2.5057    0.2219 C.1     1  LIG1       -0.1139
     49 H          11.3235   -3.4845    0.3301 H       1  LIG1        0.1232
     50 H          14.5235    3.3561   -0.2559 H       1  LIG1        0.0618
@<TRIPOS>BOND
     1     8     6    1
     2    13     7    1
     3    33    31    1
     4    37    32    1
     5     6     7   ar
     6     6     3   ar
     7     7     4   ar
     8    31    32   ar
     9    31    28   ar
    10    32    29   ar
    11     9     3    1
    12     3     1   ar
    13    21    19    1
    14     4    16    1
    15     4     2   ar
    16    19    16   ar
    17    19    20   ar
    18    16    14   ar
    19    25    20    1
    20    20    17   ar
    21    45    43    1
    22    50    44    1
    23    24    23    1
    24    14    22    1
    25    14    15   ar
    26    23    22    3
    27    44    43   ar
    28    44    41   ar
    29    43    40   ar
    30    17    15   ar
    31    17    28    1
    32    15    18    1
    33    28    26   ar
    34    46    41    1
    35    41    39   ar
    36    40    29    1
    37    40    38   ar
    38    29    27   ar
    39    39    38   ar
    40    39    42    1
    41    38    47    1
    42    47    48    3
    43    48    49    1
    44     1     2   ar
    45     1    10    1
    46     2     5    1
    47    27    26   ar
    48    27    30    1
    49    26    34    1
    50    10    11    3
    51    34    35    3
    52    11    12    1
    53    35    36    1
