@<TRIPOS>MOLECULE
mol_data/opt/cam/geoms/mol2/4ea4ea-4ea4ea-.out
 50 53 0 0 0
SMALL
GASTEIGER

@<TRIPOS>ATOM
      1 C          -0.2619    0.1179    0.0603 C.ar    1  LIG1        0.0253
      2 C           1.1334    0.1347    0.1438 C.ar    1  LIG1       -0.0386
      3 C          -0.9274    1.2073   -0.5104 C.ar    1  LIG1       -0.0463
      4 C           1.8699    1.2202   -0.3285 C.ar    1  LIG1       -0.0156
      5 H           1.6440   -0.7064    0.5995 H       1  LIG1        0.0636
      6 C          -0.1992    2.2886   -0.9839 C.ar    1  LIG1       -0.0600
      7 C           1.1864    2.2996   -0.8946 C.ar    1  LIG1       -0.0539
      8 H          -0.7158    3.1307   -1.4323 H       1  LIG1        0.0618
      9 H          -2.0094    1.1952   -0.5767 H       1  LIG1        0.0630
     10 C          -1.0001   -1.0049    0.5581 C.1     1  LIG1       -0.0696
     11 C          -1.6214   -1.9480    0.9749 C.1     1  LIG1       -0.1139
     12 H          -2.1709   -2.7826    1.3448 H       1  LIG1        0.1232
     13 H           1.7455    3.1468   -1.2736 H       1  LIG1        0.0624
     14 C           4.1204    2.2607    0.2348 C.ar    1  LIG1        0.0329
     15 C           5.5152    2.1602    0.2654 C.ar    1  LIG1       -0.0380
     16 C           3.3534    1.1879   -0.2605 C.ar    1  LIG1       -0.0024
     17 C           6.1806    1.0194   -0.1754 C.ar    1  LIG1       -0.0155
     18 H           6.0828    2.9907    0.6699 H       1  LIG1        0.0636
     19 C           4.0315    0.0484   -0.6974 C.ar    1  LIG1       -0.0523
     20 C           5.4131   -0.0428   -0.6579 C.ar    1  LIG1       -0.0533
     21 H           3.4551   -0.7770   -1.1015 H       1  LIG1        0.0624
     22 C           3.5243    3.4567    0.7554 C.1     1  LIG1       -0.0690
     23 C           3.0739    4.4769    1.2091 C.1     1  LIG1       -0.1139
     24 H           2.6604    5.3717    1.6138 H       1  LIG1        0.1232
     25 H           5.9019   -0.9395   -1.0198 H       1  LIG1        0.0624
     26 C           8.3931   -0.1193    0.3429 C.ar    1  LIG1        0.0329
     27 C           9.7915   -0.0915    0.3191 C.ar    1  LIG1       -0.0380
     28 C           7.6643    0.9754   -0.1623 C.ar    1  LIG1       -0.0024
     29 C          10.4973    0.9969   -0.1859 C.ar    1  LIG1       -0.0155
     30 H          10.3306   -0.9370    0.7315 H       1  LIG1        0.0636
     31 C           8.3832    2.0621   -0.6642 C.ar    1  LIG1       -0.0523
     32 C           9.7681    2.0814   -0.6780 C.ar    1  LIG1       -0.0533
     33 H           7.8353    2.9026   -1.0768 H       1  LIG1        0.0624
     34 C           7.7568   -1.2637    0.9278 C.1     1  LIG1       -0.0690
     35 C           7.2720   -2.2424    1.4343 C.1     1  LIG1       -0.1139
     36 H           6.8292   -3.1001    1.8858 H       1  LIG1        0.1232
     37 H          10.2886    2.9382   -1.0888 H       1  LIG1        0.0624
     38 C          12.7797    2.0331    0.2273 C.ar    1  LIG1        0.0324
     39 C          14.1749    1.9350    0.1559 C.ar    1  LIG1       -0.0457
     40 C          11.9816    0.9637   -0.2280 C.ar    1  LIG1       -0.0025
     41 C          14.7857    0.8002   -0.3522 C.ar    1  LIG1       -0.0606
     42 H          14.7714    2.7654    0.5164 H       1  LIG1        0.0630
     43 C          12.6205   -0.1712   -0.7320 C.ar    1  LIG1       -0.0529
     44 C          14.0037   -0.2593   -0.7962 C.ar    1  LIG1       -0.0611
     45 H          12.0115   -0.9912   -1.0977 H       1  LIG1        0.0624
     46 H          15.8679    0.7431   -0.3999 H       1  LIG1        0.0618
     47 C          12.2175    3.2200    0.8030 C.1     1  LIG1       -0.0691
     48 C          11.7984    4.2328    1.3012 C.1     1  LIG1       -0.1139
     49 H          11.4128    5.1214    1.7453 H       1  LIG1        0.1232
     50 H          14.4692   -1.1524   -1.1996 H       1  LIG1        0.0618
@<TRIPOS>BOND
     1     8     6    1
     2    13     7    1
     3    50    44    1
     4    21    19    1
     5    45    43    1
     6    37    32    1
     7    33    31    1
     8    25    20    1
     9     6     7   ar
    10     6     3   ar
    11     7     4   ar
    12    44    43   ar
    13    44    41   ar
    14    43    40   ar
    15    19    20   ar
    16    19    16   ar
    17    32    31   ar
    18    32    29   ar
    19    31    28   ar
    20    20    17   ar
    21     9     3    1
    22     3     1   ar
    23    46    41    1
    24    41    39   ar
    25     4    16    1
    26     4     2   ar
    27    16    14   ar
    28    40    29    1
    29    40    38   ar
    30    29    27   ar
    31    17    28    1
    32    17    15   ar
    33    28    26   ar
    34     1     2   ar
    35     1    10    1
    36     2     5    1
    37    39    38   ar
    38    39    42    1
    39    38    47    1
    40    14    15   ar
    41    14    22    1
    42    15    18    1
    43    27    26   ar
    44    27    30    1
    45    26    34    1
    46    10    11    3
    47    22    23    3
    48    47    48    3
    49    34    35    3
    50    11    12    1
    51    23    24    1
    52    48    49    1
    53    35    36    1
