@<TRIPOS>MOLECULE
mol_data/opt/cam/geoms/mol2/4ea6di-13he-6ef.out
 51 54 0 0 0
SMALL
GASTEIGER

@<TRIPOS>ATOM
      1 C          -0.1599    0.1799   -0.2887 C.ar    1  LIG1        0.0253
      2 C           1.2368    0.1550   -0.2933 C.ar    1  LIG1       -0.0385
      3 C          -0.8228    1.3147    0.1906 C.ar    1  LIG1       -0.0463
      4 C           1.9763    1.2425    0.1717 C.ar    1  LIG1       -0.0140
      5 H           1.7458   -0.7195   -0.6833 H       1  LIG1        0.0636
      6 C          -0.0918    2.3971    0.6556 C.ar    1  LIG1       -0.0600
      7 C           1.2966    2.3659    0.6506 C.ar    1  LIG1       -0.0539
      8 H          -0.6066    3.2744    1.0317 H       1  LIG1        0.0618
      9 H          -1.9065    1.3362    0.1931 H       1  LIG1        0.0630
     10 C          -0.9017   -0.9451   -0.7750 C.1     1  LIG1       -0.0696
     11 C          -1.5259   -1.8904   -1.1818 C.1     1  LIG1       -0.1139
     12 H          -2.0795   -2.7258   -1.5442 H       1  LIG1        0.1232
     13 H           1.8519    3.2148    1.0317 H       1  LIG1        0.0624
     14 C           4.2973    2.1989   -0.2550 C.ar    1  LIG1        0.1484
     15 C           3.4563    1.1657    0.1738 C.ar    1  LIG1        0.0183
     16 C           4.1114    0.0229    0.6399 C.ar    1  LIG1       -0.0463
     17 C           5.4940   -0.0937    0.6588 C.ar    1  LIG1       -0.0223
     18 C           6.2303    0.9812    0.1097 C.ar    1  LIG1        0.0933
     19 N           5.6238    2.1026   -0.2945 N.ar    1  LIG1       -0.2339
     20 H           3.5134   -0.7831    1.0542 H       1  LIG1        0.0628
     21 N           3.4539    4.5133   -1.0936 N.1     1  LIG1       -0.1893
     22 C           3.7965    3.4728   -0.7235 C.1     1  LIG1        0.1197
     23 C           6.1448   -1.2541    1.3521 C.3     1  LIG1       -0.0376
     24 H           6.7141   -0.8946    2.2157 H       1  LIG1        0.0278
     25 H           6.8649   -1.7810    0.7233 H       1  LIG1        0.0278
     26 H           5.3921   -1.9585    1.7108 H       1  LIG1        0.0278
     27 C           7.6877    1.0406   -0.0011 C.ar    1  LIG1        0.0878
     28 C           8.7056    0.1433   -0.2957 C.ar    1  LIG1        0.0679
     29 C           9.9223    0.8847   -0.3415 C.ar    1  LIG1        0.0713
     30 C           9.6054    2.2304   -0.1095 C.ar    1  LIG1        0.0672
     31 N           8.2693    2.2844    0.0770 N.ar    1  LIG1       -0.3504
     32 H           7.7228    3.1331    0.1442 H       1  LIG1        0.1660
     33 N           8.6131   -1.2274   -0.5584 N.pl3   1  LIG1       -0.3553
     34 H           7.9311   -1.4463   -1.2745 H       1  LIG1        0.1424
     35 H           9.5159   -1.6055   -0.8233 H       1  LIG1        0.1424
     36 C          11.1718    0.2900   -0.6518 C.1     1  LIG1       -0.0657
     37 C          12.1957   -0.2867   -0.9255 C.1     1  LIG1       -0.1138
     38 H          13.1132   -0.7708   -1.1693 H       1  LIG1        0.1232
     39 C          10.0005    4.7381   -0.2603 C.ar    1  LIG1        0.1225
     40 C          10.4673    3.4144   -0.0602 C.ar    1  LIG1        0.0368
     41 C          11.8273    3.2522    0.2019 C.ar    1  LIG1       -0.0069
     42 C          12.6591    4.3586    0.2448 C.ar    1  LIG1        0.1356
     43 C          12.1011    5.6189    0.0351 C.ar    1  LIG1        0.0704
     44 N          10.8141    5.7985   -0.2069 N.ar    1  LIG1       -0.2424
     45 H          12.2480    2.2702    0.3739 H       1  LIG1        0.0662
     46 H          12.7252    6.5121    0.0673 H       1  LIG1        0.0867
     47 C           8.6250    5.0467   -0.5488 C.1     1  LIG1       -0.0491
     48 C           7.4732    5.3105   -0.7851 C.1     1  LIG1       -0.1124
     49 H           6.4494    5.5211   -1.0057 H       1  LIG1        0.1232
     50 O          13.9756    4.1683    0.5005 O.3     1  LIG1       -0.5052
     51 H          14.4302    5.0196    0.5090 H       1  LIG1        0.2922
@<TRIPOS>BOND
     1    12    11    1
     2    34    33    1
     3    11    10    3
     4    38    37    1
     5    21    22    3
     6    49    48    1
     7    37    36    3
     8    35    33    1
     9    48    47    3
    10    10     1    1
    11    22    14    1
    12     5     2    1
    13    36    29    1
    14    33    28    1
    15    47    39    1
    16    29    28   ar
    17    29    30   ar
    18    28    27   ar
    19    19    14   ar
    20    19    18   ar
    21     2     1   ar
    22     2     4   ar
    23     1     3   ar
    24    39    44   ar
    25    39    40   ar
    26    14    15   ar
    27    44    43   ar
    28    30    40    1
    29    30    31   ar
    30    40    41   ar
    31    27    31   ar
    32    27    18    1
    33    43    46    1
    34    43    42   ar
    35    31    32    1
    36    18    17   ar
    37     4    15    1
    38     4     7   ar
    39    15    16   ar
    40     3     9    1
    41     3     6   ar
    42    41    42   ar
    43    41    45    1
    44    42    50    1
    45    50    51    1
    46    16    17   ar
    47    16    20    1
    48     7     6   ar
    49     7    13    1
    50     6     8    1
    51    17    23    1
    52    25    23    1
    53    23    26    1
    54    23    24    1
