@<TRIPOS>MOLECULE
mol_data/opt/cam/geoms/mol2/4ed12ee-6ih-6il.out
 56 59 0 0 0
SMALL
GASTEIGER

@<TRIPOS>ATOM
      1 C          -0.0747   -0.2459    0.4443 C.ar    1  LIG1        0.0254
      2 C           1.3108   -0.1104    0.3575 C.ar    1  LIG1       -0.0344
      3 C          -0.8980    0.8162    0.0536 C.ar    1  LIG1       -0.0451
      4 C           1.9016    1.0596   -0.1224 C.ar    1  LIG1        0.0370
      5 H           1.9391   -0.9319    0.6746 H       1  LIG1        0.0637
      6 C          -0.3303    1.9825   -0.4210 C.ar    1  LIG1       -0.0425
      7 C           1.0581    2.1188   -0.5191 C.ar    1  LIG1        0.0625
      8 H          -0.9583    2.8092   -0.7319 H       1  LIG1        0.0631
      9 H          -1.9744    0.7174    0.1252 H       1  LIG1        0.0630
     10 C          -0.6463   -1.4595    0.9431 C.1     1  LIG1       -0.0696
     11 C          -1.1318   -2.4780    1.3614 C.1     1  LIG1       -0.1139
     12 H          -1.5607   -3.3803    1.7332 H       1  LIG1        0.1232
     13 N           1.8624    4.3708   -1.5144 N.1     1  LIG1       -0.1908
     14 C           1.5474    3.3534   -1.0626 C.1     1  LIG1        0.0999
     15 C           3.3565    1.1401   -0.1912 C.ar    1  LIG1        0.1535
     16 C           4.3442    0.1929   -0.2855 C.ar    1  LIG1        0.0864
     17 C           5.5920    0.9150   -0.3066 C.ar    1  LIG1        0.0864
     18 C           5.2710    2.2484   -0.2271 C.ar    1  LIG1        0.1540
     19 O           3.9227    2.3715   -0.1554 O.2     1  LIG1       -0.4522
     20 C           4.2140   -1.2173   -0.3705 C.1     1  LIG1       -0.0646
     21 C           4.1296   -2.4157   -0.4433 C.1     1  LIG1       -0.1138
     22 H           4.0565   -3.4767   -0.5149 H       1  LIG1        0.1232
     23 C           6.8781    0.3191   -0.3712 C.1     1  LIG1       -0.0646
     24 C           7.9565   -0.2127   -0.4263 C.1     1  LIG1       -0.1138
     25 H           8.9109   -0.6856   -0.4626 H       1  LIG1        0.1232
     26 C           5.7065    4.6509    0.4325 C.ar    1  LIG1        0.0497
     27 C           6.0841    3.4619   -0.2246 C.ar    1  LIG1        0.0413
     28 C           7.3012    3.4404   -0.9014 C.ar    1  LIG1       -0.0265
     29 C           8.1296    4.5564   -0.9177 C.ar    1  LIG1        0.0516
     30 C           7.6815    5.6941   -0.2217 C.ar    1  LIG1        0.0937
     31 N           6.5091    5.7120    0.4116 N.ar    1  LIG1       -0.2493
     32 H           7.6068    2.5436   -1.4288 H       1  LIG1        0.0644
     33 C           4.4188    4.8236    1.1903 C.3     1  LIG1       -0.0216
     34 H           4.2097    3.9749    1.8460 H       1  LIG1        0.0293
     35 H           3.5710    4.9258    0.5074 H       1  LIG1        0.0293
     36 H           4.4962    5.7302    1.7898 H       1  LIG1        0.0293
     37 N           9.3588    4.5204   -1.5727 N.pl3   1  LIG1       -0.3563
     38 H           9.4190    3.8286   -2.3061 H       1  LIG1        0.1424
     39 H           9.7038    5.4220   -1.8708 H       1  LIG1        0.1424
     40 C           7.9896    8.1908   -0.4977 C.ar    1  LIG1        0.0477
     41 C           8.5043    6.9342   -0.1456 C.ar    1  LIG1        0.0266
     42 C           9.8208    6.8503    0.3176 C.ar    1  LIG1       -0.0075
     43 C          10.5768    8.0083    0.4281 C.ar    1  LIG1        0.1387
     44 C           9.9791    9.2128    0.0574 C.ar    1  LIG1        0.0695
     45 N           8.7366    9.2975   -0.3919 N.ar    1  LIG1       -0.2559
     46 H          10.2247    5.8827    0.5894 H       1  LIG1        0.0662
     47 H          10.5548   10.1321    0.1343 H       1  LIG1        0.0867
     48 C           6.5912    8.3837   -1.0162 C.3     1  LIG1       -0.0217
     49 H           5.8579    8.2415   -0.2195 H       1  LIG1        0.0293
     50 H           6.3450    7.6631   -1.8008 H       1  LIG1        0.0293
     51 H           6.5012    9.3948   -1.4129 H       1  LIG1        0.0293
     52 O          11.8599    8.0747    0.8678 O.3     1  LIG1       -0.4936
     53 C          12.4800    6.8712    1.2673 C.3     1  LIG1        0.0789
     54 H          13.4869    7.1383    1.5868 H       1  LIG1        0.0660
     55 H          11.9492    6.4022    2.1041 H       1  LIG1        0.0660
     56 H          12.5434    6.1546    0.4397 H       1  LIG1        0.0660
@<TRIPOS>BOND
     1    38    37    1
     2    39    37    1
     3    50    48    1
     4    37    29    1
     5    13    14    3
     6    32    28    1
     7    51    48    1
     8    14     7    1
     9    48    40    1
    10    48    49    1
    11    29    28   ar
    12    29    30   ar
    13    28    27   ar
    14     8     6    1
    15     7     6   ar
    16     7     4   ar
    17    22    21    1
    18    40    45   ar
    19    40    41   ar
    20    25    24    1
    21    21    20    3
    22    24    23    3
    23     6     3   ar
    24    45    44   ar
    25    23    17    1
    26    20    16    1
    27    17    16   ar
    28    17    18   ar
    29    16    15   ar
    30    18    27    1
    31    18    19   ar
    32    27    26   ar
    33    30    41    1
    34    30    31   ar
    35    15    19   ar
    36    15     4    1
    37    41    42   ar
    38     4     2   ar
    39     3     9    1
    40     3     1   ar
    41    44    47    1
    42    44    43   ar
    43    42    43   ar
    44    42    46    1
    45     2     1   ar
    46     2     5    1
    47    31    26   ar
    48    43    52    1
    49    26    33    1
    50    56    53    1
    51     1    10    1
    52    35    33    1
    53    52    53    1
    54    10    11    3
    55    33    36    1
    56    33    34    1
    57    53    54    1
    58    53    55    1
    59    11    12    1
