@<TRIPOS>MOLECULE
mol_data/opt/cam/geoms/mol2/4ed13dl-13li-4ll.out
 61 64 0 0 0
SMALL
GASTEIGER

@<TRIPOS>ATOM
      1 C          -0.4857    0.1175    0.5126 C.ar    1  LIG1        0.0254
      2 C           0.8993    0.0050    0.3947 C.ar    1  LIG1       -0.0359
      3 C          -1.0991    1.3692    0.3707 C.ar    1  LIG1       -0.0451
      4 C           1.7072    1.1128    0.1225 C.ar    1  LIG1        0.0182
      5 H           1.3507   -0.9700    0.5210 H       1  LIG1        0.0637
      6 C          -0.3232    2.4794    0.1098 C.ar    1  LIG1       -0.0426
      7 C           1.0650    2.3659   -0.0201 C.ar    1  LIG1        0.0610
      8 H          -0.7822    3.4548   -0.0043 H       1  LIG1        0.0631
      9 H          -2.1743    1.4565    0.4678 H       1  LIG1        0.0630
     10 C          -1.2746   -1.0428    0.7922 C.1     1  LIG1       -0.0696
     11 C          -1.9413   -2.0163    1.0270 C.1     1  LIG1       -0.1139
     12 H          -2.5243   -2.8850    1.2317 H       1  LIG1        0.1232
     13 N           2.4249    4.5172   -0.5065 N.1     1  LIG1       -0.1908
     14 C           1.8018    3.5613   -0.3057 C.1     1  LIG1        0.0998
     15 C           3.1523    0.9373   -0.0075 C.ar    1  LIG1        0.0695
     16 C           3.9080   -0.1830   -0.3579 C.ar    1  LIG1        0.1192
     17 C           5.2777    0.1993   -0.3713 C.ar    1  LIG1        0.1647
     18 C           5.3456    1.5392   -0.0246 C.ar    1  LIG1        0.1105
     19 N           4.0500    1.9472    0.1850 N.ar    1  LIG1       -0.3489
     20 H           3.8136    2.8654    0.5258 H       1  LIG1        0.1661
     21 N           3.0531   -2.5284   -0.9974 N.1     1  LIG1       -0.1907
     22 C           3.4369   -1.4738   -0.7125 C.1     1  LIG1        0.1050
     23 O           6.2846   -0.6603   -0.6499 O.3     1  LIG1       -0.4916
     24 C           7.0714   -0.3488   -1.7989 C.3     1  LIG1        0.0789
     25 H           7.7627   -1.1817   -1.9243 H       1  LIG1        0.0660
     26 H           6.4366   -0.2639   -2.6869 H       1  LIG1        0.0660
     27 H           7.6393    0.5717   -1.6518 H       1  LIG1        0.0660
     28 C           6.4323    2.4831    0.0928 C.ar    1  LIG1        0.1095
     29 C           7.7747    2.3405    0.3980 C.ar    1  LIG1        0.1503
     30 C           8.3958    3.6163    0.3658 C.ar    1  LIG1        0.0173
     31 C           7.4069    4.5251    0.0401 C.ar    1  LIG1        0.0571
     32 N           6.2221    3.8366   -0.0885 N.ar    1  LIG1       -0.3497
     33 H           5.4039    4.2353   -0.5264 H       1  LIG1        0.1661
     34 O           8.4513    1.1898    0.6778 O.3     1  LIG1       -0.4927
     35 C           8.0319    0.4955    1.8458 C.3     1  LIG1        0.0789
     36 H           8.7393   -0.3223    1.9883 H       1  LIG1        0.0660
     37 H           8.0559    1.1552    2.7202 H       1  LIG1        0.0660
     38 H           7.0292    0.0777    1.7275 H       1  LIG1        0.0660
     39 C           9.8307    3.8677    0.6957 C.3     1  LIG1       -0.0342
     40 H           9.9618    4.8286    1.1984 H       1  LIG1        0.0279
     41 H          10.4508    3.8853   -0.2044 H       1  LIG1        0.0279
     42 H          10.2076    3.0765    1.3476 H       1  LIG1        0.0279
     43 C           8.4017    6.6671   -0.8350 C.ar    1  LIG1        0.1294
     44 C           8.3552    8.0495   -0.9352 C.ar    1  LIG1       -0.0158
     45 C           7.4124    5.9875   -0.0922 C.ar    1  LIG1        0.0437
     46 C           7.3324    8.7817   -0.3293 C.ar    1  LIG1       -0.0165
     47 H           9.1080    8.5838   -1.5000 H       1  LIG1        0.0655
     48 C           6.3973    6.7312    0.4978 C.ar    1  LIG1       -0.0073
     49 C           6.3438    8.1209    0.3847 C.ar    1  LIG1        0.1209
     50 H           5.6296    6.2368    1.0824 H       1  LIG1        0.0662
     51 H           7.3288    9.8592   -0.4305 H       1  LIG1        0.0655
     52 O           9.3448    5.8922   -1.4403 O.3     1  LIG1       -0.4945
     53 C          10.3317    6.5304   -2.2178 C.3     1  LIG1        0.0788
     54 H          10.9654    5.7376   -2.6150 H       1  LIG1        0.0660
     55 H           9.8905    7.0892   -3.0518 H       1  LIG1        0.0660
     56 H          10.9449    7.2124   -1.6164 H       1  LIG1        0.0660
     57 O           5.3003    8.7263    1.0179 O.3     1  LIG1       -0.4951
     58 C           5.2027   10.1292    0.9288 C.3     1  LIG1        0.0788
     59 H           4.3097   10.4098    1.4870 H       1  LIG1        0.0660
     60 H           6.0740   10.6257    1.3734 H       1  LIG1        0.0660
     61 H           5.0956   10.4627   -0.1105 H       1  LIG1        0.0660
@<TRIPOS>BOND
     1    55    53    1
     2    26    24    1
     3    54    53    1
     4    53    56    1
     5    53    52    1
     6    25    24    1
     7    24    27    1
     8    24    23    1
     9    47    44    1
    10    52    43    1
    11    21    22    3
    12    44    43   ar
    13    44    46   ar
    14    43    45   ar
    15    22    16    1
    16    23    17    1
    17    33    32    1
    18    13    14    3
    19    51    46    1
    20    17    16   ar
    21    17    18   ar
    22    16    15   ar
    23    46    49   ar
    24    14     7    1
    25    41    39    1
    26    61    58    1
    27    45    31    1
    28    45    48   ar
    29    32    31   ar
    30    32    28   ar
    31    18    28    1
    32    18    19   ar
    33     7     6   ar
    34     7     4   ar
    35    15     4    1
    36    15    19   ar
    37     8     6    1
    38    31    30   ar
    39    28    29   ar
    40     6     3   ar
    41     4     2   ar
    42    19    20    1
    43    30    29   ar
    44    30    39    1
    45     3     9    1
    46     3     1   ar
    47    49    48   ar
    48    49    57    1
    49     2     1   ar
    50     2     5    1
    51    29    34    1
    52    48    50    1
    53     1    10    1
    54    34    35    1
    55    39    40    1
    56    39    42    1
    57    10    11    3
    58    58    57    1
    59    58    60    1
    60    58    59    1
    61    11    12    1
    62    38    35    1
    63    35    36    1
    64    35    37    1
