@<TRIPOS>MOLECULE
mol_data/opt/cam/geoms/mol2/4ed13ie-13ai-13ai.out
 50 53 0 0 0
SMALL
GASTEIGER

@<TRIPOS>ATOM
      1 C          -0.1089    0.0905   -0.4509 C.ar    1  LIG1        0.0254
      2 C           1.2838    0.0466   -0.4112 C.ar    1  LIG1       -0.0360
      3 C          -0.7776    1.2917   -0.1783 C.ar    1  LIG1       -0.0451
      4 C           2.0540    1.1686   -0.0864 C.ar    1  LIG1        0.0171
      5 H           1.7806   -0.8799   -0.6640 H       1  LIG1        0.0637
      6 C          -0.0438    2.4191    0.1275 C.ar    1  LIG1       -0.0426
      7 C           1.3537    2.3713    0.1825 C.ar    1  LIG1        0.0609
      8 H          -0.5449    3.3573    0.3373 H       1  LIG1        0.0631
      9 H          -1.8594    1.3281   -0.2158 H       1  LIG1        0.0630
     10 C          -0.8505   -1.0863   -0.7882 C.1     1  LIG1       -0.0696
     11 C          -1.4766   -2.0745   -1.0705 C.1     1  LIG1       -0.1139
     12 H          -2.0298   -2.9506   -1.3212 H       1  LIG1        0.1232
     13 N           2.6211    4.5557    0.7679 N.1     1  LIG1       -0.1908
     14 C           2.0430    3.5813    0.5253 C.1     1  LIG1        0.0998
     15 C           3.5066    1.0635   -0.0301 C.ar    1  LIG1        0.0524
     16 C           4.3348    0.0021    0.3019 C.ar    1  LIG1       -0.0091
     17 C           5.6743    0.4948    0.2847 C.ar    1  LIG1        0.0548
     18 C           5.6295    1.8448   -0.0568 C.ar    1  LIG1        0.0792
     19 N           4.3214    2.1583   -0.2466 N.ar    1  LIG1       -0.3518
     20 H           4.0073    3.0395   -0.6164 H       1  LIG1        0.1660
     21 C           3.9625   -1.3928    0.6927 C.3     1  LIG1       -0.0365
     22 H           4.7608   -1.8342    1.2925 H       1  LIG1        0.0279
     23 H           3.8228   -2.0403   -0.1801 H       1  LIG1        0.0279
     24 H           3.0394   -1.4199    1.2768 H       1  LIG1        0.0279
     25 C           6.8359   -0.2498    0.6182 C.1     1  LIG1       -0.0672
     26 C           7.8093   -0.9010    0.9032 C.1     1  LIG1       -0.1138
     27 H           8.6735   -1.4692    1.1587 H       1  LIG1        0.1232
     28 C           6.6499    2.8595   -0.1535 C.ar    1  LIG1        0.0648
     29 C           8.0035    2.7865   -0.4031 C.ar    1  LIG1       -0.0314
     30 C           8.5290    4.1014   -0.3926 C.ar    1  LIG1       -0.0231
     31 C           7.4714    4.9589   -0.1331 C.ar    1  LIG1        0.0663
     32 N           6.3371    4.1928    0.0038 N.ar    1  LIG1       -0.3516
     33 H           5.4256    4.5555    0.2412 H       1  LIG1        0.1660
     34 H           8.5533    1.8728   -0.5745 H       1  LIG1        0.0642
     35 C           9.9587    4.4888   -0.6051 C.3     1  LIG1       -0.0376
     36 H          10.1956    5.4190   -0.0827 H       1  LIG1        0.0278
     37 H          10.1900    4.6421   -1.6652 H       1  LIG1        0.0278
     38 H          10.6310    3.7097   -0.2366 H       1  LIG1        0.0278
     39 C           7.4328    6.4005    0.0240 C.ar    1  LIG1        0.0634
     40 C           8.1635    7.3997   -0.5821 C.ar    1  LIG1       -0.0321
     41 C           7.7189    8.6513   -0.0703 C.ar    1  LIG1       -0.0325
     42 C           6.7250    8.3736    0.8338 C.ar    1  LIG1        0.0051
     43 N           6.5462    7.0143    0.8806 N.ar    1  LIG1       -0.3593
     44 H           5.9677    6.5356    1.5512 H       1  LIG1        0.1654
     45 H           6.1295    9.0370    1.4431 H       1  LIG1        0.0809
     46 H           8.9120    7.2483   -1.3464 H       1  LIG1        0.0642
     47 C           8.2217   10.0079   -0.4548 C.3     1  LIG1       -0.0383
     48 H           7.7043   10.7925    0.1028 H       1  LIG1        0.0278
     49 H           8.0718   10.2070   -1.5208 H       1  LIG1        0.0278
     50 H           9.2929   10.1114   -0.2548 H       1  LIG1        0.0278
@<TRIPOS>BOND
     1    37    35    1
     2    49    47    1
     3    46    40    1
     4    12    11    1
     5    11    10    3
     6    10     1    1
     7     5     2    1
     8    20    19    1
     9    35    30    1
    10    35    38    1
    11    35    36    1
    12    40    41   ar
    13    40    39   ar
    14    34    29    1
    15    47    50    1
    16    47    41    1
    17    47    48    1
    18     1     2   ar
    19     1     3   ar
    20     2     4   ar
    21    29    30   ar
    22    29    28   ar
    23    30    31   ar
    24    19    18   ar
    25    19    15   ar
    26     9     3    1
    27    23    21    1
    28     3     6   ar
    29    28    18    1
    30    28    32   ar
    31    31    32   ar
    32    31    39    1
    33     4    15    1
    34     4     7   ar
    35    41    42   ar
    36    18    17   ar
    37    15    16   ar
    38    32    33    1
    39    39    43   ar
    40     6     7   ar
    41     6     8    1
    42     7    14    1
    43    17    16   ar
    44    17    25    1
    45    16    21    1
    46    14    13    3
    47    25    26    3
    48    21    24    1
    49    21    22    1
    50    42    43   ar
    51    42    45    1
    52    43    44    1
    53    26    27    1
