@<TRIPOS>MOLECULE
mol_data/opt/cam/geoms/mol2/4ed6ld-13ff-13fe6ie6ee4fe6lf-.out
 104 111 0 0 0
SMALL
GASTEIGER

@<TRIPOS>ATOM
      1 C          -0.2992   -0.0041   -0.0772 C.ar    1  LIG1        0.0253
      2 C           1.0552    0.1429   -0.3922 C.ar    1  LIG1       -0.0372
      3 C          -0.6973    0.0122    1.2632 C.ar    1  LIG1       -0.0451
      4 C           2.0218    0.3007    0.5962 C.ar    1  LIG1        0.0058
      5 H           1.3556    0.1491   -1.4336 H       1  LIG1        0.0636
      6 C           0.2493    0.1641    2.2601 C.ar    1  LIG1       -0.0426
      7 C           1.6014    0.3043    1.9400 C.ar    1  LIG1        0.0597
      8 H          -0.0492    0.1668    3.3021 H       1  LIG1        0.0631
      9 H          -1.7459   -0.0969    1.5129 H       1  LIG1        0.0630
     10 C          -1.2660   -0.1619   -1.1202 C.1     1  LIG1       -0.0696
     11 C          -2.0792   -0.2957   -1.9971 C.1     1  LIG1       -0.1139
     12 H          -2.7983   -0.4148   -2.7750 H       1  LIG1        0.1232
     13 N           3.2897    0.4862    3.8982 N.1     1  LIG1       -0.1909
     14 C           2.5475    0.4124    3.0139 C.1     1  LIG1        0.0998
     15 C           4.2721    1.4842    0.6350 C.ar    1  LIG1        0.2231
     16 C           3.4477    0.4153    0.2121 C.ar    1  LIG1        0.0462
     17 C           4.0455   -0.4985   -0.6306 C.ar    1  LIG1       -0.0294
     18 C           5.3984   -0.3969   -0.9840 C.ar    1  LIG1        0.0800
     19 C           6.1553    0.6426   -0.4131 C.ar    1  LIG1        0.1119
     20 N           5.5522    1.5779    0.3538 N.ar    1  LIG1       -0.2095
     21 H           3.4625   -1.3205   -1.0321 H       1  LIG1        0.0639
     22 O           3.6815    2.4470    1.3522 O.3     1  LIG1       -0.4792
     23 C           4.5082    3.4385    1.9500 C.3     1  LIG1        0.0804
     24 H           3.8345    4.0638    2.5335 H       1  LIG1        0.0660
     25 H           5.2524    2.9766    2.6020 H       1  LIG1        0.0660
     26 H           5.0124    4.0381    1.1884 H       1  LIG1        0.0660
     27 N           6.1791   -2.0346   -2.8240 N.1     1  LIG1       -0.1908
     28 C           5.8880   -1.3018   -1.9772 C.1     1  LIG1        0.1014
     29 C           7.5761    0.8413   -0.5797 C.ar    1  LIG1        0.1126
     30 C           8.6521    0.0065   -0.8445 C.ar    1  LIG1        0.1864
     31 C           9.8347    0.7658   -0.7087 C.ar    1  LIG1        0.1864
     32 C           9.4756    2.0485   -0.3403 C.ar    1  LIG1        0.1128
     33 N           8.1048    2.0921   -0.2869 N.ar    1  LIG1       -0.3458
     34 H           7.5565    2.7269    0.2743 H       1  LIG1        0.1662
     35 O           8.6219   -1.3023   -1.1507 O.3     1  LIG1       -0.5019
     36 H           9.5362   -1.5897   -1.2857 H       1  LIG1        0.2924
     37 O          11.0512    0.2269   -0.9772 O.3     1  LIG1       -0.5019
     38 H          11.7346    0.7130   -0.4835 H       1  LIG1        0.2924
     39 C          10.3196    3.1890   -0.0982 C.ar    1  LIG1        0.1103
     40 C          11.6449    3.2492    0.2578 C.ar    1  LIG1        0.1596
     41 C          12.0335    4.6106    0.3612 C.ar    1  LIG1        0.0920
     42 C          10.9071    5.3768    0.0630 C.ar    1  LIG1        0.0679
     43 N           9.8909    4.4987   -0.1943 N.ar    1  LIG1       -0.3490
     44 H           9.0129    4.7611   -0.6117 H       1  LIG1        0.1661
     45 O          12.4274    2.1597    0.5051 O.3     1  LIG1       -0.5034
     46 H          13.3258    2.4607    0.7017 H       1  LIG1        0.2923
     47 C          13.3346    5.0147    0.7551 C.1     1  LIG1       -0.0638
     48 C          14.4660    5.2659    1.0891 C.1     1  LIG1       -0.1137
     49 H          15.4562    5.5196    1.3914 H       1  LIG1        0.1232
     50 C           9.5925    7.5290    0.3416 C.ar    1  LIG1        0.0481
     51 C          10.7630    6.8309   -0.0227 C.ar    1  LIG1        0.0218
     52 C          11.8404    7.5876   -0.4778 C.ar    1  LIG1       -0.0334
     53 C          11.7535    8.9744   -0.5715 C.ar    1  LIG1        0.0513
     54 C          10.5376    9.5746   -0.1985 C.ar    1  LIG1        0.0893
     55 N           9.5099    8.8537    0.2432 N.ar    1  LIG1       -0.2499
     56 H          12.7584    7.0962   -0.7758 H       1  LIG1        0.0637
     57 C           8.3589    6.8591    0.8871 C.3     1  LIG1       -0.0217
     58 H           8.6006    6.0246    1.5483 H       1  LIG1        0.0293
     59 H           7.7172    6.4830    0.0806 H       1  LIG1        0.0293
     60 H           7.7775    7.6023    1.4315 H       1  LIG1        0.0293
     61 C          12.8663    9.7247   -1.0670 C.1     1  LIG1       -0.0675
     62 C          13.8178   10.3280   -1.4897 C.1     1  LIG1       -0.1138
     63 H          14.6507   10.8755   -1.8675 H       1  LIG1        0.1232
     64 C           9.2541   11.6283   -0.9306 C.ar    1  LIG1        0.1231
     65 C          10.3340   11.0454   -0.2466 C.ar    1  LIG1        0.0366
     66 C          11.1867   11.9013    0.4350 C.ar    1  LIG1       -0.0324
     67 C          10.9697   13.2780    0.4318 C.ar    1  LIG1        0.0514
     68 C           9.8757   13.7667   -0.3114 C.ar    1  LIG1        0.0913
     69 N           9.0469   12.9493   -0.9543 N.ar    1  LIG1       -0.2364
     70 H          12.0206   11.5006    0.9991 H       1  LIG1        0.0638
     71 C           8.3249   10.8406   -1.6932 C.1     1  LIG1       -0.0491
     72 C           7.5489   10.2142   -2.3650 C.1     1  LIG1       -0.1124
     73 H           6.8549    9.6653   -2.9588 H       1  LIG1        0.1232
     74 C          11.8074   14.1199    1.2270 C.1     1  LIG1       -0.0675
     75 C          12.5166   14.7826    1.9384 C.1     1  LIG1       -0.1138
     76 H          13.1376   15.3804    2.5649 H       1  LIG1        0.1232
     77 C          10.4517   16.1774   -0.8128 C.ar    1  LIG1        0.1267
     78 C          10.0801   17.5177   -0.8652 C.ar    1  LIG1       -0.0105
     79 C           9.5359   15.2119   -0.3821 C.ar    1  LIG1        0.0442
     80 C           8.7990   17.9306   -0.5183 C.ar    1  LIG1        0.0062
     81 H          10.7967   18.2568   -1.2138 H       1  LIG1        0.0661
     82 C           8.2492   15.6253   -0.0598 C.ar    1  LIG1       -0.0330
     83 C           7.8609   16.9655   -0.1070 C.ar    1  LIG1        0.0334
     84 H           7.5276   14.8776    0.2475 H       1  LIG1        0.0638
     85 O          11.6794   15.7609   -1.2102 O.3     1  LIG1       -0.5061
     86 H          12.2207   16.5247   -1.4407 H       1  LIG1        0.2922
     87 C           6.5377   17.3262    0.3028 C.1     1  LIG1       -0.0690
     88 C           5.4263   17.6031    0.6737 C.1     1  LIG1       -0.1139
     89 H           4.4422   17.8523    0.9968 H       1  LIG1        0.1232
     90 C           7.4694   19.8914   -1.4204 C.ar    1  LIG1        0.2226
     91 C           8.4703   19.3773   -0.5647 C.ar    1  LIG1        0.0484
     92 C           9.1561   20.2885    0.2149 C.ar    1  LIG1       -0.0058
     93 C           8.8281   21.6452    0.1546 C.ar    1  LIG1        0.1357
     94 C           7.8121   22.0305   -0.6980 C.ar    1  LIG1        0.0728
     95 N           7.1494   21.1661   -1.4760 N.ar    1  LIG1       -0.2172
     96 H           9.9354   19.9598    0.8938 H       1  LIG1        0.0662
     97 H           7.5134   23.0760   -0.7690 H       1  LIG1        0.0868
     98 O           6.8453   19.0105   -2.2246 O.3     1  LIG1       -0.4792
     99 C           5.7763   19.5056   -3.0153 C.3     1  LIG1        0.0804
    100 H           5.3974   18.6452   -3.5659 H       1  LIG1        0.0660
    101 H           4.9882   19.9298   -2.3878 H       1  LIG1        0.0660
    102 H           6.1205   20.2786   -3.7070 H       1  LIG1        0.0660
    103 O           9.5241   22.5102    0.9456 O.3     1  LIG1       -0.5052
    104 H           9.1816   23.4030    0.8190 H       1  LIG1        0.2922
@<TRIPOS>BOND
     1   102    99    1
     2   100    99    1
     3    99   101    1
     4    99    98    1
     5    73    72    1
     6    27    28    3
     7    12    11    1
     8    72    71    3
     9    98    90    1
    10    11    10    3
    11    28    18    1
    12    63    62    1
    13    71    64    1
    14    62    61    3
    15    95    90   ar
    16    95    94   ar
    17    86    85    1
    18     5     2    1
    19    90    91   ar
    20    36    35    1
    21    81    78    1
    22    85    77    1
    23    35    30    1
    24    10     1    1
    25    61    53    1
    26    21    17    1
    27    18    17   ar
    28    18    19   ar
    29    37    31    1
    30    37    38    1
    31    69    64   ar
    32    69    68   ar
    33    64    65   ar
    34    78    77   ar
    35    78    80   ar
    36    30    31   ar
    37    30    29   ar
    38    77    79   ar
    39    56    52    1
    40    97    94    1
    41    31    32   ar
    42    94    93   ar
    43    17    16   ar
    44    44    43    1
    45    29    19    1
    46    29    33   ar
    47    53    52   ar
    48    53    54   ar
    49    91    80    1
    50    91    92   ar
    51    80    83   ar
    52    52    51   ar
    53    19    20   ar
    54     2     1   ar
    55     2     4   ar
    56    79    68    1
    57    79    82   ar
    58    32    33   ar
    59    32    39    1
    60    68    67   ar
    61    33    34    1
    62    65    54    1
    63    65    66   ar
    64    54    55   ar
    65    43    39   ar
    66    43    42   ar
    67    83    82   ar
    68    83    87    1
    69    39    40   ar
    70     1     3   ar
    71    82    84    1
    72    51    42    1
    73    51    50   ar
    74    42    41   ar
    75    59    57    1
    76    93    92   ar
    77    93   103    1
    78    16     4    1
    79    16    15   ar
    80    92    96    1
    81    55    50   ar
    82    40    41   ar
    83    40    45    1
    84    87    88    3
    85    50    57    1
    86    20    15   ar
    87    41    47    1
    88    67    66   ar
    89    67    74    1
    90    66    70    1
    91    45    46    1
    92     4     7   ar
    93    15    22    1
    94    88    89    1
    95    47    48    3
    96   104   103    1
    97    57    60    1
    98    57    58    1
    99    48    49    1
   100    26    23    1
   101    74    75    3
   102     3     9    1
   103     3     6   ar
   104    22    23    1
   105    75    76    1
   106     7     6   ar
   107     7    14    1
   108    23    24    1
   109    23    25    1
   110     6     8    1
   111    14    13    3
