@<TRIPOS>MOLECULE
mol_data/opt/cam/geoms/mol2/4ee.out
 16 16 0 0 0
SMALL
GASTEIGER

@<TRIPOS>ATOM
      1 C           0.0911    0.0277    0.0003 C.ar    1  LIG1        0.0248
      2 C           1.4910    0.0245   -0.0001 C.ar    1  LIG1       -0.0452
      3 C          -0.5862    1.2529    0.0002 C.ar    1  LIG1       -0.0452
      4 C           2.1954    1.2157   -0.0005 C.ar    1  LIG1       -0.0452
      5 H           2.0191   -0.9221    0.0000 H       1  LIG1        0.0630
      6 C           0.1183    2.4441   -0.0002 C.ar    1  LIG1       -0.0452
      7 C           1.5182    2.4409   -0.0006 C.ar    1  LIG1        0.0248
      8 H          -0.4099    3.3907   -0.0003 H       1  LIG1        0.0630
      9 H           3.2794    1.2090   -0.0008 H       1  LIG1        0.0630
     10 H          -1.6702    1.2596    0.0005 H       1  LIG1        0.0630
     11 C          -0.6375   -1.2043    0.0008 C.1     1  LIG1       -0.0697
     12 C          -1.2503   -2.2405    0.0012 C.1     1  LIG1       -0.1139
     13 H          -1.7927   -3.1578    0.0014 H       1  LIG1        0.1232
     14 C           2.2467    3.6729   -0.0010 C.1     1  LIG1       -0.0697
     15 C           2.8596    4.7091   -0.0014 C.1     1  LIG1       -0.1139
     16 H           3.4020    5.6264   -0.0017 H       1  LIG1        0.1232
@<TRIPOS>BOND
     1    16    15    1
     2    15    14    3
     3    14     7    1
     4     9     4    1
     5     7     4   ar
     6     7     6   ar
     7     4     2   ar
     8     8     6    1
     9     6     3   ar
    10     2     5    1
    11     2     1   ar
    12     3     1   ar
    13     3    10    1
    14     1    11    1
    15    11    12    3
    16    12    13    1
