@<TRIPOS>MOLECULE
mol_data/opt/cam/geoms/mol2/4ee13ih13ad12fh-.out
 48 51 0 0 0
SMALL
GASTEIGER

@<TRIPOS>ATOM
      1 C          -0.1018    0.2111   -0.4774 C.ar    1  LIG1        0.0254
      2 C           1.2918    0.2739   -0.4891 C.ar    1  LIG1       -0.0360
      3 C          -0.8213    1.0999    0.3288 C.ar    1  LIG1       -0.0451
      4 C           2.0026    1.1856    0.2961 C.ar    1  LIG1        0.0151
      5 H           1.8351   -0.3903   -1.1481 H       1  LIG1        0.0637
      6 C          -0.1405    2.0231    1.0977 C.ar    1  LIG1       -0.0445
      7 C           1.2590    2.0810    1.1009 C.ar    1  LIG1        0.0339
      8 H          -0.6877    2.7185    1.7241 H       1  LIG1        0.0630
      9 H          -1.9041    1.0623    0.3401 H       1  LIG1        0.0630
     10 C          -0.7854   -0.7423   -1.2982 C.1     1  LIG1       -0.0696
     11 C          -1.3621   -1.5439   -1.9865 C.1     1  LIG1       -0.1139
     12 H          -1.8722   -2.2540   -2.5959 H       1  LIG1        0.1232
     13 C           1.8755    3.0541    1.9535 C.1     1  LIG1       -0.0690
     14 C           2.3468    3.8941    2.6784 C.1     1  LIG1       -0.1139
     15 H           2.7672    4.6154    3.3416 H       1  LIG1        0.1232
     16 C           3.4675    1.1758    0.2389 C.ar    1  LIG1        0.0529
     17 C           4.3451    0.1124    0.0721 C.ar    1  LIG1       -0.0039
     18 C           5.6585    0.6543    0.0824 C.ar    1  LIG1        0.0552
     19 C           5.5554    2.0211    0.2593 C.ar    1  LIG1        0.0845
     20 N           4.2119    2.3254    0.3319 N.ar    1  LIG1       -0.3513
     21 H           3.8455    3.1835    0.7140 H       1  LIG1        0.1660
     22 C           4.0507   -1.3506   -0.0433 C.3     1  LIG1       -0.0359
     23 H           4.8381   -1.9259    0.4527 H       1  LIG1        0.0279
     24 H           4.0026   -1.6958   -1.0838 H       1  LIG1        0.0279
     25 H           3.1024   -1.6125    0.4301 H       1  LIG1        0.0279
     26 N           6.8381   -0.0903   -0.0295 N.pl3   1  LIG1       -0.3561
     27 H           6.7694   -0.8372   -0.7089 H       1  LIG1        0.1424
     28 H           7.6429    0.4893   -0.2358 H       1  LIG1        0.1424
     29 C           6.5908    3.0275    0.3120 C.ar    1  LIG1        0.0665
     30 C           7.8667    2.9854    0.8212 C.ar    1  LIG1       -0.0168
     31 C           8.4770    4.2516    0.5721 C.ar    1  LIG1        0.0807
     32 C           7.5394    5.0465   -0.0772 C.ar    1  LIG1        0.1039
     33 N           6.4109    4.2878   -0.2203 N.ar    1  LIG1       -0.3494
     34 H           5.6098    4.5865   -0.7540 H       1  LIG1        0.1661
     35 H           8.3114    2.1634    1.3613 H       1  LIG1        0.0652
     36 N          10.9151    4.7986    1.2045 N.1     1  LIG1       -0.1908
     37 C           9.8137    4.5872    0.9161 C.1     1  LIG1        0.1014
     38 C           7.5617    6.3935   -0.5812 C.ar    1  LIG1        0.1952
     39 C           8.3631    7.4872   -0.4336 C.ar    1  LIG1        0.1853
     40 C           7.7923    8.5413   -1.2172 C.ar    1  LIG1        0.1057
     41 C           6.6706    8.0263   -1.7819 C.ar    1  LIG1        0.1170
     42 O           6.5116    6.7357   -1.4115 O.2     1  LIG1       -0.4557
     43 H           5.9165    8.4335   -2.4374 H       1  LIG1        0.1050
     44 O           9.4716    7.6262    0.3048 O.3     1  LIG1       -0.5020
     45 H           9.7482    8.5517    0.1934 H       1  LIG1        0.2924
     46 N           8.4102    9.8171   -1.2538 N.pl3   1  LIG1       -0.3527
     47 H           8.8210   10.0255   -2.1570 H       1  LIG1        0.1425
     48 H           7.7774   10.5678   -1.0039 H       1  LIG1        0.1425
@<TRIPOS>BOND
     1    12    11    1
     2    43    41    1
     3    47    46    1
     4    11    10    3
     5    41    42   ar
     6    41    40   ar
     7    42    38   ar
     8    10     1    1
     9    46    40    1
    10    46    48    1
    11    40    39   ar
    12     5     2    1
    13    24    22    1
    14    34    33    1
    15    27    26    1
    16    38    39   ar
    17    38    32    1
    18     2     1   ar
    19     2     4   ar
    20     1     3   ar
    21    39    44    1
    22    28    26    1
    23    33    32   ar
    24    33    29   ar
    25    32    31   ar
    26    22    17    1
    27    22    25    1
    28    22    23    1
    29    26    18    1
    30    17    18   ar
    31    17    16   ar
    32    18    19   ar
    33    45    44    1
    34    16     4    1
    35    16    20   ar
    36    19    29    1
    37    19    20   ar
    38     4     7   ar
    39    29    30   ar
    40     3     9    1
    41     3     6   ar
    42    20    21    1
    43    31    30   ar
    44    31    37    1
    45    30    35    1
    46    37    36    3
    47     6     7   ar
    48     6     8    1
    49     7    13    1
    50    13    14    3
    51    14    15    1
