@<TRIPOS>MOLECULE
mol_data/opt/cam/geoms/mol2/4ee4ee4ee4ee.out
 58 61 0 0 0
SMALL
GASTEIGER

@<TRIPOS>ATOM
      1 C          -0.1495    1.0285    1.3509 C.ar    1  LIG1        0.0253
      2 C           1.2427    0.9957    1.2462 C.ar    1  LIG1       -0.0374
      3 C          -0.9180    1.1176    0.1851 C.ar    1  LIG1       -0.0451
      4 C           1.8823    1.0523    0.0116 C.ar    1  LIG1       -0.0001
      5 H           1.8367    0.9289    2.1497 H       1  LIG1        0.0636
      6 C          -0.2971    1.1698   -1.0479 C.ar    1  LIG1       -0.0446
      7 C           1.0992    1.1388   -1.1563 C.ar    1  LIG1        0.0325
      8 H          -0.8882    1.2318   -1.9544 H       1  LIG1        0.0630
      9 H          -1.9992    1.1439    0.2575 H       1  LIG1        0.0630
     10 C          -0.7789    0.9765    2.6354 C.1     1  LIG1       -0.0696
     11 C          -1.3110    0.9334    3.7144 C.1     1  LIG1       -0.1139
     12 H          -1.7800    0.8961    4.6706 H       1  LIG1        0.1232
     13 C           1.6863    1.1735   -2.4622 C.1     1  LIG1       -0.0691
     14 C           2.1404    1.2012   -3.5768 C.1     1  LIG1       -0.1139
     15 H           2.5589    1.2241   -4.5566 H       1  LIG1        0.1232
     16 C           4.1327    0.0058    0.5129 C.ar    1  LIG1        0.0331
     17 C           5.5275    0.0695    0.4575 C.ar    1  LIG1       -0.0368
     18 C           3.3689    1.0492   -0.0442 C.ar    1  LIG1       -0.0001
     19 C           6.1973    1.1359   -0.1292 C.ar    1  LIG1       -0.0001
     20 H           6.0990   -0.7437    0.8879 H       1  LIG1        0.0636
     21 C           4.0383    2.1118   -0.6377 C.ar    1  LIG1       -0.0368
     22 C           5.4332    2.1773   -0.6902 C.ar    1  LIG1        0.0331
     23 H           3.4664    2.9200   -1.0771 H       1  LIG1        0.0636
     24 C           3.5250   -1.1382    1.1243 C.1     1  LIG1       -0.0690
     25 C           3.0506   -2.1155    1.6427 C.1     1  LIG1       -0.1139
     26 H           2.6180   -2.9760    2.0988 H       1  LIG1        0.1232
     27 C           6.0394    3.3030   -1.3359 C.1     1  LIG1       -0.0690
     28 C           6.5127    4.2619   -1.8887 C.1     1  LIG1       -0.1139
     29 H           6.9461    5.1052   -2.3752 H       1  LIG1        0.1232
     30 C           8.4492    0.1224   -0.6861 C.ar    1  LIG1        0.0331
     31 C           9.8439    0.1880   -0.6307 C.ar    1  LIG1       -0.0368
     32 C           7.6839    1.1643   -0.1276 C.ar    1  LIG1       -0.0001
     33 C          10.5121    1.2511   -0.0367 C.ar    1  LIG1       -0.0001
     34 H          10.4168   -0.6206   -1.0682 H       1  LIG1        0.0636
     35 C           8.3524    2.2312    0.4595 C.ar    1  LIG1       -0.0368
     36 C           9.7471    2.2949    0.5179 C.ar    1  LIG1        0.0331
     37 H           7.7800    3.0448    0.8880 H       1  LIG1        0.0636
     38 C           7.8443   -1.0039   -1.3321 C.1     1  LIG1       -0.0690
     39 C           7.3722   -1.9632   -1.8852 C.1     1  LIG1       -0.1139
     40 H           6.9398   -2.8066   -2.3724 H       1  LIG1        0.1232
     41 C          10.3535    3.4394    1.1296 C.1     1  LIG1       -0.0690
     42 C          10.8268    4.4172    1.6481 C.1     1  LIG1       -0.1139
     43 H          11.2584    5.2781    2.1044 H       1  LIG1        0.1232
     44 C          12.7841    1.1605   -1.1439 C.ar    1  LIG1        0.0325
     45 C          14.1802    1.1296   -1.0325 C.ar    1  LIG1       -0.0446
     46 C          11.9985    1.2480    0.0223 C.ar    1  LIG1       -0.0001
     47 C          14.7985    1.1828    0.2017 C.ar    1  LIG1       -0.0451
     48 H          14.7732    1.0669   -1.9377 H       1  LIG1        0.0630
     49 C          12.6355    1.3057    1.2581 C.ar    1  LIG1       -0.0374
     50 C          14.0275    1.2729    1.3658 C.ar    1  LIG1        0.0253
     51 H          12.0396    1.3733    2.1603 H       1  LIG1        0.0636
     52 H          15.8795    1.1566    0.2765 H       1  LIG1        0.0630
     53 C          12.1998    1.1247   -2.4511 C.1     1  LIG1       -0.0691
     54 C          11.7481    1.0961   -3.5665 C.1     1  LIG1       -0.1139
     55 H          11.3317    1.0729   -4.5473 H       1  LIG1        0.1232
     56 C          14.6542    1.3260    2.6516 C.1     1  LIG1       -0.0696
     57 C          15.1840    1.3701    3.7317 C.1     1  LIG1       -0.1139
     58 H          15.6509    1.4074    4.6889 H       1  LIG1        0.1232
@<TRIPOS>BOND
     1    15    14    1
     2    55    54    1
     3    14    13    3
     4    54    53    3
     5    13     7    1
     6    53    44    1
     7    29    28    1
     8    40    39    1
     9     8     6    1
    10    48    45    1
    11    28    27    3
    12    39    38    3
    13    27    22    1
    14    38    30    1
    15     7     6   ar
    16     7     4   ar
    17    44    45   ar
    18    44    46   ar
    19    23    21    1
    20    34    31    1
    21     6     3   ar
    22    45    47   ar
    23    22    21   ar
    24    22    19   ar
    25    30    31   ar
    26    30    32   ar
    27    21    18   ar
    28    31    33   ar
    29    19    32    1
    30    19    17   ar
    31    32    35   ar
    32    18     4    1
    33    18    16   ar
    34    33    46    1
    35    33    36   ar
    36     4     2   ar
    37    46    49   ar
    38     3     9    1
    39     3     1   ar
    40    47    52    1
    41    47    50   ar
    42    17    16   ar
    43    17    20    1
    44    35    36   ar
    45    35    37    1
    46    16    24    1
    47    36    41    1
    48    24    25    3
    49    41    42    3
    50     2     1   ar
    51     2     5    1
    52    49    50   ar
    53    49    51    1
    54     1    10    1
    55    50    56    1
    56    25    26    1
    57    42    43    1
    58    10    11    3
    59    56    57    3
    60    11    12    1
    61    57    58    1
