@<TRIPOS>MOLECULE
mol_data/opt/cam/geoms/mol2/4ee4ee.out
 30 31 0 0 0
SMALL
GASTEIGER

@<TRIPOS>ATOM
      1 C           0.0101    0.1556    0.6209 C.ar    1  LIG1        0.0253
      2 C           1.4057    0.1644    0.5695 C.ar    1  LIG1       -0.0374
      3 C          -0.6988    1.2164    0.0465 C.ar    1  LIG1       -0.0451
      4 C           2.1061    1.2028   -0.0364 C.ar    1  LIG1       -0.0001
      5 H           1.9540   -0.6561    1.0165 H       1  LIG1        0.0636
      6 C          -0.0170    2.2521   -0.5625 C.ar    1  LIG1       -0.0446
      7 C           1.3829    2.2645   -0.6143 C.ar    1  LIG1        0.0325
      8 H          -0.5619    3.0727   -1.0149 H       1  LIG1        0.0630
      9 H          -1.7821    1.2177    0.0822 H       1  LIG1        0.0630
     10 C          -0.6829   -0.9228    1.2576 C.1     1  LIG1       -0.0696
     11 C          -1.2686   -1.8283    1.7927 C.1     1  LIG1       -0.1139
     12 H          -1.7850   -2.6301    2.2681 H       1  LIG1        0.1232
     13 C           2.0355    3.3536   -1.2773 C.1     1  LIG1       -0.0691
     14 C           2.5456    4.2840   -1.8458 C.1     1  LIG1       -0.1139
     15 H           3.0125    5.1004   -2.3470 H       1  LIG1        0.1232
     16 C           4.3190    0.1196   -0.6086 C.ar    1  LIG1        0.0325
     17 C           5.7188    0.1321   -0.5530 C.ar    1  LIG1       -0.0446
     18 C           3.5942    1.1822   -0.0343 C.ar    1  LIG1       -0.0001
     19 C           6.3989    1.1688    0.0562 C.ar    1  LIG1       -0.0451
     20 H           6.2649   -0.6892   -1.0026 H       1  LIG1        0.0630
     21 C           4.2930    2.2216    0.5718 C.ar    1  LIG1       -0.0374
     22 C           5.6884    2.2305    0.6270 C.ar    1  LIG1        0.0253
     23 H           3.7435    3.0428    1.0160 H       1  LIG1        0.0636
     24 H           7.4821    1.1675    0.0949 H       1  LIG1        0.0630
     25 C           3.6682   -0.9704   -1.2716 C.1     1  LIG1       -0.0691
     26 C           3.1597   -1.9018   -1.8400 C.1     1  LIG1       -0.1139
     27 H           2.6958   -2.7197   -2.3416 H       1  LIG1        0.1232
     28 C           6.3797    3.3099    1.2640 C.1     1  LIG1       -0.0696
     29 C           6.9639    4.2162    1.7992 C.1     1  LIG1       -0.1139
     30 H           7.4796    5.0184    2.2748 H       1  LIG1        0.1232
@<TRIPOS>BOND
     1    15    14    1
     2    27    26    1
     3    14    13    3
     4    26    25    3
     5    13     7    1
     6    25    16    1
     7     8     6    1
     8    20    17    1
     9     7     6   ar
    10     7     4   ar
    11    16    17   ar
    12    16    18   ar
    13     6     3   ar
    14    17    19   ar
    15     4    18    1
    16     4     2   ar
    17    18    21   ar
    18     3     9    1
    19     3     1   ar
    20    19    24    1
    21    19    22   ar
    22     2     1   ar
    23     2     5    1
    24    21    22   ar
    25    21    23    1
    26     1    10    1
    27    22    28    1
    28    10    11    3
    29    28    29    3
    30    11    12    1
    31    29    30    1
