@<TRIPOS>MOLECULE
mol_data/opt/cam/geoms/mol2/4ee4ee4ee.out
 44 46 0 0 0
SMALL
GASTEIGER

@<TRIPOS>ATOM
      1 C          -0.0755    0.5570    1.0863 C.ar    1  LIG1        0.0253
      2 C           1.3185    0.5419    1.0037 C.ar    1  LIG1       -0.0374
      3 C          -0.8097    1.2051    0.0870 C.ar    1  LIG1       -0.0451
      4 C           1.9932    1.1578   -0.0460 C.ar    1  LIG1       -0.0001
      5 H           1.8861    0.0417    1.7790 H       1  LIG1        0.0636
      6 C          -0.1538    1.8169   -0.9637 C.ar    1  LIG1       -0.0446
      7 C           1.2444    1.8051   -1.0485 C.ar    1  LIG1        0.0325
      8 H          -0.7184    2.3143   -1.7439 H       1  LIG1        0.0630
      9 H          -1.8920    1.2218    0.1436 H       1  LIG1        0.0630
     10 C          -0.7414   -0.0786    2.1824 C.1     1  LIG1       -0.0696
     11 C          -1.3042   -0.6119    3.1033 C.1     1  LIG1       -0.1139
     12 H          -1.8005   -1.0838    3.9198 H       1  LIG1        0.1232
     13 C           1.8685    2.4371   -2.1722 C.1     1  LIG1       -0.0691
     14 C           2.3541    2.9759   -3.1329 C.1     1  LIG1       -0.1139
     15 H           2.8004    3.4477   -3.9779 H       1  LIG1        0.1232
     16 C           4.2131   -0.0595   -0.0589 C.ar    1  LIG1        0.0331
     17 C           5.6097   -0.0136   -0.0532 C.ar    1  LIG1       -0.0368
     18 C           3.4805    1.1428   -0.0700 C.ar    1  LIG1       -0.0001
     19 C           6.3109    1.1855   -0.0542 C.ar    1  LIG1       -0.0001
     20 H           6.1574   -0.9482   -0.0482 H       1  LIG1        0.0636
     21 C           4.1817    2.3419   -0.0784 C.ar    1  LIG1       -0.0368
     22 C           5.5784    2.3878   -0.0688 C.ar    1  LIG1        0.0331
     23 H           3.6342    3.2764   -0.0932 H       1  LIG1        0.0636
     24 C           3.5720   -1.3404   -0.0715 C.1     1  LIG1       -0.0690
     25 C           3.0693   -2.4341   -0.0849 C.1     1  LIG1       -0.1139
     26 H           2.6115   -3.3963   -0.0973 H       1  LIG1        0.1232
     27 C           6.2197    3.6685   -0.0926 C.1     1  LIG1       -0.0690
     28 C           6.7225    4.7618   -0.1162 C.1     1  LIG1       -0.1139
     29 H           7.1805    5.7239   -0.1372 H       1  LIG1        0.1232
     30 C           8.5580    0.5092   -0.9974 C.ar    1  LIG1        0.0325
     31 C           9.9552    0.4988   -0.8964 C.ar    1  LIG1       -0.0446
     32 C           7.7979    1.1710   -0.0129 C.ar    1  LIG1       -0.0001
     33 C          10.5991    1.1259    0.1527 C.ar    1  LIG1       -0.0451
     34 H          10.5285   -0.0098   -1.6628 H       1  LIG1        0.0630
     35 C           8.4606    1.8021    1.0353 C.ar    1  LIG1       -0.0374
     36 C           9.8536    1.7884    1.1340 C.ar    1  LIG1        0.0253
     37 H           7.8842    2.3135    1.7968 H       1  LIG1        0.0636
     38 H          11.6806    1.1101    0.2219 H       1  LIG1        0.0630
     39 C           7.9468   -0.1390   -2.1188 C.1     1  LIG1       -0.0691
     40 C           7.4721   -0.6917   -3.0771 C.1     1  LIG1       -0.1139
     41 H           7.0355   -1.1759   -3.9202 H       1  LIG1        0.1232
     42 C          10.5069    2.4399    2.2284 C.1     1  LIG1       -0.0696
     43 C          11.0592    2.9865    3.1478 C.1     1  LIG1       -0.1139
     44 H          11.5462    3.4703    3.9629 H       1  LIG1        0.1232
@<TRIPOS>BOND
     1    15    14    1
     2    41    40    1
     3    14    13    3
     4    40    39    3
     5    13     7    1
     6    39    30    1
     7     8     6    1
     8    34    31    1
     9     7     6   ar
    10     7     4   ar
    11    30    31   ar
    12    30    32   ar
    13     6     3   ar
    14    31    33   ar
    15    29    28    1
    16    28    27    3
    17    26    25    1
    18    23    21    1
    19    27    22    1
    20    25    24    3
    21    21    18   ar
    22    21    22   ar
    23    24    16    1
    24    18    16   ar
    25    18     4    1
    26    22    19   ar
    27    16    17   ar
    28    19    17   ar
    29    19    32    1
    30    17    20    1
    31     4     2   ar
    32    32    35   ar
    33     3     9    1
    34     3     1   ar
    35    33    38    1
    36    33    36   ar
    37     2     1   ar
    38     2     5    1
    39    35    36   ar
    40    35    37    1
    41     1    10    1
    42    36    42    1
    43    10    11    3
    44    42    43    3
    45    11    12    1
    46    43    44    1
