@<TRIPOS>MOLECULE
mol_data/opt/cam/geoms/mol2/4ee4af6li-12le-.out
 56 59 0 0 0
SMALL
GASTEIGER

@<TRIPOS>ATOM
      1 C          -0.3471    0.1939   -0.1923 C.ar    1  LIG1        0.0253
      2 C           1.0479    0.2235   -0.2514 C.ar    1  LIG1       -0.0374
      3 C          -1.0411    1.3775    0.0796 C.ar    1  LIG1       -0.0451
      4 C           1.7702    1.3977   -0.0484 C.ar    1  LIG1       -0.0012
      5 H           1.5851   -0.6981   -0.4429 H       1  LIG1        0.0636
      6 C          -0.3417    2.5521    0.2793 C.ar    1  LIG1       -0.0446
      7 C           1.0577    2.5855    0.2180 C.ar    1  LIG1        0.0324
      8 H          -0.8741    3.4750    0.4792 H       1  LIG1        0.0630
      9 H          -2.1236    1.3658    0.1302 H       1  LIG1        0.0630
     10 C          -1.0533   -1.0338   -0.3998 C.1     1  LIG1       -0.0696
     11 C          -1.6491   -2.0652   -0.5747 C.1     1  LIG1       -0.1139
     12 H          -2.1754   -2.9788   -0.7292 H       1  LIG1        0.1232
     13 C           1.7059    3.8513    0.3941 C.1     1  LIG1       -0.0691
     14 C           2.1933    4.9423    0.5416 C.1     1  LIG1       -0.1139
     15 H           2.6403    5.9027    0.6584 H       1  LIG1        0.1232
     16 C           3.8749    0.6896   -1.1905 C.ar    1  LIG1       -0.0532
     17 C           5.2602    0.6180   -1.2484 C.ar    1  LIG1       -0.0498
     18 C           3.2528    1.3459   -0.1285 C.ar    1  LIG1       -0.0132
     19 C           6.0676    1.1844   -0.2652 C.ar    1  LIG1        0.0287
     20 H           5.7383    0.1281   -2.0906 H       1  LIG1        0.0625
     21 C           4.0490    1.9060    0.8704 C.ar    1  LIG1       -0.0118
     22 C           5.4344    1.8244    0.8098 C.ar    1  LIG1        0.1253
     23 H           3.5828    2.3998    1.7175 H       1  LIG1        0.0660
     24 H           3.2757    0.2610   -1.9861 H       1  LIG1        0.0624
     25 O           6.2215    2.3211    1.7995 O.3     1  LIG1       -0.5061
     26 H           5.6695    2.7778    2.4446 H       1  LIG1        0.2922
     27 C           8.3853    2.2086   -0.3802 C.ar    1  LIG1        0.2232
     28 C           7.5428    1.0767   -0.3404 C.ar    1  LIG1        0.0474
     29 C           8.1774   -0.1472   -0.4306 C.ar    1  LIG1       -0.0438
     30 C           9.5704   -0.2660   -0.5196 C.ar    1  LIG1       -0.0205
     31 C          10.2882    0.9286   -0.4859 C.ar    1  LIG1        0.1164
     32 N           9.6952    2.1360   -0.4344 N.ar    1  LIG1       -0.2089
     33 H           7.5706   -1.0484   -0.4322 H       1  LIG1        0.0629
     34 O           7.7936    3.4168   -0.3821 O.3     1  LIG1       -0.4792
     35 C           8.6491    4.5497   -0.4066 C.3     1  LIG1        0.0804
     36 H           7.9871    5.4154   -0.4142 H       1  LIG1        0.0660
     37 H           9.2959    4.5739    0.4740 H       1  LIG1        0.0660
     38 H           9.2830    4.5479   -1.2966 H       1  LIG1        0.0660
     39 C          10.2079   -1.6198   -0.6721 C.3     1  LIG1       -0.0376
     40 H          10.6471   -1.9712    0.2638 H       1  LIG1        0.0278
     41 H          11.0180   -1.5951   -1.4053 H       1  LIG1        0.0278
     42 H           9.4688   -2.3519   -1.0054 H       1  LIG1        0.0278
     43 C          11.7548    0.9746   -0.5274 C.ar    1  LIG1        0.1959
     44 C          12.7475    0.2881    0.1074 C.ar    1  LIG1        0.1826
     45 C          14.0024    0.8545   -0.3252 C.ar    1  LIG1        0.1047
     46 C          13.6565    1.8493   -1.1893 C.ar    1  LIG1        0.1117
     47 O          12.3233    1.9343   -1.3200 O.2     1  LIG1       -0.4563
     48 H          14.2464    2.5430   -1.7671 H       1  LIG1        0.1043
     49 O          12.5789   -0.7372    0.9786 O.3     1  LIG1       -0.4901
     50 C          13.0129   -0.4638    2.3080 C.3     1  LIG1        0.0790
     51 H          12.4514    0.3750    2.7331 H       1  LIG1        0.0660
     52 H          12.8147   -1.3661    2.8868 H       1  LIG1        0.0660
     53 H          14.0829   -0.2403    2.3374 H       1  LIG1        0.0660
     54 C          15.3131    0.4538    0.0472 C.1     1  LIG1       -0.0628
     55 C          16.4221    0.1123    0.3685 C.1     1  LIG1       -0.1137
     56 H          17.4051   -0.1952    0.6415 H       1  LIG1        0.1232
@<TRIPOS>BOND
     1    20    17    1
     2    24    16    1
     3    48    46    1
     4    41    39    1
     5    47    46   ar
     6    47    43   ar
     7    38    35    1
     8    17    16   ar
     9    17    19   ar
    10    16    18   ar
    11    46    45   ar
    12    42    39    1
    13    12    11    1
    14    39    30    1
    15    39    40    1
    16    11    10    3
    17    43    31    1
    18    43    44   ar
    19    30    31   ar
    20    30    29   ar
    21    31    32   ar
    22     5     2    1
    23    32    27   ar
    24    33    29    1
    25    29    28   ar
    26    36    35    1
    27    35    34    1
    28    35    37    1
    29    10     1    1
    30    34    27    1
    31    27    28   ar
    32    28    19    1
    33    45    54    1
    34    45    44   ar
    35    19    22   ar
    36     2     1   ar
    37     2     4   ar
    38     1     3   ar
    39    18     4    1
    40    18    21   ar
    41     4     7   ar
    42    54    55    3
    43     3     9    1
    44     3     6   ar
    45    44    49    1
    46     7     6   ar
    47     7    13    1
    48     6     8    1
    49    55    56    1
    50    13    14    3
    51    14    15    1
    52    22    21   ar
    53    22    25    1
    54    21    23    1
    55    49    50    1
    56    25    26    1
    57    50    53    1
    58    50    51    1
    59    50    52    1
