@<TRIPOS>MOLECULE
mol_data/opt/cam/geoms/mol2/4ef.out
 15 15 0 0 0
SMALL
GASTEIGER

@<TRIPOS>ATOM
      1 C           0.0934    0.0420    0.0003 C.ar    1  LIG1        0.0249
      2 C           1.4950    0.0555   -0.0000 C.ar    1  LIG1       -0.0429
      3 C          -0.5861    1.2637    0.0002 C.ar    1  LIG1       -0.0429
      4 C           2.1950    1.2480   -0.0005 C.ar    1  LIG1       -0.0190
      5 H           2.0320   -0.8865    0.0000 H       1  LIG1        0.0631
      6 C           0.1097    2.4627   -0.0002 C.ar    1  LIG1       -0.0190
      7 C           1.5028    2.4580   -0.0005 C.ar    1  LIG1        0.1169
      8 H          -0.4310    3.4055   -0.0003 H       1  LIG1        0.0654
      9 H           3.2787    1.2661   -0.0007 H       1  LIG1        0.0654
     10 H          -1.6703    1.2679    0.0005 H       1  LIG1        0.0631
     11 C          -0.6266   -1.1948    0.0007 C.1     1  LIG1       -0.0697
     12 C          -1.2323   -2.2356    0.0011 C.1     1  LIG1       -0.1139
     13 H          -1.7677   -3.1568    0.0014 H       1  LIG1        0.1232
     14 O           2.2392    3.5996   -0.0010 O.3     1  LIG1       -0.5068
     15 H           1.6499    4.3631   -0.0010 H       1  LIG1        0.2921
@<TRIPOS>BOND
     1    15    14    1
     2    14     7    1
     3     9     4    1
     4     7     4   ar
     5     7     6   ar
     6     4     2   ar
     7     8     6    1
     8     6     3   ar
     9     2     5    1
    10     2     1   ar
    11     3     1   ar
    12     3    10    1
    13     1    11    1
    14    11    12    3
    15    12    13    1
