@<TRIPOS>MOLECULE
mol_data/opt/cam/geoms/mol2/4ef13li4la-12ih.out
 56 59 0 0 0
SMALL
GASTEIGER

@<TRIPOS>ATOM
      1 C           0.1014   -0.2645   -1.3665 C.ar    1  LIG1        0.0255
      2 C           1.3208   -0.1765   -0.6926 C.ar    1  LIG1       -0.0336
      3 C          -0.3350    0.8204   -2.1315 C.ar    1  LIG1       -0.0429
      4 C           2.1250    0.9669   -0.7466 C.ar    1  LIG1        0.0444
      5 H           1.6701   -1.0219   -0.1148 H       1  LIG1        0.0637
      6 C           0.4496    1.9575   -2.2132 C.ar    1  LIG1       -0.0184
      7 C           1.6616    2.0354   -1.5372 C.ar    1  LIG1        0.1261
      8 H           0.1211    2.8039   -2.8114 H       1  LIG1        0.0655
      9 H          -1.2798    0.7660   -2.6593 H       1  LIG1        0.0631
     10 C          -0.6891   -1.4557   -1.2776 C.1     1  LIG1       -0.0696
     11 C          -1.3584   -2.4540   -1.2052 C.1     1  LIG1       -0.1139
     12 H          -1.9467   -3.3399   -1.1409 H       1  LIG1        0.1232
     13 O           2.4373    3.1585   -1.6288 O.3     1  LIG1       -0.5061
     14 H           1.9991    3.8115   -2.1859 H       1  LIG1        0.2922
     15 C           3.3851    1.0111   -0.0053 C.ar    1  LIG1        0.0930
     16 C           3.9194    0.1268    0.9265 C.ar    1  LIG1        0.1488
     17 C           5.1899    0.5852    1.3370 C.ar    1  LIG1        0.0172
     18 C           5.4171    1.7687    0.6394 C.ar    1  LIG1        0.0570
     19 N           4.3258    1.9944   -0.1550 N.ar    1  LIG1       -0.3508
     20 H           4.2317    2.7883   -0.7707 H       1  LIG1        0.1660
     21 O           3.3440   -1.0398    1.3654 O.3     1  LIG1       -0.4927
     22 C           2.6313   -0.8986    2.5865 C.3     1  LIG1        0.0789
     23 H           2.2540   -1.8881    2.8494 H       1  LIG1        0.0660
     24 H           3.2849   -0.5352    3.3873 H       1  LIG1        0.0660
     25 H           1.7892   -0.2059    2.4748 H       1  LIG1        0.0660
     26 C           6.0780   -0.1600    2.2831 C.3     1  LIG1       -0.0342
     27 H           7.1255   -0.1217    1.9734 H       1  LIG1        0.0279
     28 H           5.7711   -1.2083    2.3139 H       1  LIG1        0.0279
     29 H           6.0259    0.2248    3.3085 H       1  LIG1        0.0279
     30 C           6.8594    3.5558   -0.3978 C.ar    1  LIG1        0.1298
     31 C           7.9351    4.4273   -0.3471 C.ar    1  LIG1       -0.0086
     32 C           6.5535    2.6908    0.6667 C.ar    1  LIG1        0.0403
     33 C           8.7750    4.4696    0.7682 C.ar    1  LIG1        0.0211
     34 H           8.0800    5.0942   -1.1879 H       1  LIG1        0.0661
     35 C           7.3891    2.7707    1.7906 C.ar    1  LIG1       -0.0484
     36 C           8.4756    3.6247    1.8426 C.ar    1  LIG1       -0.0502
     37 H           7.1662    2.1560    2.6531 H       1  LIG1        0.0625
     38 O           6.0589    3.5949   -1.5262 O.3     1  LIG1       -0.4944
     39 C           6.4399    2.6623   -2.5311 C.3     1  LIG1        0.0788
     40 H           5.7431    2.7913   -3.3603 H       1  LIG1        0.0660
     41 H           7.4604    2.8600   -2.8777 H       1  LIG1        0.0660
     42 H           6.3772    1.6332   -2.1620 H       1  LIG1        0.0660
     43 H           9.0978    3.6557    2.7289 H       1  LIG1        0.0625
     44 C           9.9177    5.3738    0.8334 C.ar    1  LIG1        0.1396
     45 C          10.6802    6.0067   -0.1098 C.ar    1  LIG1        0.0159
     46 C          11.6735    6.7441    0.6211 C.ar    1  LIG1        0.0664
     47 C          11.4479    6.4978    1.9370 C.ar    1  LIG1        0.1134
     48 O          10.3872    5.6550    2.0789 O.2     1  LIG1       -0.4608
     49 H          11.9324    6.8177    2.8452 H       1  LIG1        0.1049
     50 C          10.6080    5.9375   -1.6016 C.3     1  LIG1       -0.0344
     51 H          11.6054    6.0837   -2.0256 H       1  LIG1        0.0279
     52 H           9.9522    6.7055   -2.0286 H       1  LIG1        0.0279
     53 H          10.2403    4.9667   -1.9407 H       1  LIG1        0.0279
     54 N          12.7046    7.4806    0.0229 N.pl3   1  LIG1       -0.3553
     55 H          12.3686    8.1230   -0.6837 H       1  LIG1        0.1424
     56 H          13.2721    7.9828    0.6929 H       1  LIG1        0.1424
@<TRIPOS>BOND
     1    40    39    1
     2    41    39    1
     3     8     6    1
     4     9     3    1
     5    39    42    1
     6    39    38    1
     7     6     3   ar
     8     6     7   ar
     9    14    13    1
    10     3     1   ar
    11    52    50    1
    12    51    50    1
    13    53    50    1
    14    13     7    1
    15    50    45    1
    16     7     4   ar
    17    38    30    1
    18     1    10    1
    19     1     2   ar
    20    10    11    3
    21    11    12    1
    22    34    31    1
    23    20    19    1
    24     4     2   ar
    25     4    15    1
    26     2     5    1
    27    55    54    1
    28    30    31   ar
    29    30    32   ar
    30    31    33   ar
    31    19    15   ar
    32    19    18   ar
    33    45    46   ar
    34    45    44   ar
    35    15    16   ar
    36    54    46    1
    37    54    56    1
    38    46    47   ar
    39    18    32    1
    40    18    17   ar
    41    32    35   ar
    42    33    44    1
    43    33    36   ar
    44    44    48   ar
    45    16    17   ar
    46    16    21    1
    47    17    26    1
    48    21    22    1
    49    35    36   ar
    50    35    37    1
    51    36    43    1
    52    47    48   ar
    53    47    49    1
    54    27    26    1
    55    26    28    1
    56    26    29    1
    57    25    22    1
    58    22    23    1
    59    22    24    1
