@<TRIPOS>MOLECULE
mol_data/opt/cam/geoms/mol2/4ef4ef-4ef4ef-.out
 54 57 0 0 0
SMALL
GASTEIGER

@<TRIPOS>ATOM
      1 C          -0.1781    1.1056   -1.1820 C.ar    1  LIG1        0.0255
      2 C           1.2183    1.0938   -1.0892 C.ar    1  LIG1       -0.0351
      3 C          -0.9259    1.0647   -0.0028 C.ar    1  LIG1       -0.0429
      4 C           1.8736    1.0485    0.1350 C.ar    1  LIG1        0.0260
      5 H           1.8088    1.1355   -1.9978 H       1  LIG1        0.0637
      6 C          -0.2909    1.0036    1.2264 C.ar    1  LIG1       -0.0184
      7 C           1.0995    0.9894    1.3032 C.ar    1  LIG1        0.1246
      8 H          -0.8779    0.9555    2.1399 H       1  LIG1        0.0654
      9 H          -2.0087    1.0753   -0.0556 H       1  LIG1        0.0631
     10 C          -0.8236    1.1619   -2.4582 C.1     1  LIG1       -0.0696
     11 C          -1.3681    1.2082   -3.5313 C.1     1  LIG1       -0.1139
     12 H          -1.8479    1.2492   -4.4816 H       1  LIG1        0.1232
     13 O           1.7538    0.8904    2.4859 O.3     1  LIG1       -0.5062
     14 H           1.1203    0.9378    3.2112 H       1  LIG1        0.2922
     15 C           4.0966    2.0611    0.8059 C.ar    1  LIG1        0.0333
     16 C           5.4896    1.9903    0.7947 C.ar    1  LIG1       -0.0345
     17 C           3.3595    1.0304    0.1883 C.ar    1  LIG1        0.0045
     18 C           6.1835    0.9397    0.1994 C.ar    1  LIG1        0.0260
     19 H           6.0537    2.7843    1.2717 H       1  LIG1        0.0637
     20 C           4.0440   -0.0113   -0.4203 C.ar    1  LIG1       -0.0106
     21 C           5.4360   -0.0713   -0.4227 C.ar    1  LIG1        0.1252
     22 H           3.5004   -0.8146   -0.9040 H       1  LIG1        0.0661
     23 C           3.4627    3.1964    1.4043 C.1     1  LIG1       -0.0690
     24 C           2.9623    4.1752    1.8959 C.1     1  LIG1       -0.1139
     25 H           2.5113    5.0371    2.3299 H       1  LIG1        0.1232
     26 O           5.9908   -1.1188   -1.0743 O.3     1  LIG1       -0.5061
     27 H           6.9412   -1.1484   -0.9065 H       1  LIG1        0.2922
     28 C           8.4596   -0.0662    0.7293 C.ar    1  LIG1        0.0333
     29 C           9.8562    0.0383    0.6674 C.ar    1  LIG1       -0.0345
     30 C           7.6706    0.9601    0.1749 C.ar    1  LIG1        0.0045
     31 C          10.4978    1.1190    0.0835 C.ar    1  LIG1        0.0260
     32 H          10.4556   -0.7606    1.0898 H       1  LIG1        0.0637
     33 C           8.3156    2.0551   -0.3975 C.ar    1  LIG1       -0.0106
     34 C           9.7015    2.1490   -0.4400 C.ar    1  LIG1        0.1252
     35 H           7.7129    2.8530   -0.8229 H       1  LIG1        0.0661
     36 C           7.8756   -1.2030    1.3761 C.1     1  LIG1       -0.0690
     37 C           7.4012   -2.1737    1.9077 C.1     1  LIG1       -0.1139
     38 H           6.9674   -3.0252    2.3791 H       1  LIG1        0.1232
     39 O          10.3318    3.2256   -0.9632 O.3     1  LIG1       -0.5061
     40 H           9.6834    3.8276   -1.3471 H       1  LIG1        0.2922
     41 C          12.6946    1.1934   -1.1680 C.ar    1  LIG1        0.0327
     42 C          14.0907    1.2355   -1.1324 C.ar    1  LIG1       -0.0423
     43 C          11.9829    1.1868    0.0496 C.ar    1  LIG1        0.0045
     44 C          14.7817    1.2646    0.0681 C.ar    1  LIG1       -0.0190
     45 H          14.6368    1.2369   -2.0689 H       1  LIG1        0.0631
     46 C          12.6817    1.2068    1.2496 C.ar    1  LIG1       -0.0112
     47 C          14.0738    1.2461    1.2658 C.ar    1  LIG1        0.1175
     48 H          12.1503    1.2067    2.1943 H       1  LIG1        0.0660
     49 H          15.8678    1.2975    0.0731 H       1  LIG1        0.0654
     50 C          12.0286    1.1167   -2.4327 C.1     1  LIG1       -0.0690
     51 C          11.4991    1.0323   -3.5108 C.1     1  LIG1       -0.1139
     52 H          11.0243    0.9582   -4.4617 H       1  LIG1        0.1232
     53 O          14.6809    1.2682    2.4802 O.3     1  LIG1       -0.5067
     54 H          15.6374    1.3009    2.3617 H       1  LIG1        0.2921
@<TRIPOS>BOND
     1    12    11    1
     2    52    51    1
     3    11    10    3
     4    51    50    3
     5    10     1    1
     6    50    41    1
     7    45    42    1
     8     5     2    1
     9    40    39    1
    10     1     2   ar
    11     1     3   ar
    12    41    42   ar
    13    41    43   ar
    14    42    44   ar
    15     2     4   ar
    16    26    27    1
    17    26    21    1
    18    39    34    1
    19    22    20    1
    20    35    33    1
    21    34    33   ar
    22    34    31   ar
    23    21    20   ar
    24    21    18   ar
    25    20    17   ar
    26    33    30   ar
    27     9     3    1
    28     3     6   ar
    29    43    31    1
    30    43    46   ar
    31    44    49    1
    32    44    47   ar
    33    31    29   ar
    34     4    17    1
    35     4     7   ar
    36    30    18    1
    37    30    28   ar
    38    17    15   ar
    39    18    16   ar
    40    29    28   ar
    41    29    32    1
    42    28    36    1
    43    16    15   ar
    44    16    19    1
    45    15    23    1
    46     6     7   ar
    47     6     8    1
    48    46    47   ar
    49    46    48    1
    50    47    53    1
    51     7    13    1
    52    36    37    3
    53    23    24    3
    54    24    25    1
    55    37    38    1
    56    54    53    1
    57    13    14    1
