@<TRIPOS>MOLECULE
mol_data/opt/cam/geoms/mol2/4ef4ef4ef4ef-.out
 54 57 0 0 0
SMALL
GASTEIGER

@<TRIPOS>ATOM
      1 C          -0.2474    0.3034    0.8168 C.ar    1  LIG1        0.0255
      2 C           1.1496    0.3061    0.7683 C.ar    1  LIG1       -0.0351
      3 C          -0.9515    1.1017   -0.0883 C.ar    1  LIG1       -0.0429
      4 C           1.8571    1.0796   -0.1469 C.ar    1  LIG1        0.0260
      5 H           1.6990   -0.3141    1.4657 H       1  LIG1        0.0637
      6 C          -0.2684    1.8798   -1.0062 C.ar    1  LIG1       -0.0184
      7 C           1.1242    1.8776   -1.0394 C.ar    1  LIG1        0.1246
      8 H          -0.8184    2.4998   -1.7097 H       1  LIG1        0.0654
      9 H          -2.0353    1.1097   -0.0662 H       1  LIG1        0.0631
     10 C          -0.9413   -0.4998    1.7773 C.1     1  LIG1       -0.0696
     11 C          -1.5283   -1.1732    2.5846 C.1     1  LIG1       -0.1139
     12 H          -2.0446   -1.7706    3.2999 H       1  LIG1        0.1232
     13 O           1.8109    2.6399   -1.9331 O.3     1  LIG1       -0.5062
     14 H           1.1849    3.0751   -2.5238 H       1  LIG1        0.2922
     15 C           4.0810   -0.1303   -0.2092 C.ar    1  LIG1        0.0333
     16 C           5.4783   -0.0723   -0.1755 C.ar    1  LIG1       -0.0345
     17 C           3.3436    1.0676   -0.1565 C.ar    1  LIG1        0.0045
     18 C           6.1810    1.1232   -0.0921 C.ar    1  LIG1        0.0260
     19 H           6.0314   -1.0021   -0.2214 H       1  LIG1        0.0637
     20 C           4.0428    2.2679   -0.0776 C.ar    1  LIG1       -0.0106
     21 C           5.4308    2.3076   -0.0433 C.ar    1  LIG1        0.1252
     22 H           3.4860    3.1995   -0.0504 H       1  LIG1        0.0661
     23 C           3.4574   -1.4153   -0.3217 C.1     1  LIG1       -0.0690
     24 C           2.9744   -2.5138   -0.4202 C.1     1  LIG1       -0.1139
     25 H           2.5342   -3.4802   -0.5071 H       1  LIG1        0.1232
     26 O           6.0970    3.4915    0.0406 O.3     1  LIG1       -0.5061
     27 H           5.4593    4.2133   -0.0110 H       1  LIG1        0.2922
     28 C           8.4522    0.4272   -0.9684 C.ar    1  LIG1        0.0333
     29 C           9.8460    0.4473   -0.8333 C.ar    1  LIG1       -0.0345
     30 C           7.6658    1.1331   -0.0384 C.ar    1  LIG1        0.0045
     31 C          10.4897    1.1460    0.1771 C.ar    1  LIG1        0.0260
     32 H          10.4445   -0.0892   -1.5611 H       1  LIG1        0.0637
     33 C           8.3107    1.8287    0.9815 C.ar    1  LIG1       -0.0106
     34 C           9.6942    1.8396    1.0992 C.ar    1  LIG1        0.1252
     35 H           7.7130    2.3737    1.7052 H       1  LIG1        0.0661
     36 C           7.8880   -0.2889   -2.0732 C.1     1  LIG1       -0.0690
     37 C           7.4583   -0.8999   -3.0178 C.1     1  LIG1       -0.1139
     38 H           7.0617   -1.4356   -3.8489 H       1  LIG1        0.1232
     39 O          10.3207    2.4816    2.1160 O.3     1  LIG1       -0.5061
     40 H           9.6739    2.9863    2.6226 H       1  LIG1        0.2922
     41 C          12.7438    2.2991    0.1555 C.ar    1  LIG1        0.0327
     42 C          14.1349    2.2062    0.2441 C.ar    1  LIG1       -0.0423
     43 C          11.9725    1.1247    0.2828 C.ar    1  LIG1        0.0045
     44 C          14.7662    0.9896    0.4473 C.ar    1  LIG1       -0.0190
     45 H          14.7257    3.1096    0.1423 H       1  LIG1        0.0631
     46 C          12.6130   -0.0926    0.4766 C.ar    1  LIG1       -0.0112
     47 C          14.0010   -0.1668    0.5598 C.ar    1  LIG1        0.1175
     48 H          12.0359   -1.0042    0.5809 H       1  LIG1        0.0660
     49 H          15.8497    0.9395    0.5136 H       1  LIG1        0.0654
     50 C          12.1452    3.5732   -0.1038 C.1     1  LIG1       -0.0690
     51 C          11.6773    4.6565   -0.3433 C.1     1  LIG1       -0.1139
     52 H          11.2514    5.6093   -0.5561 H       1  LIG1        0.1232
     53 O          14.5485   -1.3949    0.7556 O.3     1  LIG1       -0.5067
     54 H          15.5085   -1.3143    0.8010 H       1  LIG1        0.2921
@<TRIPOS>BOND
     1    38    37    1
     2    37    36    3
     3    14    13    1
     4    36    28    1
     5    13     7    1
     6     8     6    1
     7    32    29    1
     8     7     6   ar
     9     7     4   ar
    10     6     3   ar
    11    28    29   ar
    12    28    30   ar
    13    29    31   ar
    14    52    51    1
    15    25    24    1
    16    24    23    3
    17    51    50    3
    18    23    15    1
    19    19    16    1
    20    15    16   ar
    21    15    17   ar
    22    16    18   ar
    23    17     4    1
    24    17    20   ar
    25     4     2   ar
    26    50    41    1
    27    18    21   ar
    28    18    30    1
    29     3     9    1
    30     3     1   ar
    31    20    22    1
    32    20    21   ar
    33    21    26    1
    34    30    33   ar
    35    27    26    1
    36    45    42    1
    37    41    42   ar
    38    41    43   ar
    39    31    43    1
    40    31    34   ar
    41    42    44   ar
    42    43    46   ar
    43    44    49    1
    44    44    47   ar
    45    46    47   ar
    46    46    48    1
    47    47    53    1
    48    53    54    1
    49     2     1   ar
    50     2     5    1
    51     1    10    1
    52    33    34   ar
    53    33    35    1
    54    34    39    1
    55    10    11    3
    56    39    40    1
    57    11    12    1
