@<TRIPOS>MOLECULE
mol_data/opt/cam/geoms/mol2/4ef4ef4ef4ef.out
 54 57 0 0 0
SMALL
GASTEIGER

@<TRIPOS>ATOM
      1 C          -0.2852    0.8693    0.9045 C.ar    1  LIG1        0.0255
      2 C           1.1117    0.8175    0.8955 C.ar    1  LIG1       -0.0351
      3 C          -0.9551    1.1094   -0.2980 C.ar    1  LIG1       -0.0429
      4 C           1.8518    1.0015   -0.2685 C.ar    1  LIG1        0.0260
      5 H           1.6347    0.6278    1.8246 H       1  LIG1        0.0637
      6 C          -0.2391    1.2966   -1.4673 C.ar    1  LIG1       -0.0184
      7 C           1.1530    1.2485   -1.4606 C.ar    1  LIG1        0.1246
      8 H          -0.7628    1.4827   -2.4015 H       1  LIG1        0.0654
      9 H          -2.0382    1.1502   -0.3096 H       1  LIG1        0.0631
     10 C          -1.0132    0.6823    2.1227 C.1     1  LIG1       -0.0696
     11 C          -1.6288    0.5266    3.1457 C.1     1  LIG1       -0.1139
     12 H          -2.1708    0.3876    4.0524 H       1  LIG1        0.1232
     13 O           1.8720    1.4341   -2.6008 O.3     1  LIG1       -0.5062
     14 H           1.2661    1.5206   -3.3461 H       1  LIG1        0.2922
     15 C           4.0382   -0.1168    0.3509 C.ar    1  LIG1        0.0333
     16 C           5.4361   -0.0803    0.3827 C.ar    1  LIG1       -0.0345
     17 C           3.3372    0.9545   -0.2345 C.ar    1  LIG1        0.0045
     18 C           6.1745    0.9734   -0.1416 C.ar    1  LIG1        0.0260
     19 H           5.9607   -0.9145    0.8314 H       1  LIG1        0.0637
     20 C           4.0723    2.0103   -0.7646 C.ar    1  LIG1       -0.0106
     21 C           5.4603    2.0317   -0.7232 C.ar    1  LIG1        0.1252
     22 H           3.5443    2.8361   -1.2313 H       1  LIG1        0.0661
     23 C           3.3769   -1.2642    0.8976 C.1     1  LIG1       -0.0690
     24 C           2.8621   -2.2477    1.3640 C.1     1  LIG1       -0.1139
     25 H           2.3938   -3.1126    1.7735 H       1  LIG1        0.1232
     26 O           6.1618    3.0770   -1.2410 O.3     1  LIG1       -0.5061
     27 H           5.5481    3.6815   -1.6750 H       1  LIG1        0.2922
     28 C           8.4325   -0.1238   -0.4839 C.ar    1  LIG1        0.0333
     29 C           9.8240   -0.0664   -0.3519 C.ar    1  LIG1       -0.0345
     30 C           7.6582    0.9763   -0.0681 C.ar    1  LIG1        0.0045
     31 C          10.4863    1.0354    0.1746 C.ar    1  LIG1        0.0260
     32 H          10.4060   -0.9182   -0.6811 H       1  LIG1        0.0637
     33 C           8.3180    2.0842    0.4557 C.ar    1  LIG1       -0.0106
     34 C           9.7006    2.1237    0.5811 C.ar    1  LIG1        0.1252
     35 H           7.7337    2.9450    0.7656 H       1  LIG1        0.0661
     36 C           7.8554   -1.2987   -1.0661 C.1     1  LIG1       -0.0690
     37 C           7.4136   -2.3023   -1.5637 C.1     1  LIG1       -0.1139
     38 H           7.0075   -3.1843   -2.0021 H       1  LIG1        0.1232
     39 O          10.3273    3.2144    1.1016 O.3     1  LIG1       -0.5061
     40 H           9.6723    3.9039    1.2623 H       1  LIG1        0.2922
     41 C          12.8142    0.7226   -0.7668 C.ar    1  LIG1        0.0327
     42 C          14.2014    0.7084   -0.5606 C.ar    1  LIG1       -0.0423
     43 C          11.9663    1.0421    0.3118 C.ar    1  LIG1        0.0045
     44 C          14.7547    1.0042    0.6692 C.ar    1  LIG1       -0.0190
     45 H          14.8458    0.4637   -1.3974 H       1  LIG1        0.0631
     46 C          12.5360    1.3449    1.5475 C.ar    1  LIG1       -0.0112
     47 C          13.9130    1.3296    1.7305 C.ar    1  LIG1        0.1175
     48 H          11.8858    1.6049    2.3768 H       1  LIG1        0.0660
     49 H          15.8267    0.9945    0.8272 H       1  LIG1        0.0654
     50 C          12.3180    0.4381   -2.0800 C.1     1  LIG1       -0.0690
     51 C          11.9482    0.1976   -3.2006 C.1     1  LIG1       -0.1139
     52 H          11.6019   -0.0133   -4.1858 H       1  LIG1        0.1232
     53 O          14.4912    1.6178    2.9258 O.3     1  LIG1       -0.5067
     54 H          13.8050    1.8379    3.5669 H       1  LIG1        0.2921
@<TRIPOS>BOND
     1    52    51    1
     2    14    13    1
     3    51    50    3
     4    13     7    1
     5     8     6    1
     6    50    41    1
     7    38    37    1
     8    27    26    1
     9    37    36    3
    10     6     7   ar
    11     6     3   ar
    12     7     4   ar
    13    45    42    1
    14    26    21    1
    15    22    20    1
    16    36    28    1
    17    41    42   ar
    18    41    43   ar
    19    20    21   ar
    20    20    17   ar
    21    21    18   ar
    22    32    29    1
    23    42    44   ar
    24    28    29   ar
    25    28    30   ar
    26    29    31   ar
    27     9     3    1
    28     3     1   ar
    29     4    17    1
    30     4     2   ar
    31    17    15   ar
    32    18    30    1
    33    18    16   ar
    34    30    33   ar
    35    31    43    1
    36    31    34   ar
    37    43    46   ar
    38    15    16   ar
    39    15    23    1
    40    16    19    1
    41    33    34   ar
    42    33    35    1
    43    34    39    1
    44    44    49    1
    45    44    47   ar
    46     2     1   ar
    47     2     5    1
    48    23    24    3
    49     1    10    1
    50    39    40    1
    51    24    25    1
    52    46    47   ar
    53    46    48    1
    54    47    53    1
    55    10    11    3
    56    53    54    1
    57    11    12    1
