@<TRIPOS>MOLECULE
mol_data/opt/cam/geoms/mol2/4ef4ef-.out
 28 29 0 0 0
SMALL
GASTEIGER

@<TRIPOS>ATOM
      1 C          -0.0004    0.1847   -0.4034 C.ar    1  LIG1        0.0255
      2 C           1.3987    0.2195   -0.4040 C.ar    1  LIG1       -0.0351
      3 C          -0.6934    1.2083    0.2472 C.ar    1  LIG1       -0.0429
      4 C           2.1087    1.2401    0.2157 C.ar    1  LIG1        0.0260
      5 H           1.9469   -0.5645   -0.9146 H       1  LIG1        0.0637
      6 C          -0.0027    2.2263    0.8832 C.ar    1  LIG1       -0.0184
      7 C           1.3897    2.2465    0.8768 C.ar    1  LIG1        0.1246
      8 H          -0.5470    3.0118    1.4011 H       1  LIG1        0.0654
      9 H          -1.7774    1.1987    0.2560 H       1  LIG1        0.0631
     10 C          -0.7038   -0.8759   -1.0583 C.1     1  LIG1       -0.0696
     11 C          -1.2972   -1.7680   -1.6079 C.1     1  LIG1       -0.1139
     12 H          -1.8205   -2.5577   -2.0953 H       1  LIG1        0.1232
     13 O           2.0988    3.2059    1.5203 O.3     1  LIG1       -0.5062
     14 H           1.4970    3.8751    1.8661 H       1  LIG1        0.2922
     15 C           4.3346    2.2567   -0.4336 C.ar    1  LIG1        0.0327
     16 C           5.7295    2.1799   -0.4348 C.ar    1  LIG1       -0.0423
     17 C           3.5962    1.2345    0.1985 C.ar    1  LIG1        0.0045
     18 C           6.3951    1.1226    0.1643 C.ar    1  LIG1       -0.0190
     19 H           6.2950    2.9646   -0.9245 H       1  LIG1        0.0631
     20 C           4.2697    0.1729    0.7889 C.ar    1  LIG1       -0.0112
     21 C           5.6609    0.1114    0.7761 C.ar    1  LIG1        0.1175
     22 H           3.7185   -0.6193    1.2823 H       1  LIG1        0.0660
     23 H           7.4809    1.0821    0.1523 H       1  LIG1        0.0654
     24 C           3.6953    3.3459   -1.1075 C.1     1  LIG1       -0.0690
     25 C           3.1909    4.2642   -1.7010 C.1     1  LIG1       -0.1139
     26 H           2.7360    5.0724   -2.2250 H       1  LIG1        0.1232
     27 O           6.2422   -0.9576    1.3800 O.3     1  LIG1       -0.5067
     28 H           7.2012   -0.8838    1.3097 H       1  LIG1        0.2921
@<TRIPOS>BOND
     1    26    25    1
     2    12    11    1
     3    25    24    3
     4    11    10    3
     5    24    15    1
     6    10     1    1
     7    19    16    1
     8     5     2    1
     9    16    15   ar
    10    16    18   ar
    11    15    17   ar
    12     2     1   ar
    13     2     4   ar
    14     1     3   ar
    15    23    18    1
    16    18    21   ar
    17    17     4    1
    18    17    20   ar
    19     4     7   ar
    20     3     9    1
    21     3     6   ar
    22    21    20   ar
    23    21    27    1
    24    20    22    1
    25     7     6   ar
    26     7    13    1
    27     6     8    1
    28    28    27    1
    29    13    14    1
