@<TRIPOS>MOLECULE
mol_data/opt/cam/geoms/mol2/4ef4ef4ef-4ef.out
 54 57 0 0 0
SMALL
GASTEIGER

@<TRIPOS>ATOM
      1 C          -0.2535    0.1116   -0.5015 C.ar    1  LIG1        0.0255
      2 C           1.1437    0.1196   -0.4594 C.ar    1  LIG1       -0.0351
      3 C          -0.9447    1.2350   -0.0404 C.ar    1  LIG1       -0.0429
      4 C           1.8637    1.2087    0.0219 C.ar    1  LIG1        0.0260
      5 H           1.6835   -0.7502   -0.8130 H       1  LIG1        0.0637
      6 C          -0.2490    2.3300    0.4410 C.ar    1  LIG1       -0.0184
      7 C           1.1436    2.3265    0.4718 C.ar    1  LIG1        0.1246
      8 H          -0.7892    3.2025    0.7997 H       1  LIG1        0.0654
      9 H          -2.0284    1.2449   -0.0638 H       1  LIG1        0.0631
     10 C          -0.9607   -1.0245   -1.0098 C.1     1  LIG1       -0.0696
     11 C          -1.5589   -1.9779   -1.4376 C.1     1  LIG1       -0.1139
     12 H          -2.0847   -2.8234   -1.8167 H       1  LIG1        0.1232
     13 O           1.8427    3.3962    0.9392 O.3     1  LIG1       -0.5062
     14 H           1.2236    4.0559    1.2733 H       1  LIG1        0.2922
     15 C           4.0722    0.1243    0.6143 C.ar    1  LIG1        0.0333
     16 C           5.4713    0.1452    0.5585 C.ar    1  LIG1       -0.0345
     17 C           3.3502    1.1850    0.0362 C.ar    1  LIG1        0.0045
     18 C           6.1810    1.1778   -0.0364 C.ar    1  LIG1        0.0260
     19 H           6.0204   -0.6695    1.0173 H       1  LIG1        0.0637
     20 C           4.0607    2.2181   -0.5695 C.ar    1  LIG1       -0.0106
     21 C           5.4486    2.2237   -0.6144 C.ar    1  LIG1        0.1252
     22 H           3.5125    3.0386   -1.0219 H       1  LIG1        0.0661
     23 C           3.4348   -0.9666    1.2891 C.1     1  LIG1       -0.0690
     24 C           2.9409   -1.8997    1.8684 C.1     1  LIG1       -0.1139
     25 H           2.4896   -2.7191    2.3783 H       1  LIG1        0.1232
     26 O           6.1395    3.2074   -1.2422 O.3     1  LIG1       -0.5061
     27 H           5.5292    3.9020   -1.5155 H       1  LIG1        0.2922
     28 C           8.4552    2.1306    0.5473 C.ar    1  LIG1        0.0333
     29 C           9.8442    2.0206    0.4826 C.ar    1  LIG1       -0.0345
     30 C           7.6661    1.1439   -0.0780 C.ar    1  LIG1        0.0045
     31 C          10.4852    0.9656   -0.1624 C.ar    1  LIG1        0.0260
     32 H          10.4481    2.7776    0.9710 H       1  LIG1        0.0637
     33 C           8.2979    0.0873   -0.7177 C.ar    1  LIG1       -0.0106
     34 C           9.6862   -0.0159   -0.7674 C.ar    1  LIG1        0.1252
     35 H           7.7140   -0.6793   -1.2140 H       1  LIG1        0.0661
     36 C           7.8772    3.2151    1.2812 C.1     1  LIG1       -0.0690
     37 C           7.4241    4.1278    1.9227 C.1     1  LIG1       -0.1139
     38 H           7.0131    4.9289    2.4917 H       1  LIG1        0.1232
     39 O          10.1856   -1.0689   -1.4548 O.3     1  LIG1       -0.5061
     40 H          11.1385   -1.1343   -1.3146 H       1  LIG1        0.2922
     41 C          12.7560   -0.1034    0.2577 C.ar    1  LIG1        0.0327
     42 C          14.1535   -0.0293    0.1465 C.ar    1  LIG1       -0.0423
     43 C          11.9706    0.9521   -0.2478 C.ar    1  LIG1        0.0045
     44 C          14.7748    1.0560   -0.4365 C.ar    1  LIG1       -0.0190
     45 H          14.7488   -0.8449    0.5412 H       1  LIG1        0.0631
     46 C          12.6109    2.0442   -0.8339 C.ar    1  LIG1       -0.0112
     47 C          13.9968    2.1043   -0.9271 C.ar    1  LIG1        0.1175
     48 H          12.0049    2.8529   -1.2331 H       1  LIG1        0.0660
     49 H          15.8535    1.1150   -0.5206 H       1  LIG1        0.0654
     50 C          12.1683   -1.2372    0.9067 C.1     1  LIG1       -0.0690
     51 C          11.6918   -2.2071    1.4379 C.1     1  LIG1       -0.1139
     52 H          11.2562   -3.0572    1.9106 H       1  LIG1        0.1232
     53 O          14.6451    3.1517   -1.4932 O.3     1  LIG1       -0.5067
     54 H          14.0033    3.8068   -1.7927 H       1  LIG1        0.2921
@<TRIPOS>BOND
     1    12    11    1
     2    54    53    1
     3    27    26    1
     4    53    47    1
     5    39    40    1
     6    39    34    1
     7    11    10    3
     8    26    21    1
     9    48    46    1
    10    35    33    1
    11    22    20    1
    12    10     1    1
    13    47    46   ar
    14    47    44   ar
    15    46    43   ar
    16     5     2    1
    17    34    33   ar
    18    34    31   ar
    19    33    30   ar
    20    21    20   ar
    21    21    18   ar
    22    20    17   ar
    23    49    44    1
    24     1     2   ar
    25     1     3   ar
    26     2     4   ar
    27    44    42   ar
    28    43    31    1
    29    43    41   ar
    30    31    29   ar
    31    30    18    1
    32    30    28   ar
    33     9     3    1
    34     3     6   ar
    35    18    16   ar
    36     4    17    1
    37     4     7   ar
    38    17    15   ar
    39    42    41   ar
    40    42    45    1
    41    41    50    1
    42     6     7   ar
    43     6     8    1
    44     7    13    1
    45    29    28   ar
    46    29    32    1
    47    28    36    1
    48    16    15   ar
    49    16    19    1
    50    15    23    1
    51    50    51    3
    52    13    14    1
    53    36    37    3
    54    23    24    3
    55    51    52    1
    56    24    25    1
    57    37    38    1
