@<TRIPOS>MOLECULE
mol_data/opt/cam/geoms/mol2/4ef4ef4ef.out
 41 43 0 0 0
SMALL
GASTEIGER

@<TRIPOS>ATOM
      1 C          -0.1823    0.4278    0.7444 C.ar    1  LIG1        0.0255
      2 C           1.2154    0.4118    0.7579 C.ar    1  LIG1       -0.0351
      3 C          -0.8351    1.1465   -0.2605 C.ar    1  LIG1       -0.0429
      4 C           1.9726    1.0906   -0.1919 C.ar    1  LIG1        0.0260
      5 H           1.7254   -0.1472    1.5327 H       1  LIG1        0.0637
      6 C          -0.1019    1.8300   -1.2145 C.ar    1  LIG1       -0.0184
      7 C           1.2906    1.8106   -1.1853 C.ar    1  LIG1        0.1246
      8 H          -0.6122    2.3879   -1.9956 H       1  LIG1        0.0654
      9 H          -1.9185    1.1675   -0.2874 H       1  LIG1        0.0631
     10 C          -0.9285   -0.2762    1.7427 C.1     1  LIG1       -0.0696
     11 C          -1.5594   -0.8661    2.5817 C.1     1  LIG1       -0.1139
     12 H          -2.1140   -1.3891    3.3259 H       1  LIG1        0.1232
     13 O           2.0264    2.4804   -2.1134 O.3     1  LIG1       -0.5062
     14 H           1.4330    2.8674   -2.7680 H       1  LIG1        0.2922
     15 C           4.1796   -0.1429   -0.0458 C.ar    1  LIG1        0.0333
     16 C           5.5750   -0.0966    0.0416 C.ar    1  LIG1       -0.0345
     17 C           3.4579    1.0623   -0.1348 C.ar    1  LIG1        0.0045
     18 C           6.2902    1.0942    0.0447 C.ar    1  LIG1        0.0260
     19 H           6.1167   -1.0322    0.1041 H       1  LIG1        0.0637
     20 C           4.1701    2.2576   -0.1363 C.ar    1  LIG1       -0.0106
     21 C           5.5559    2.2857   -0.0469 C.ar    1  LIG1        0.1252
     22 H           3.6260    3.1934   -0.2187 H       1  LIG1        0.0661
     23 C           3.5429   -1.4262   -0.0662 C.1     1  LIG1       -0.0690
     24 C           3.0486   -2.5241   -0.0837 C.1     1  LIG1       -0.1139
     25 H           2.5989   -3.4898   -0.0996 H       1  LIG1        0.1232
     26 O           6.2356    3.4650   -0.0438 O.3     1  LIG1       -0.5061
     27 H           5.6115    4.1861   -0.1882 H       1  LIG1        0.2922
     28 C           8.5818    0.3118   -0.6892 C.ar    1  LIG1        0.0327
     29 C           9.9722    0.3261   -0.5051 C.ar    1  LIG1       -0.0423
     30 C           7.7724    1.0939    0.1576 C.ar    1  LIG1        0.0045
     31 C          10.5650    1.0898    0.4804 C.ar    1  LIG1       -0.0190
     32 H          10.5870   -0.2773   -1.1633 H       1  LIG1        0.0631
     33 C           8.3820    1.8658    1.1454 C.ar    1  LIG1       -0.0112
     34 C           9.7614    1.8695    1.3092 C.ar    1  LIG1        0.1175
     35 H           7.7617    2.4802    1.7905 H       1  LIG1        0.0660
     36 H          11.6394    1.1014    0.6212 H       1  LIG1        0.0654
     37 C           8.0441   -0.4801   -1.7548 C.1     1  LIG1       -0.0690
     38 C           7.6388   -1.1565   -2.6651 C.1     1  LIG1       -0.1139
     39 H           7.2617   -1.7497   -3.4656 H       1  LIG1        0.1232
     40 O          10.3784    2.6106    2.2665 O.3     1  LIG1       -0.5067
     41 H           9.7166    3.1110    2.7584 H       1  LIG1        0.2921
@<TRIPOS>BOND
     1    39    38    1
     2    14    13    1
     3    38    37    3
     4    13     7    1
     5     8     6    1
     6    37    28    1
     7     6     7   ar
     8     6     3   ar
     9     7     4   ar
    10    32    29    1
    11    28    29   ar
    12    28    30   ar
    13    29    31   ar
    14     9     3    1
    15     3     1   ar
    16    22    20    1
    17     4    17    1
    18     4     2   ar
    19    27    26    1
    20    20    17   ar
    21    20    21   ar
    22    17    15   ar
    23    25    24    1
    24    24    23    3
    25    23    15    1
    26    21    26    1
    27    21    18   ar
    28    15    16   ar
    29    16    18   ar
    30    16    19    1
    31    18    30    1
    32    30    33   ar
    33    31    36    1
    34    31    34   ar
    35     1     2   ar
    36     1    10    1
    37     2     5    1
    38    33    34   ar
    39    33    35    1
    40    34    40    1
    41    10    11    3
    42    40    41    1
    43    11    12    1
