@<TRIPOS>MOLECULE
mol_data/opt/cam/geoms/mol2/4ef4ef.out
 28 29 0 0 0
SMALL
GASTEIGER

@<TRIPOS>ATOM
      1 C          -0.0552    0.1381    0.4335 C.ar    1  LIG1        0.0255
      2 C           1.3420    0.1443    0.4760 C.ar    1  LIG1       -0.0351
      3 C          -0.7124    1.2116   -0.1731 C.ar    1  LIG1       -0.0429
      4 C           2.0941    1.1844   -0.0610 C.ar    1  LIG1        0.0260
      5 H           1.8560   -0.6871    0.9425 H       1  LIG1        0.0637
      6 C           0.0157    2.2571   -0.7131 C.ar    1  LIG1       -0.0184
      7 C           1.4077    2.2529   -0.6585 C.ar    1  LIG1        0.1246
      8 H          -0.4981    3.0906   -1.1855 H       1  LIG1        0.0654
      9 H          -1.7955    1.2219   -0.2169 H       1  LIG1        0.0631
     10 C          -0.7966   -0.9459    1.0031 C.1     1  LIG1       -0.0696
     11 C          -1.4233   -1.8555    1.4823 C.1     1  LIG1       -0.1139
     12 H          -1.9746   -2.6621    1.9073 H       1  LIG1        0.1232
     13 O           2.1388    3.2740   -1.1823 O.3     1  LIG1       -0.5062
     14 H           1.5442    3.9002   -1.6118 H       1  LIG1        0.2922
     15 C           4.3289    0.0575   -0.4277 C.ar    1  LIG1        0.0327
     16 C           5.7244    0.0812   -0.2886 C.ar    1  LIG1       -0.0423
     17 C           3.5793    1.1629    0.0185 C.ar    1  LIG1        0.0045
     18 C           6.3786    1.1611    0.2696 C.ar    1  LIG1       -0.0190
     19 H           6.2934   -0.7733   -0.6373 H       1  LIG1        0.0631
     20 C           4.2501    2.2502    0.5757 C.ar    1  LIG1       -0.0112
     21 C           5.6336    2.2564    0.7012 C.ar    1  LIG1        0.1175
     22 H           3.6756    3.1089    0.9089 H       1  LIG1        0.0660
     23 H           7.4568    1.1794    0.3757 H       1  LIG1        0.0654
     24 C           3.7238   -1.0841   -1.0460 C.1     1  LIG1       -0.0690
     25 C           3.2596   -2.0615   -1.5748 C.1     1  LIG1       -0.1139
     26 H           2.8332   -2.9191   -2.0414 H       1  LIG1        0.1232
     27 O           6.3105    3.3021    1.2436 O.3     1  LIG1       -0.5067
     28 H           5.6854    3.9944    1.4888 H       1  LIG1        0.2921
@<TRIPOS>BOND
     1    26    25    1
     2    14    13    1
     3    25    24    3
     4     8     6    1
     5    13     7    1
     6    24    15    1
     7     6     7   ar
     8     6     3   ar
     9     7     4   ar
    10    19    16    1
    11    15    16   ar
    12    15    17   ar
    13    16    18   ar
    14     9     3    1
    15     3     1   ar
    16     4    17    1
    17     4     2   ar
    18    17    20   ar
    19    18    23    1
    20    18    21   ar
    21     1     2   ar
    22     1    10    1
    23     2     5    1
    24    20    21   ar
    25    20    22    1
    26    21    27    1
    27    10    11    3
    28    27    28    1
    29    11    12    1
