@<TRIPOS>MOLECULE
mol_data/opt/cam/geoms/mol2/4ef4ef-4ef.out
 41 43 0 0 0
SMALL
GASTEIGER

@<TRIPOS>ATOM
      1 C          -0.1589    0.5744   -0.8263 C.ar    1  LIG1        0.0255
      2 C           1.2404    0.5503   -0.8167 C.ar    1  LIG1       -0.0351
      3 C          -0.8231    1.1974    0.2331 C.ar    1  LIG1       -0.0429
      4 C           1.9787    1.1302    0.2074 C.ar    1  LIG1        0.0260
      5 H           1.7666    0.0781   -1.6389 H       1  LIG1        0.0637
      6 C          -0.1048    1.7669    1.2710 C.ar    1  LIG1       -0.0184
      7 C           1.2874    1.7328    1.2686 C.ar    1  LIG1        0.1246
      8 H          -0.6272    2.2357    2.1008 H       1  LIG1        0.0654
      9 H          -1.9068    1.2275    0.2410 H       1  LIG1        0.0631
     10 C          -0.8911   -0.0238   -1.9008 C.1     1  LIG1       -0.0696
     11 C          -1.5084   -0.5275   -2.8037 C.1     1  LIG1       -0.1139
     12 H          -2.0525   -0.9737   -3.6037 H       1  LIG1        0.1232
     13 O           2.0217    2.2444    2.2866 O.3     1  LIG1       -0.5062
     14 H           1.4408    2.6979    2.9083 H       1  LIG1        0.2922
     15 C           4.2548    2.2410    0.1185 C.ar    1  LIG1        0.0333
     16 C           5.6413    2.1089    0.0601 C.ar    1  LIG1       -0.0345
     17 C           3.4643    1.0763    0.1804 C.ar    1  LIG1        0.0045
     18 C           6.2874    0.8724    0.0646 C.ar    1  LIG1        0.0260
     19 H           6.2425    3.0097    0.0050 H       1  LIG1        0.0637
     20 C           4.0980   -0.1572    0.1859 C.ar    1  LIG1       -0.0106
     21 C           5.4859   -0.2789    0.1396 C.ar    1  LIG1        0.1252
     22 H           3.5166   -1.0702    0.2425 H       1  LIG1        0.0661
     23 C           3.6789    3.5506    0.0641 C.1     1  LIG1       -0.0690
     24 C           3.2272    4.6645   -0.0065 C.1     1  LIG1       -0.1139
     25 H           2.8188    5.6465   -0.0670 H       1  LIG1        0.1232
     26 O           5.9713   -1.5442    0.1131 O.3     1  LIG1       -0.5061
     27 H           6.8345   -1.5813    0.5480 H       1  LIG1        0.2922
     28 C           8.6499    0.1818    0.7569 C.ar    1  LIG1        0.0327
     29 C          10.0310    0.2415    0.5175 C.ar    1  LIG1       -0.0423
     30 C           7.7652    0.8456   -0.1151 C.ar    1  LIG1        0.0045
     31 C          10.5479    0.9425   -0.5522 C.ar    1  LIG1       -0.0190
     32 H          10.6984   -0.2737    1.1992 H       1  LIG1        0.0631
     33 C           8.3028    1.5488   -1.1942 C.ar    1  LIG1       -0.0112
     34 C           9.6743    1.6026   -1.4153 C.ar    1  LIG1        0.1175
     35 H           7.6265    2.0490   -1.8816 H       1  LIG1        0.0660
     36 H          11.6140    0.9909   -0.7391 H       1  LIG1        0.0654
     37 C           8.1772   -0.5518    1.8913 C.1     1  LIG1       -0.0690
     38 C           7.7804   -1.2062    2.8228 C.1     1  LIG1       -0.1139
     39 H           7.4219   -1.7628    3.6583 H       1  LIG1        0.1232
     40 O          10.2173    2.2751   -2.4594 O.3     1  LIG1       -0.5067
     41 H           9.5167    2.6822   -2.9831 H       1  LIG1        0.2921
@<TRIPOS>BOND
     1    12    11    1
     2    41    40    1
     3    11    10    3
     4    40    34    1
     5    10     1    1
     6    35    33    1
     7     5     2    1
     8    34    33   ar
     9    34    31   ar
    10    33    30   ar
    11     1     2   ar
    12     1     3   ar
    13     2     4   ar
    14    36    31    1
    15    31    29   ar
    16    30    18    1
    17    30    28   ar
    18    25    24    1
    19    24    23    3
    20    19    16    1
    21    16    18   ar
    22    16    15   ar
    23    23    15    1
    24    18    21   ar
    25    26    21    1
    26    26    27    1
    27    15    17   ar
    28    21    20   ar
    29    17    20   ar
    30    17     4    1
    31    20    22    1
    32     4     7   ar
    33     3     9    1
    34     3     6   ar
    35    29    28   ar
    36    29    32    1
    37    28    37    1
    38     7     6   ar
    39     7    13    1
    40     6     8    1
    41    37    38    3
    42    13    14    1
    43    38    39    1
