@<TRIPOS>MOLECULE
mol_data/opt/cam/geoms/mol2/4ef4ef4ef-4ef-.out
 54 57 0 0 0
SMALL
GASTEIGER

@<TRIPOS>ATOM
      1 C          -0.2207    0.0196   -0.4773 C.ar    1  LIG1        0.0255
      2 C           1.1758    0.0608   -0.4274 C.ar    1  LIG1       -0.0351
      3 C          -0.9405    1.1345   -0.0401 C.ar    1  LIG1       -0.0429
      4 C           1.8675    1.1745    0.0388 C.ar    1  LIG1        0.0260
      5 H           1.7377   -0.8023   -0.7625 H       1  LIG1        0.0637
      6 C          -0.2732    2.2536    0.4259 C.ar    1  LIG1       -0.0184
      7 C           1.1190    2.2829    0.4649 C.ar    1  LIG1        0.1246
      8 H          -0.8355    3.1195    0.7660 H       1  LIG1        0.0654
      9 H          -2.0240    1.1189   -0.0699 H       1  LIG1        0.0631
     10 C          -0.8983   -1.1414   -0.9693 C.1     1  LIG1       -0.0696
     11 C          -1.4717   -2.1159   -1.3833 C.1     1  LIG1       -0.1139
     12 H          -1.9757   -2.9799   -1.7500 H       1  LIG1        0.1232
     13 O           1.7901    3.3765    0.9176 O.3     1  LIG1       -0.5062
     14 H           1.1538    4.0278    1.2353 H       1  LIG1        0.2922
     15 C           4.0969    0.1515    0.6615 C.ar    1  LIG1        0.0333
     16 C           5.4955    0.2042    0.6134 C.ar    1  LIG1       -0.0345
     17 C           3.3541    1.1856    0.0619 C.ar    1  LIG1        0.0045
     18 C           6.1849    1.2432    0.0058 C.ar    1  LIG1        0.0260
     19 H           6.0604   -0.5901    1.0886 H       1  LIG1        0.0637
     20 C           4.0441    2.2249   -0.5566 C.ar    1  LIG1       -0.0106
     21 C           5.4319    2.2622   -0.5936 C.ar    1  LIG1        0.1252
     22 H           3.4799    3.0249   -1.0256 H       1  LIG1        0.0661
     23 C           3.4810   -0.9428    1.3507 C.1     1  LIG1       -0.0690
     24 C           3.0057   -1.8775    1.9428 C.1     1  LIG1       -0.1139
     25 H           2.5713   -2.6988    2.4641 H       1  LIG1        0.1232
     26 O           6.1036    3.2509   -1.2332 O.3     1  LIG1       -0.5061
     27 H           5.4797    3.9266   -1.5226 H       1  LIG1        0.2922
     28 C           8.4323    2.2581    0.5899 C.ar    1  LIG1        0.0333
     29 C           9.8240    2.1811    0.5436 C.ar    1  LIG1       -0.0345
     30 C           7.6707    1.2430   -0.0253 C.ar    1  LIG1        0.0045
     31 C          10.4909    1.1290   -0.0774 C.ar    1  LIG1        0.0260
     32 H          10.4036    2.9616    1.0219 H       1  LIG1        0.0637
     33 C           8.3299    0.1919   -0.6466 C.ar    1  LIG1       -0.0106
     34 C           9.7201    0.1238   -0.6783 C.ar    1  LIG1        0.1252
     35 H           7.7678   -0.5937   -1.1380 H       1  LIG1        0.0661
     36 C           7.8202    3.3386    1.3022 C.1     1  LIG1       -0.0690
     37 C           7.3366    4.2471    1.9270 C.1     1  LIG1       -0.1139
     38 H           6.8993    5.0457    2.4796 H       1  LIG1        0.1232
     39 O          10.2644   -0.9387   -1.3224 O.3     1  LIG1       -0.5061
     40 H          11.2269   -0.8475   -1.3321 H       1  LIG1        0.2922
     41 C          12.7741    2.0981   -0.6038 C.ar    1  LIG1        0.0327
     42 C          14.1661    1.9675   -0.5693 C.ar    1  LIG1       -0.0423
     43 C          11.9761    1.0551   -0.0846 C.ar    1  LIG1        0.0045
     44 C          14.7769    0.8380   -0.0510 C.ar    1  LIG1       -0.0190
     45 H          14.7733    2.7720   -0.9687 H       1  LIG1        0.0631
     46 C          12.6009   -0.0786    0.4342 C.ar    1  LIG1       -0.0112
     47 C          13.9894   -0.1925    0.4539 C.ar    1  LIG1        0.1175
     48 H          12.0127   -0.8801    0.8681 H       1  LIG1        0.0660
     49 H          15.8603    0.7588   -0.0378 H       1  LIG1        0.0654
     50 C          12.2045    3.2774   -1.1823 C.1     1  LIG1       -0.0690
     51 C          11.7653    4.2811   -1.6813 C.1     1  LIG1       -0.1139
     52 H          11.3554    5.1621   -2.1186 H       1  LIG1        0.1232
     53 O          14.5109   -1.3269    0.9833 O.3     1  LIG1       -0.5067
     54 H          15.4741   -1.2844    0.9579 H       1  LIG1        0.2921
@<TRIPOS>BOND
     1    52    51    1
     2    12    11    1
     3    51    50    3
     4    27    26    1
     5    11    10    3
     6    40    39    1
     7    39    34    1
     8    26    21    1
     9    50    41    1
    10    35    33    1
    11    22    20    1
    12    10     1    1
    13    45    42    1
    14     5     2    1
    15    34    33   ar
    16    34    31   ar
    17    33    30   ar
    18    41    42   ar
    19    41    43   ar
    20    21    20   ar
    21    21    18   ar
    22    42    44   ar
    23    20    17   ar
    24     1     2   ar
    25     1     3   ar
    26     2     4   ar
    27    43    31    1
    28    43    46   ar
    29    31    29   ar
    30     9     3    1
    31    44    49    1
    32    44    47   ar
    33     3     6   ar
    34    30    18    1
    35    30    28   ar
    36    18    16   ar
    37     4    17    1
    38     4     7   ar
    39    17    15   ar
    40     6     7   ar
    41     6     8    1
    42    46    47   ar
    43    46    48    1
    44    47    53    1
    45     7    13    1
    46    29    28   ar
    47    29    32    1
    48    28    36    1
    49    16    15   ar
    50    16    19    1
    51    15    23    1
    52    13    14    1
    53    54    53    1
    54    36    37    3
    55    23    24    3
    56    37    38    1
    57    24    25    1
