@<TRIPOS>MOLECULE
mol_data/opt/cam/geoms/mol2/4ef4ef-4ef-4ef-.out
 54 57 0 0 0
SMALL
GASTEIGER

@<TRIPOS>ATOM
      1 C          -0.2054    0.0591   -0.0749 C.ar    1  LIG1        0.0255
      2 C           1.1924    0.1165   -0.0326 C.ar    1  LIG1       -0.0351
      3 C          -0.9190    1.2530   -0.2045 C.ar    1  LIG1       -0.0429
      4 C           1.8820    1.3201   -0.1102 C.ar    1  LIG1        0.0260
      5 H           1.7560   -0.8032    0.0785 H       1  LIG1        0.0637
      6 C          -0.2490    2.4613   -0.2988 C.ar    1  LIG1       -0.0184
      7 C           1.1425    2.5027   -0.2584 C.ar    1  LIG1        0.1246
      8 H          -0.8086    3.3857   -0.4161 H       1  LIG1        0.0654
      9 H          -2.0023    1.2278   -0.2367 H       1  LIG1        0.0631
     10 C          -0.8868   -1.1962    0.0165 C.1     1  LIG1       -0.0696
     11 C          -1.4616   -2.2517    0.0923 C.1     1  LIG1       -0.1139
     12 H          -1.9678   -3.1866    0.1601 H       1  LIG1        0.1232
     13 O           1.8310    3.6630   -0.3879 O.3     1  LIG1       -0.5062
     14 H           1.2146    4.4041   -0.4015 H       1  LIG1        0.2922
     15 C           4.0806    1.9835    0.9600 C.ar    1  LIG1        0.0333
     16 C           5.4745    1.9364    0.9511 C.ar    1  LIG1       -0.0345
     17 C           3.3684    1.3341   -0.0693 C.ar    1  LIG1        0.0045
     18 C           6.1896    1.2585   -0.0317 C.ar    1  LIG1        0.0260
     19 H           6.0165    2.4342    1.7464 H       1  LIG1        0.0637
     20 C           4.0754    0.6573   -1.0525 C.ar    1  LIG1       -0.0106
     21 C           5.4671    0.6121   -1.0448 C.ar    1  LIG1        0.1252
     22 H           3.5517    0.1614   -1.8616 H       1  LIG1        0.0661
     23 C           3.4146    2.6497    2.0381 C.1     1  LIG1       -0.0690
     24 C           2.8839    3.1996    2.9686 C.1     1  LIG1       -0.1139
     25 H           2.4083    3.6820    3.7906 H       1  LIG1        0.1232
     26 O           6.0613   -0.0637   -2.0591 O.3     1  LIG1       -0.5061
     27 H           7.0215    0.0222   -1.9812 H       1  LIG1        0.2922
     28 C           8.4725    2.3632    0.0145 C.ar    1  LIG1        0.0333
     29 C           9.8623    2.2327    0.0461 C.ar    1  LIG1       -0.0345
     30 C           7.6746    1.1990   -0.0024 C.ar    1  LIG1        0.0045
     31 C          10.4962    0.9951    0.0595 C.ar    1  LIG1        0.0260
     32 H          10.4664    3.1322    0.0564 H       1  LIG1        0.0637
     33 C           8.3066   -0.0423    0.0011 C.ar    1  LIG1       -0.0106
     34 C           9.6948   -0.1553    0.0331 C.ar    1  LIG1        0.1252
     35 H           7.7236   -0.9571    0.0130 H       1  LIG1        0.0661
     36 C           7.9040    3.6771   -0.0168 C.1     1  LIG1       -0.0690
     37 C           7.4620    4.7964   -0.0462 C.1     1  LIG1       -0.1139
     38 H           7.0522    5.7796   -0.0712 H       1  LIG1        0.1232
     39 O          10.2043   -1.4095    0.0331 O.3     1  LIG1       -0.5061
     40 H          11.1705   -1.3635    0.0207 H       1  LIG1        0.2922
     41 C          12.8046    1.4773   -0.8668 C.ar    1  LIG1        0.0327
     42 C          14.1918    1.3409   -0.7534 C.ar    1  LIG1       -0.0423
     43 C          11.9784    0.8854    0.1130 C.ar    1  LIG1        0.0045
     44 C          14.7687    0.6323    0.2870 C.ar    1  LIG1       -0.0190
     45 H          14.8224    1.7976   -1.5078 H       1  LIG1        0.0631
     46 C          12.5679    0.1724    1.1562 C.ar    1  LIG1       -0.0112
     47 C          13.9525    0.0435    1.2486 C.ar    1  LIG1        0.1175
     48 H          11.9572   -0.2639    1.9395 H       1  LIG1        0.0660
     49 H          15.8491    0.5387    0.3520 H       1  LIG1        0.0654
     50 C          12.2662    2.1965   -1.9816 C.1     1  LIG1       -0.0690
     51 C          11.8501    2.8041   -2.9339 C.1     1  LIG1       -0.1139
     52 H          11.4663    3.3410   -3.7707 H       1  LIG1        0.1232
     53 O          14.4397   -0.6604    2.2990 O.3     1  LIG1       -0.5067
     54 H          15.4038   -0.6683    2.2681 H       1  LIG1        0.2921
@<TRIPOS>BOND
     1    52    51    1
     2    51    50    3
     3    26    27    1
     4    26    21    1
     5    50    41    1
     6    22    20    1
     7    45    42    1
     8    20    21   ar
     9    20    17   ar
    10    21    18   ar
    11    41    42   ar
    12    41    43   ar
    13    42    44   ar
    14     8     6    1
    15    14    13    1
    16    13     7    1
    17     6     7   ar
    18     6     3   ar
    19     7     4   ar
    20     9     3    1
    21     3     1   ar
    22     4    17    1
    23     4     2   ar
    24     1     2   ar
    25     1    10    1
    26    38    37    1
    27    17    15   ar
    28    37    36    3
    29     2     5    1
    30    18    30    1
    31    18    16   ar
    32    36    28    1
    33    30    33   ar
    34    30    28   ar
    35    33    35    1
    36    33    34   ar
    37    28    29   ar
    38    10    11    3
    39    40    39    1
    40    39    34    1
    41    34    31   ar
    42    29    32    1
    43    29    31   ar
    44    31    43    1
    45    11    12    1
    46    43    46   ar
    47    44    49    1
    48    44    47   ar
    49    16    15   ar
    50    16    19    1
    51    15    23    1
    52    46    47   ar
    53    46    48    1
    54    47    53    1
    55    23    24    3
    56    54    53    1
    57    24    25    1
