@<TRIPOS>MOLECULE
mol_data/opt/cam/geoms/mol2/4ef4ef-4ef-4ef.out
 54 57 0 0 0
SMALL
GASTEIGER

@<TRIPOS>ATOM
      1 C          -0.2531    0.1481   -0.0802 C.ar    1  LIG1        0.0255
      2 C           1.1462    0.1606   -0.0528 C.ar    1  LIG1       -0.0351
      3 C          -0.9291    1.3634   -0.2112 C.ar    1  LIG1       -0.0429
      4 C           1.8732    1.3408   -0.1462 C.ar    1  LIG1        0.0260
      5 H           1.6810   -0.7761    0.0593 H       1  LIG1        0.0637
      6 C          -0.2216    2.5488   -0.3213 C.ar    1  LIG1       -0.0184
      7 C           1.1707    2.5456   -0.2954 C.ar    1  LIG1        0.1246
      8 H          -0.7524    3.4899   -0.4396 H       1  LIG1        0.0654
      9 H          -2.0130    1.3730   -0.2320 H       1  LIG1        0.0631
     10 C          -0.9735   -1.0839    0.0276 C.1     1  LIG1       -0.0696
     11 C          -1.5811   -2.1198    0.1171 C.1     1  LIG1       -0.1139
     12 H          -2.1165   -3.0373    0.1970 H       1  LIG1        0.1232
     13 O           1.8950    3.6821   -0.4405 O.3     1  LIG1       -0.5062
     14 H           1.3027    4.4427   -0.4523 H       1  LIG1        0.2922
     15 C           4.1029    1.9402    0.8971 C.ar    1  LIG1        0.0333
     16 C           5.4943    1.8479    0.8747 C.ar    1  LIG1       -0.0345
     17 C           3.3596    1.3071   -0.1203 C.ar    1  LIG1        0.0045
     18 C           6.1776    1.1407   -0.1104 C.ar    1  LIG1        0.0260
     19 H           6.0598    2.3327    1.6616 H       1  LIG1        0.0637
     20 C           4.0345    0.6004   -1.1051 C.ar    1  LIG1       -0.0106
     21 C           5.4239    0.5099   -1.1109 C.ar    1  LIG1        0.1252
     22 H           3.4869    0.1154   -1.9049 H       1  LIG1        0.0661
     23 C           3.4699    2.6349    1.9771 C.1     1  LIG1       -0.0690
     24 C           2.9671    3.2080    2.9090 C.1     1  LIG1       -0.1139
     25 H           2.5157    3.7111    3.7323 H       1  LIG1        0.1232
     26 O           5.9846   -0.1929   -2.1260 O.3     1  LIG1       -0.5061
     27 H           6.9478   -0.1451   -2.0547 H       1  LIG1        0.2922
     28 C           8.4961    2.1710   -0.0698 C.ar    1  LIG1        0.0333
     29 C           9.8797    1.9890   -0.0572 C.ar    1  LIG1       -0.0345
     30 C           7.6598    1.0353   -0.0955 C.ar    1  LIG1        0.0045
     31 C          10.4851    0.7331   -0.0699 C.ar    1  LIG1        0.0260
     32 H          10.5120    2.8698   -0.0415 H       1  LIG1        0.0637
     33 C           8.2582   -0.2219   -0.0982 C.ar    1  LIG1       -0.0106
     34 C           9.6424   -0.3914   -0.0775 C.ar    1  LIG1        0.1252
     35 H           7.6494   -1.1197   -0.0779 H       1  LIG1        0.0661
     36 C           7.9773    3.5055   -0.0822 C.1     1  LIG1       -0.0690
     37 C           7.5799    4.6418   -0.0981 C.1     1  LIG1       -0.1139
     38 H           7.2071    5.6399   -0.1095 H       1  LIG1        0.1232
     39 O          10.0829   -1.6702   -0.1197 O.3     1  LIG1       -0.5061
     40 H          10.9214   -1.7546    0.3561 H       1  LIG1        0.2922
     41 C          12.7804   -0.0639    0.7215 C.ar    1  LIG1        0.0327
     42 C          14.1738   -0.0441    0.5594 C.ar    1  LIG1       -0.0423
     43 C          11.9690    0.6614   -0.1719 C.ar    1  LIG1        0.0045
     44 C          14.7713    0.6755   -0.4542 C.ar    1  LIG1       -0.0190
     45 H          14.7853   -0.6058    1.2565 H       1  LIG1        0.0631
     46 C          12.5869    1.3836   -1.1937 C.ar    1  LIG1       -0.0112
     47 C          13.9698    1.3965   -1.3386 C.ar    1  LIG1        0.1175
     48 H          11.9668    1.9322   -1.8970 H       1  LIG1        0.0660
     49 H          15.8471    0.6929   -0.5814 H       1  LIG1        0.0654
     50 C          12.2202   -0.8199    1.7999 C.1     1  LIG1       -0.0690
     51 C          11.7483   -1.4922    2.6825 C.1     1  LIG1       -0.1139
     52 H          11.3257   -2.0652    3.4760 H       1  LIG1        0.1232
     53 O          14.5926    2.0850   -2.3251 O.3     1  LIG1       -0.5067
     54 H          13.9383    2.5370   -2.8714 H       1  LIG1        0.2921
@<TRIPOS>BOND
     1    54    53    1
     2    53    47    1
     3    26    27    1
     4    26    21    1
     5    22    20    1
     6    48    46    1
     7    47    46   ar
     8    47    44   ar
     9    46    43   ar
    10    21    20   ar
    11    21    18   ar
    12    20    17   ar
    13    49    44    1
    14    44    42   ar
    15    14    13    1
    16    13     7    1
    17     8     6    1
    18     6     7   ar
    19     6     3   ar
    20     7     4   ar
    21     9     3    1
    22     3     1   ar
    23    43    31    1
    24    43    41   ar
    25     4    17    1
    26     4     2   ar
    27    17    15   ar
    28    39    34    1
    29    39    40    1
    30    18    30    1
    31    18    16   ar
    32    38    37    1
    33    33    30   ar
    34    33    35    1
    35    33    34   ar
    36    37    36    3
    37    30    28   ar
    38    36    28    1
    39     1     2   ar
    40     1    10    1
    41    34    31   ar
    42    31    29   ar
    43    28    29   ar
    44    29    32    1
    45     2     5    1
    46    10    11    3
    47    11    12    1
    48    42    41   ar
    49    42    45    1
    50    41    50    1
    51    16    15   ar
    52    16    19    1
    53    15    23    1
    54    50    51    3
    55    23    24    3
    56    51    52    1
    57    24    25    1
