@<TRIPOS>MOLECULE
mol_data/opt/cam/geoms/mol2/4eg.out
 15 15 0 0 0
SMALL
GASTEIGER

@<TRIPOS>ATOM
      1 C           0.0790    0.0079    0.0003 C.ar    1  LIG1        0.0247
      2 C           1.4784    0.0185   -0.0000 C.ar    1  LIG1       -0.0453
      3 C          -0.5999    1.2304    0.0002 C.ar    1  LIG1       -0.0453
      4 C           2.1764    1.2139   -0.0004 C.ar    1  LIG1       -0.0474
      5 H           2.0164   -0.9228    0.0001 H       1  LIG1        0.0630
      6 C           0.0971    2.4281   -0.0002 C.ar    1  LIG1       -0.0474
      7 C           1.4915    2.4301   -0.0006 C.ar    1  LIG1        0.0048
      8 H          -0.4518    3.3641   -0.0003 H       1  LIG1        0.0629
      9 H           3.2615    1.2029   -0.0007 H       1  LIG1        0.0629
     10 H          -1.6841    1.2359    0.0005 H       1  LIG1        0.0630
     11 C          -0.6425   -1.2281    0.0008 C.1     1  LIG1       -0.0697
     12 C          -1.2494   -2.2679    0.0011 C.1     1  LIG1       -0.1139
     13 H          -1.7863   -3.1884    0.0015 H       1  LIG1        0.1232
     14 S           2.4528    3.9234   -0.0011 S.3     1  LIG1       -0.1426
     15 H           1.4203    4.7809   -0.0011 H       1  LIG1        0.1071
@<TRIPOS>BOND
     1    14    15    1
     2    14     7    1
     3     9     4    1
     4     7     4   ar
     5     7     6   ar
     6     4     2   ar
     7     8     6    1
     8     6     3   ar
     9     2     5    1
    10     2     1   ar
    11     3     1   ar
    12     3    10    1
    13     1    11    1
    14    11    12    3
    15    12    13    1
