@<TRIPOS>MOLECULE
mol_data/opt/cam/geoms/mol2/4eg4eg.out
 28 29 0 0 0
SMALL
GASTEIGER

@<TRIPOS>ATOM
      1 C          -0.0462    0.1348    0.5530 C.ar    1  LIG1        0.0253
      2 C           1.3490    0.1546    0.5791 C.ar    1  LIG1       -0.0375
      3 C          -0.7169    1.1461   -0.1416 C.ar    1  LIG1       -0.0453
      4 C           2.0792    1.1504   -0.0637 C.ar    1  LIG1       -0.0024
      5 H           1.8801   -0.6249    1.1129 H       1  LIG1        0.0636
      6 C          -0.0051    2.1397   -0.7886 C.ar    1  LIG1       -0.0468
      7 C           1.3909    2.1544   -0.7615 C.ar    1  LIG1        0.0126
      8 H          -0.5437    2.9137   -1.3252 H       1  LIG1        0.0629
      9 H          -1.8005    1.1466   -0.1714 H       1  LIG1        0.0630
     10 C          -0.7734   -0.8981    1.2259 C.1     1  LIG1       -0.0696
     11 C          -1.3874   -1.7653    1.7918 C.1     1  LIG1       -0.1139
     12 H          -1.9286   -2.5341    2.2933 H       1  LIG1        0.1232
     13 S           2.3166    3.4132   -1.6154 S.3     1  LIG1       -0.1420
     14 H           1.2528    3.9900   -2.1969 H       1  LIG1        0.1071
     15 C           4.3211    0.0891   -0.5492 C.ar    1  LIG1        0.0325
     16 C           5.7142    0.1086   -0.4144 C.ar    1  LIG1       -0.0447
     17 C           3.5670    1.1307    0.0215 C.ar    1  LIG1       -0.0004
     18 C           6.3557    1.1304    0.2611 C.ar    1  LIG1       -0.0474
     19 H           6.2929   -0.6929   -0.8591 H       1  LIG1        0.0630
     20 C           4.2241    2.1500    0.7073 C.ar    1  LIG1       -0.0396
     21 C           5.6108    2.1637    0.8293 C.ar    1  LIG1        0.0054
     22 H           3.6302    2.9385    1.1572 H       1  LIG1        0.0635
     23 H           7.4375    1.1279    0.3441 H       1  LIG1        0.0629
     24 C           3.7036   -0.9812   -1.2724 C.1     1  LIG1       -0.0691
     25 C           3.2164   -1.8951   -1.8860 C.1     1  LIG1       -0.1139
     26 H           2.7729   -2.6981   -2.4281 H       1  LIG1        0.1232
     27 S           6.4836    3.4381    1.7041 S.3     1  LIG1       -0.1426
     28 H           5.4319    4.2483    1.9017 H       1  LIG1        0.1071
@<TRIPOS>BOND
     1    26    25    1
     2    14    13    1
     3    25    24    3
     4    13     7    1
     5     8     6    1
     6    24    15    1
     7    19    16    1
     8     6     7   ar
     9     6     3   ar
    10     7     4   ar
    11    15    16   ar
    12    15    17   ar
    13    16    18   ar
    14     9     3    1
    15     3     1   ar
    16     4    17    1
    17     4     2   ar
    18    17    20   ar
    19    18    23    1
    20    18    21   ar
    21     1     2   ar
    22     1    10    1
    23     2     5    1
    24    20    21   ar
    25    20    22    1
    26    21    27    1
    27    10    11    3
    28    27    28    1
    29    11    12    1
