@<TRIPOS>MOLECULE
mol_data/opt/cam/geoms/mol2/4eg4eg-4eg-4eg-.out
 54 57 0 0 0
SMALL
GASTEIGER

@<TRIPOS>ATOM
      1 C          -0.2366    0.1104   -0.5786 C.ar    1  LIG1        0.0253
      2 C           1.1584    0.1295   -0.5451 C.ar    1  LIG1       -0.0375
      3 C          -0.9354    1.1418    0.0561 C.ar    1  LIG1       -0.0453
      4 C           1.8614    1.1441    0.0988 C.ar    1  LIG1       -0.0024
      5 H           1.7113   -0.6654   -1.0319 H       1  LIG1        0.0636
      6 C          -0.2512    2.1542    0.7036 C.ar    1  LIG1       -0.0468
      7 C           1.1447    2.1681    0.7366 C.ar    1  LIG1        0.0126
      8 H          -0.8115    2.9437    1.1934 H       1  LIG1        0.0629
      9 H          -2.0194    1.1430    0.0390 H       1  LIG1        0.0630
     10 C          -0.9356   -0.9419   -1.2513 C.1     1  LIG1       -0.0696
     11 C          -1.5265   -1.8252   -1.8169 C.1     1  LIG1       -0.1139
     12 H          -2.0477   -2.6077   -2.3183 H       1  LIG1        0.1232
     13 S           2.0340    3.4514    1.5929 S.3     1  LIG1       -0.1420
     14 H           0.9475    4.0391    2.1187 H       1  LIG1        0.1071
     15 C           4.0815    0.0962    0.7066 C.ar    1  LIG1        0.0330
     16 C           5.4752    0.1171    0.6318 C.ar    1  LIG1       -0.0369
     17 C           3.3510    1.1215    0.0790 C.ar    1  LIG1       -0.0004
     18 C           6.1683    1.1189   -0.0386 C.ar    1  LIG1       -0.0023
     19 H           6.0352   -0.6734    1.1175 H       1  LIG1        0.0636
     20 C           4.0424    2.1188   -0.5997 C.ar    1  LIG1       -0.0390
     21 C           5.4345    2.1347   -0.6683 C.ar    1  LIG1        0.0131
     22 H           3.4704    2.8967   -1.0942 H       1  LIG1        0.0635
     23 C           3.4367   -0.9581    1.4296 C.1     1  LIG1       -0.0690
     24 C           2.9225   -1.8560    2.0444 C.1     1  LIG1       -0.1139
     25 H           2.4572   -2.6456    2.5883 H       1  LIG1        0.1232
     26 S           6.2958    3.4042   -1.5702 S.3     1  LIG1       -0.1420
     27 H           5.1924    4.0143   -2.0308 H       1  LIG1        0.1071
     28 C           8.3695    0.0515   -0.6781 C.ar    1  LIG1        0.0330
     29 C           9.7647    0.0691   -0.6364 C.ar    1  LIG1       -0.0369
     30 C           7.6573    1.0919   -0.0544 C.ar    1  LIG1       -0.0004
     31 C          10.4760    1.0818   -0.0028 C.ar    1  LIG1       -0.0023
     32 H          10.3107   -0.7330   -1.1189 H       1  LIG1        0.0636
     33 C           8.3671    2.1009    0.5871 C.ar    1  LIG1       -0.0390
     34 C           9.7604    2.1131    0.6228 C.ar    1  LIG1        0.0131
     35 H           7.8091    2.8906    1.0786 H       1  LIG1        0.0635
     36 C           7.7052   -1.0152   -1.3643 C.1     1  LIG1       -0.0690
     37 C           7.1751   -1.9241   -1.9490 C.1     1  LIG1       -0.1139
     38 H           6.6971   -2.7243   -2.4656 H       1  LIG1        0.1232
     39 S          10.6473    3.3974    1.4771 S.3     1  LIG1       -0.1420
     40 H           9.5570    4.0245    1.9463 H       1  LIG1        0.1071
     41 C          12.6854    0.0256    0.6197 C.ar    1  LIG1        0.0325
     42 C          14.0833    0.0327    0.5470 C.ar    1  LIG1       -0.0447
     43 C          11.9655    1.0506   -0.0207 C.ar    1  LIG1       -0.0004
     44 C          14.7614    1.0257   -0.1355 C.ar    1  LIG1       -0.0474
     45 H          14.6359   -0.7559    1.0450 H       1  LIG1        0.0630
     46 C          12.6593    2.0416   -0.7117 C.ar    1  LIG1       -0.0396
     47 C          14.0501    2.0423   -0.7729 C.ar    1  LIG1        0.0054
     48 H          12.0914    2.8179   -1.2133 H       1  LIG1        0.0635
     49 H          15.8457    1.0132   -0.1710 H       1  LIG1        0.0629
     50 C          12.0285   -1.0150    1.3515 C.1     1  LIG1       -0.0691
     51 C          11.5076   -1.9036    1.9747 C.1     1  LIG1       -0.1139
     52 H          11.0357   -2.6845    2.5251 H       1  LIG1        0.1232
     53 S          14.9701    3.2804   -1.6510 S.3     1  LIG1       -0.1426
     54 H          13.9287    4.0708   -1.9542 H       1  LIG1        0.1071
@<TRIPOS>BOND
     1    38    37    1
     2    12    11    1
     3    27    26    1
     4    54    53    1
     5    37    36    3
     6    11    10    3
     7    53    47    1
     8    26    21    1
     9    36    28    1
    10    10     1    1
    11    48    46    1
    12    32    29    1
    13    22    20    1
    14     5     2    1
    15    47    46   ar
    16    47    44   ar
    17    46    43   ar
    18    28    29   ar
    19    28    30   ar
    20    21    20   ar
    21    21    18   ar
    22    29    31   ar
    23    20    17   ar
    24     1     2   ar
    25     1     3   ar
    26     2     4   ar
    27    49    44    1
    28    44    42   ar
    29    30    18    1
    30    30    33   ar
    31    18    16   ar
    32    43    31    1
    33    43    41   ar
    34    31    34   ar
    35     9     3    1
    36     3     6   ar
    37    17     4    1
    38    17    15   ar
    39     4     7   ar
    40    42    41   ar
    41    42    45    1
    42    33    34   ar
    43    33    35    1
    44    41    50    1
    45    34    39    1
    46    16    15   ar
    47    16    19    1
    48     6     7   ar
    49     6     8    1
    50    15    23    1
    51     7    13    1
    52    50    51    3
    53    23    24    3
    54    39    40    1
    55    13    14    1
    56    51    52    1
    57    24    25    1
