@<TRIPOS>MOLECULE
mol_data/opt/cam/geoms/mol2/4eg4eg4eg-4eg.out
 54 57 0 0 0
SMALL
GASTEIGER

@<TRIPOS>ATOM
      1 C          -0.2364    0.1161    0.6024 C.ar    1  LIG1        0.0253
      2 C           1.1586    0.1353    0.5690 C.ar    1  LIG1       -0.0375
      3 C          -0.9356    1.1374   -0.0481 C.ar    1  LIG1       -0.0453
      4 C           1.8612    1.1404   -0.0900 C.ar    1  LIG1       -0.0024
      5 H           1.7117   -0.6519    1.0680 H       1  LIG1        0.0636
      6 C          -0.2516    2.1402   -0.7107 C.ar    1  LIG1       -0.0468
      7 C           1.1443    2.1542   -0.7435 C.ar    1  LIG1        0.0126
      8 H          -0.8121    2.9219   -1.2125 H       1  LIG1        0.0629
      9 H          -2.0195    1.1384   -0.0313 H       1  LIG1        0.0630
     10 C          -0.9351   -0.9262    1.2907 C.1     1  LIG1       -0.0696
     11 C          -1.5258   -1.8011    1.8695 C.1     1  LIG1       -0.1139
     12 H          -2.0468   -2.5761    2.3827 H       1  LIG1        0.1232
     13 S           2.0333    3.4248   -1.6189 S.3     1  LIG1       -0.1420
     14 H           0.9467    4.0040   -2.1539 H       1  LIG1        0.1071
     15 C           4.0821    0.0845   -0.6812 C.ar    1  LIG1        0.0330
     16 C           5.4757    0.1071   -0.6063 C.ar    1  LIG1       -0.0369
     17 C           3.3509    1.1188   -0.0694 C.ar    1  LIG1       -0.0004
     18 C           6.1681    1.1193    0.0490 C.ar    1  LIG1       -0.0023
     19 H           6.0362   -0.6904   -1.0799 H       1  LIG1        0.0636
     20 C           4.0416    2.1266    0.5943 C.ar    1  LIG1       -0.0390
     21 C           5.4337    2.1442    0.6630 C.ar    1  LIG1        0.0131
     22 H           3.4692    2.9116    1.0767 H       1  LIG1        0.0635
     23 C           3.4380   -0.9810   -1.3883 C.1     1  LIG1       -0.0690
     24 C           2.9243   -1.8884   -1.9897 C.1     1  LIG1       -0.1139
     25 H           2.4596   -2.6864   -2.5215 H       1  LIG1        0.1232
     26 S           6.2942    3.4276    1.5458 S.3     1  LIG1       -0.1420
     27 H           5.1904    4.0441    1.9968 H       1  LIG1        0.1071
     28 C           8.3697    0.0627    0.7052 C.ar    1  LIG1        0.0330
     29 C           9.7649    0.0804    0.6637 C.ar    1  LIG1       -0.0369
     30 C           7.6571    1.0932    0.0657 C.ar    1  LIG1       -0.0004
     31 C          10.4759    1.0837    0.0150 C.ar    1  LIG1       -0.0023
     32 H          10.3111   -0.7141    1.1586 H       1  LIG1        0.0636
     33 C           8.3667    2.0927   -0.5910 C.ar    1  LIG1       -0.0390
     34 C           9.7600    2.1050   -0.6264 C.ar    1  LIG1        0.0131
     35 H           7.8085    2.8745   -1.0945 H       1  LIG1        0.0635
     36 C           7.7056   -0.9938    1.4074 C.1     1  LIG1       -0.0690
     37 C           7.1757   -1.8939    2.0057 C.1     1  LIG1       -0.1139
     38 H           6.6980   -2.6863    2.5343 H       1  LIG1        0.1232
     39 S          10.6465    3.3765   -1.4999 S.3     1  LIG1       -0.1420
     40 H           9.5562    3.9959   -1.9789 H       1  LIG1        0.1071
     41 C          12.6860    0.0192   -0.5908 C.ar    1  LIG1        0.0325
     42 C          14.0838    0.0280   -0.5178 C.ar    1  LIG1       -0.0447
     43 C          11.9653    1.0534    0.0338 C.ar    1  LIG1       -0.0004
     44 C          14.7613    1.0315    0.1497 C.ar    1  LIG1       -0.0474
     45 H          14.6369   -0.7678   -1.0036 H       1  LIG1        0.0630
     46 C          12.6585    2.0551    0.7099 C.ar    1  LIG1       -0.0396
     47 C          14.0493    2.0574    0.7714 C.ar    1  LIG1        0.0054
     48 H          12.0901    2.8387    1.1995 H       1  LIG1        0.0635
     49 H          15.8455    1.0201    0.1858 H       1  LIG1        0.0629
     50 C          12.0297   -1.0328   -1.3068 C.1     1  LIG1       -0.0691
     51 C          11.5094   -1.9309   -1.9166 C.1     1  LIG1       -0.1139
     52 H          11.0381   -2.7203   -2.4553 H       1  LIG1        0.1232
     53 S          14.9684    3.3091    1.6309 S.3     1  LIG1       -0.1426
     54 H          13.9266    4.1036    1.9217 H       1  LIG1        0.1071
@<TRIPOS>BOND
     1    25    24    1
     2    52    51    1
     3    14    13    1
     4    24    23    3
     5    40    39    1
     6    51    50    3
     7    13     7    1
     8    39    34    1
     9    23    15    1
    10    50    41    1
    11     8     6    1
    12    35    33    1
    13    19    16    1
    14    45    42    1
    15     7     6   ar
    16     7     4   ar
    17     6     3   ar
    18    15    16   ar
    19    15    17   ar
    20    34    33   ar
    21    34    31   ar
    22    16    18   ar
    23    33    30   ar
    24    41    42   ar
    25    41    43   ar
    26    42    44   ar
    27     4    17    1
    28     4     2   ar
    29    17    20   ar
    30     3     9    1
    31     3     1   ar
    32    31    43    1
    33    31    29   ar
    34    43    46   ar
    35    18    30    1
    36    18    21   ar
    37    30    28   ar
    38    44    49    1
    39    44    47   ar
    40     2     1   ar
    41     2     5    1
    42    20    21   ar
    43    20    22    1
    44     1    10    1
    45    21    26    1
    46    29    28   ar
    47    29    32    1
    48    28    36    1
    49    46    47   ar
    50    46    48    1
    51    47    53    1
    52    10    11    3
    53    36    37    3
    54    26    27    1
    55    53    54    1
    56    11    12    1
    57    37    38    1
