@<TRIPOS>MOLECULE
mol_data/opt/cam/geoms/mol2/4eg4eg4eg4eg.out
 54 57 0 0 0
SMALL
GASTEIGER

@<TRIPOS>ATOM
      1 C          -0.2223    1.0850    1.0742 C.ar    1  LIG1        0.0253
      2 C           1.1715    1.0409    1.0206 C.ar    1  LIG1       -0.0375
      3 C          -0.9417    0.9709   -0.1193 C.ar    1  LIG1       -0.0453
      4 C           1.8536    0.8892   -0.1835 C.ar    1  LIG1       -0.0024
      5 H           1.7397    1.1267    1.9396 H       1  LIG1        0.0636
      6 C          -0.2784    0.8150   -1.3227 C.ar    1  LIG1       -0.0468
      7 C           1.1164    0.7693   -1.3715 C.ar    1  LIG1        0.0126
      8 H          -0.8545    0.7241   -2.2375 H       1  LIG1        0.0629
      9 H          -2.0251    1.0039   -0.0962 H       1  LIG1        0.0630
     10 C          -0.8994    1.2463    2.3248 C.1     1  LIG1       -0.0696
     11 C          -1.4716    1.3827    3.3752 C.1     1  LIG1       -0.1139
     12 H          -1.9761    1.5031    4.3060 H       1  LIG1        0.1232
     13 S           1.9779    0.5385   -2.9125 S.3     1  LIG1       -0.1420
     14 H           0.8753    0.3482   -3.6543 H       1  LIG1        0.1071
     15 C           4.0691   -0.1432    0.4677 C.ar    1  LIG1        0.0330
     16 C           5.4636   -0.0830    0.4669 C.ar    1  LIG1       -0.0369
     17 C           3.3436    0.8753   -0.1765 C.ar    1  LIG1       -0.0004
     18 C           6.1627    0.9488   -0.1501 C.ar    1  LIG1       -0.0023
     19 H           6.0192   -0.8714    0.9609 H       1  LIG1        0.0636
     20 C           4.0413    1.9067   -0.7950 C.ar    1  LIG1       -0.0390
     21 C           5.4345    1.9564   -0.7992 C.ar    1  LIG1        0.0131
     22 H           3.4742    2.6922   -1.2829 H       1  LIG1        0.0635
     23 C           3.4182   -1.2411    1.1167 C.1     1  LIG1       -0.0690
     24 C           2.8993   -2.1753    1.6707 C.1     1  LIG1       -0.1139
     25 H           2.4299   -2.9989    2.1573 H       1  LIG1        0.1232
     26 S           6.3028    3.2706   -1.6277 S.3     1  LIG1       -0.1420
     27 H           5.2138    3.8106   -2.1977 H       1  LIG1        0.1071
     28 C           8.4229   -0.0562   -0.6770 C.ar    1  LIG1        0.0330
     29 C           9.8125   -0.0042   -0.5568 C.ar    1  LIG1       -0.0369
     30 C           7.6506    0.9613   -0.0875 C.ar    1  LIG1       -0.0004
     31 C          10.4619    1.0195    0.1243 C.ar    1  LIG1       -0.0023
     32 H          10.4047   -0.7873   -1.0156 H       1  LIG1        0.0636
     33 C           8.2987    1.9855    0.5941 C.ar    1  LIG1       -0.0390
     34 C           9.6875    2.0352    0.7032 C.ar    1  LIG1        0.0131
     35 H           7.6958    2.7610    1.0543 H       1  LIG1        0.0635
     36 C           7.8242   -1.1358   -1.4021 C.1     1  LIG1       -0.0690
     37 C           7.3472   -2.0543   -2.0166 C.1     1  LIG1       -0.1139
     38 H           6.9124   -2.8613   -2.5600 H       1  LIG1        0.1232
     39 S          10.4937    3.3731    1.5561 S.3     1  LIG1       -0.1420
     40 H           9.3861    4.1140    1.7193 H       1  LIG1        0.1071
     41 C          12.7688    1.1036   -0.9036 C.ar    1  LIG1        0.0325
     42 C          14.1582    1.0511   -0.7426 C.ar    1  LIG1       -0.0447
     43 C          11.9475    0.9978    0.2338 C.ar    1  LIG1       -0.0004
     44 C          14.7312    0.9035    0.5072 C.ar    1  LIG1       -0.0474
     45 H          14.7888    1.1378   -1.6201 H       1  LIG1        0.0630
     46 C          12.5360    0.8398    1.4866 C.ar    1  LIG1       -0.0396
     47 C          13.9194    0.7965    1.6363 C.ar    1  LIG1        0.0054
     48 H          11.8917    0.7414    2.3540 H       1  LIG1        0.0635
     49 H          15.8111    0.8752    0.6068 H       1  LIG1        0.0629
     50 C          12.2216    1.2759   -2.2152 C.1     1  LIG1       -0.0691
     51 C          11.7907    1.4216   -3.3297 C.1     1  LIG1       -0.1139
     52 H          11.3941    1.5527   -4.3101 H       1  LIG1        0.1232
     53 S          14.7064    0.5864    3.2136 S.3     1  LIG1       -0.1426
     54 H          13.6001    0.7081    3.9636 H       1  LIG1        0.1071
@<TRIPOS>BOND
     1    52    51    1
     2    14    13    1
     3    51    50    3
     4    13     7    1
     5    38    37    1
     6     8     6    1
     7    50    41    1
     8    27    26    1
     9    37    36    3
    10    26    21    1
    11    45    42    1
    12    36    28    1
    13     7     6   ar
    14     7     4   ar
    15     6     3   ar
    16    22    20    1
    17    32    29    1
    18    41    42   ar
    19    41    43   ar
    20    21    20   ar
    21    21    18   ar
    22    20    17   ar
    23    42    44   ar
    24    28    29   ar
    25    28    30   ar
    26    29    31   ar
    27     4    17    1
    28     4     2   ar
    29    17    15   ar
    30    18    30    1
    31    18    16   ar
    32     3     9    1
    33     3     1   ar
    34    30    33   ar
    35    31    43    1
    36    31    34   ar
    37    43    46   ar
    38    16    15   ar
    39    16    19    1
    40    15    23    1
    41    44    49    1
    42    44    47   ar
    43    33    34   ar
    44    33    35    1
    45    34    39    1
    46     2     1   ar
    47     2     5    1
    48     1    10    1
    49    23    24    3
    50    46    47   ar
    51    46    48    1
    52    39    40    1
    53    47    53    1
    54    24    25    1
    55    10    11    3
    56    53    54    1
    57    11    12    1
