@<TRIPOS>MOLECULE
mol_data/opt/cam/geoms/mol2/4eg4eg4eg.out
 41 43 0 0 0
SMALL
GASTEIGER

@<TRIPOS>ATOM
      1 C          -0.1456    0.5265    0.9370 C.ar    1  LIG1        0.0253
      2 C           1.2498    0.5252    0.9163 C.ar    1  LIG1       -0.0375
      3 C          -0.8307    1.0339   -0.1713 C.ar    1  LIG1       -0.0453
      4 C           1.9665    1.0150   -0.1720 C.ar    1  LIG1       -0.0024
      5 H           1.7918    0.1326    1.7688 H       1  LIG1        0.0636
      6 C          -0.1326    1.5195   -1.2619 C.ar    1  LIG1       -0.0468
      7 C           1.2636    1.5143   -1.2792 C.ar    1  LIG1        0.0126
      8 H          -0.6824    1.9053   -2.1139 H       1  LIG1        0.0629
      9 H          -1.9147    1.0436   -0.1717 H       1  LIG1        0.0630
     10 C          -0.8588    0.0211    2.0703 C.1     1  LIG1       -0.0696
     11 C          -1.4614   -0.4026    3.0225 C.1     1  LIG1       -0.1139
     12 H          -1.9927   -0.7784    3.8662 H       1  LIG1        0.1232
     13 S           2.1706    2.1094   -2.6912 S.3     1  LIG1       -0.1420
     14 H           1.0923    2.3171   -3.4637 H       1  LIG1        0.1071
     15 C           4.1884   -0.1896   -0.0684 C.ar    1  LIG1        0.0330
     16 C           5.5808   -0.1276    0.0072 C.ar    1  LIG1       -0.0369
     17 C           3.4557    1.0101   -0.1225 C.ar    1  LIG1       -0.0004
     18 C           6.2707    1.0795    0.0300 C.ar    1  LIG1       -0.0023
     19 H           6.1424   -1.0538    0.0444 H       1  LIG1        0.0636
     20 C           4.1443    2.2177   -0.0998 C.ar    1  LIG1       -0.0390
     21 C           5.5356    2.2721   -0.0315 C.ar    1  LIG1        0.0131
     22 H           3.5713    3.1381   -0.1336 H       1  LIG1        0.0635
     23 C           3.5468   -1.4694   -0.0964 C.1     1  LIG1       -0.0690
     24 C           3.0356   -2.5589   -0.1174 C.1     1  LIG1       -0.1139
     25 H           2.5730   -3.5186   -0.1377 H       1  LIG1        0.1232
     26 S           6.3943    3.8309   -0.0338 S.3     1  LIG1       -0.1420
     27 H           5.3099    4.5801   -0.2888 H       1  LIG1        0.1071
     28 C           8.5606    0.5213   -0.8804 C.ar    1  LIG1        0.0325
     29 C           9.9505    0.5164   -0.7155 C.ar    1  LIG1       -0.0447
     30 C           7.7567    1.0704    0.1353 C.ar    1  LIG1       -0.0004
     31 C          10.5408    1.0433    0.4185 C.ar    1  LIG1       -0.0474
     32 H          10.5678    0.0971   -1.5018 H       1  LIG1        0.0630
     33 C           8.3623    1.5900    1.2773 C.ar    1  LIG1       -0.0396
     34 C           9.7464    1.5870    1.4277 C.ar    1  LIG1        0.0054
     35 H           7.7308    1.9948    2.0611 H       1  LIG1        0.0635
     36 H          11.6211    1.0362    0.5184 H       1  LIG1        0.0629
     37 C           7.9956   -0.0190   -2.0797 C.1     1  LIG1       -0.0691
     38 C           7.5500   -0.4800   -3.0985 C.1     1  LIG1       -0.1139
     39 H           7.1406   -0.8824   -3.9963 H       1  LIG1        0.1232
     40 S          10.5546    2.2299    2.8716 S.3     1  LIG1       -0.1426
     41 H           9.4665    2.7769    3.4357 H       1  LIG1        0.1071
@<TRIPOS>BOND
     1    39    38    1
     2    14    13    1
     3    38    37    3
     4    13     7    1
     5     8     6    1
     6    37    28    1
     7    32    29    1
     8     7     6   ar
     9     7     4   ar
    10     6     3   ar
    11    28    29   ar
    12    28    30   ar
    13    29    31   ar
    14    27    26    1
    15     4    17    1
    16     4     2   ar
    17     9     3    1
    18     3     1   ar
    19    25    24    1
    20    22    20    1
    21    17    20   ar
    22    17    15   ar
    23    24    23    3
    24    20    21   ar
    25    23    15    1
    26    15    16   ar
    27    26    21    1
    28    21    18   ar
    29    16    18   ar
    30    16    19    1
    31    18    30    1
    32    30    33   ar
    33    31    36    1
    34    31    34   ar
    35     2     1   ar
    36     2     5    1
    37     1    10    1
    38    33    34   ar
    39    33    35    1
    40    34    40    1
    41    10    11    3
    42    40    41    1
    43    11    12    1
