@<TRIPOS>MOLECULE
mol_data/opt/cam/geoms/mol2/4eg4eg4eg-4eg-.out
 54 57 0 0 0
SMALL
GASTEIGER

@<TRIPOS>ATOM
      1 C          -0.2394    0.1252    0.5797 C.ar    1  LIG1        0.0253
      2 C           1.1558    0.1437    0.5527 C.ar    1  LIG1       -0.0375
      3 C          -0.9351    1.1384   -0.0869 C.ar    1  LIG1       -0.0453
      4 C           1.8619    1.1403   -0.1154 C.ar    1  LIG1       -0.0024
      5 H           1.7062   -0.6374    1.0641 H       1  LIG1        0.0636
      6 C          -0.2477    2.1328   -0.7586 C.ar    1  LIG1       -0.0468
      7 C           1.1483    2.1461   -0.7849 C.ar    1  LIG1        0.0126
      8 H          -0.8056    2.9083   -1.2728 H       1  LIG1        0.0629
      9 H          -2.0191    1.1399   -0.0754 H       1  LIG1        0.0630
     10 C          -0.9417   -0.9084    1.2775 C.1     1  LIG1       -0.0696
     11 C          -1.5354   -1.7759    1.8642 C.1     1  LIG1       -0.1139
     12 H          -2.0592   -2.5444    2.3844 H       1  LIG1        0.1232
     13 S           2.0419    3.4054   -1.6717 S.3     1  LIG1       -0.1420
     14 H           0.9581    3.9782   -2.2190 H       1  LIG1        0.1071
     15 C           4.0852    0.0766   -0.6827 C.ar    1  LIG1        0.0330
     16 C           5.4785    0.0998   -0.6014 C.ar    1  LIG1       -0.0369
     17 C           3.3514    1.1186   -0.0873 C.ar    1  LIG1       -0.0004
     18 C           6.1680    1.1199    0.0446 C.ar    1  LIG1       -0.0023
     19 H           6.0410   -0.7036   -1.0622 H       1  LIG1        0.0636
     20 C           4.0392    2.1344    0.5671 C.ar    1  LIG1       -0.0390
     21 C           5.4309    2.1525    0.6423 C.ar    1  LIG1        0.0131
     22 H           3.4646    2.9255    1.0370 H       1  LIG1        0.0635
     23 C           3.4442   -0.9975   -1.3796 C.1     1  LIG1       -0.0690
     24 C           2.9332   -1.9122   -1.9720 C.1     1  LIG1       -0.1139
     25 H           2.4708   -2.7166   -2.4962 H       1  LIG1        0.1232
     26 S           6.2875    3.4467    1.5132 S.3     1  LIG1       -0.1420
     27 H           5.1817    4.0690    1.9511 H       1  LIG1        0.1071
     28 C           8.3660    0.0711    0.7246 C.ar    1  LIG1        0.0330
     29 C           9.7615    0.0879    0.6896 C.ar    1  LIG1       -0.0369
     30 C           7.6569    1.0937    0.0688 C.ar    1  LIG1       -0.0004
     31 C          10.4758    1.0829    0.0319 C.ar    1  LIG1       -0.0023
     32 H          10.3051   -0.7005    1.1968 H       1  LIG1        0.0636
     33 C           8.3699    2.0848   -0.5968 C.ar    1  LIG1       -0.0390
     34 C           9.7634    2.0963   -0.6257 C.ar    1  LIG1        0.0131
     35 H           7.8143    2.8605   -1.1127 H       1  LIG1        0.0635
     36 C           7.6983   -0.9764    1.4366 C.1     1  LIG1       -0.0690
     37 C           7.1653   -1.8689    2.0434 C.1     1  LIG1       -0.1139
     38 H           6.6848   -2.6545    2.5796 H       1  LIG1        0.1232
     39 S          10.6545    3.3568   -1.5106 S.3     1  LIG1       -0.1420
     40 H           9.5666    3.9704   -2.0025 H       1  LIG1        0.1071
     41 C          12.6885    0.0105   -0.5500 C.ar    1  LIG1        0.0325
     42 C          14.0860    0.0199   -0.4704 C.ar    1  LIG1       -0.0447
     43 C          11.9652    1.0525    0.0582 C.ar    1  LIG1       -0.0004
     44 C          14.7605    1.0315    0.1879 C.ar    1  LIG1       -0.0474
     45 H          14.6413   -0.7820   -0.9436 H       1  LIG1        0.0630
     46 C          12.6554    2.0624    0.7251 C.ar    1  LIG1       -0.0396
     47 C          14.0458    2.0651    0.7933 C.ar    1  LIG1        0.0054
     48 H          12.0849    2.8522    1.2022 H       1  LIG1        0.0635
     49 H          15.8446    1.0203    0.2293 H       1  LIG1        0.0629
     50 C          12.0354   -1.0502   -1.2561 C.1     1  LIG1       -0.0691
     51 C          11.5178   -1.9557   -1.8571 C.1     1  LIG1       -0.1139
     52 H          11.0488   -2.7518   -2.3879 H       1  LIG1        0.1232
     53 S          14.9612    3.3273    1.6416 S.3     1  LIG1       -0.1426
     54 H          13.9182    4.1255    1.9175 H       1  LIG1        0.1071
@<TRIPOS>BOND
     1    25    24    1
     2    52    51    1
     3    14    13    1
     4    40    39    1
     5    24    23    3
     6    51    50    3
     7    13     7    1
     8    39    34    1
     9    23    15    1
    10     8     6    1
    11    50    41    1
    12    35    33    1
    13    19    16    1
    14    45    42    1
    15     7     6   ar
    16     7     4   ar
    17     6     3   ar
    18    15    16   ar
    19    15    17   ar
    20    34    33   ar
    21    34    31   ar
    22    16    18   ar
    23    33    30   ar
    24    41    42   ar
    25    41    43   ar
    26    42    44   ar
    27     4    17    1
    28     4     2   ar
    29    17    20   ar
    30     3     9    1
    31     3     1   ar
    32    31    43    1
    33    31    29   ar
    34    18    30    1
    35    18    21   ar
    36    43    46   ar
    37    30    28   ar
    38    44    49    1
    39    44    47   ar
    40     2     1   ar
    41     2     5    1
    42    20    21   ar
    43    20    22    1
    44     1    10    1
    45    21    26    1
    46    29    28   ar
    47    29    32    1
    48    28    36    1
    49    46    47   ar
    50    46    48    1
    51    47    53    1
    52    10    11    3
    53    36    37    3
    54    26    27    1
    55    53    54    1
    56    11    12    1
    57    37    38    1
