@<TRIPOS>MOLECULE
mol_data/opt/cam/geoms/mol2/4eg4eg-4eg4eg-.out
 54 57 0 0 0
SMALL
GASTEIGER

@<TRIPOS>ATOM
      1 C          -0.2363    0.1090   -0.5806 C.ar    1  LIG1        0.0253
      2 C           1.1587    0.1290   -0.5478 C.ar    1  LIG1       -0.0375
      3 C          -0.9356    1.1350    0.0623 C.ar    1  LIG1       -0.0453
      4 C           1.8612    1.1393    0.1031 C.ar    1  LIG1       -0.0024
      5 H           1.7118   -0.6619   -1.0410 H       1  LIG1        0.0636
      6 C          -0.2518    2.1432    0.7169 C.ar    1  LIG1       -0.0468
      7 C           1.1440    2.1579    0.7490 C.ar    1  LIG1        0.0126
      8 H          -0.8125    2.9285    1.2128 H       1  LIG1        0.0629
      9 H          -2.0196    1.1354    0.0459 H       1  LIG1        0.0630
     10 C          -0.9349   -0.9390   -1.2606 C.1     1  LIG1       -0.0696
     11 C          -1.5255   -1.8185   -1.8323 C.1     1  LIG1       -0.1139
     12 H          -2.0464   -2.5977   -2.3392 H       1  LIG1        0.1232
     13 S           2.0329    3.4355    1.6142 S.3     1  LIG1       -0.1420
     14 H           0.9463    4.0184    2.1451 H       1  LIG1        0.1071
     15 C           4.0826    0.0889    0.7016 C.ar    1  LIG1        0.0330
     16 C           5.4762    0.1114    0.6260 C.ar    1  LIG1       -0.0369
     17 C           3.3508    1.1181    0.0821 C.ar    1  LIG1       -0.0004
     18 C           6.1680    1.1188   -0.0374 C.ar    1  LIG1       -0.0023
     19 H           6.0372   -0.6821    1.1055 H       1  LIG1        0.0636
     20 C           4.0409    2.1211   -0.5897 C.ar    1  LIG1       -0.0390
     21 C           5.4329    2.1386   -0.6591 C.ar    1  LIG1        0.0131
     22 H           3.4680    2.9021   -1.0780 H       1  LIG1        0.0635
     23 C           3.4392   -0.9714    1.4172 C.1     1  LIG1       -0.0690
     24 C           2.9261   -1.8743    2.0258 C.1     1  LIG1       -0.1139
     25 H           2.4619   -2.6682    2.5639 H       1  LIG1        0.1232
     26 S           6.2926    3.4155   -1.5521 S.3     1  LIG1       -0.1420
     27 H           5.1884    4.0281   -2.0074 H       1  LIG1        0.1071
     28 C           8.3697    0.0580   -0.6863 C.ar    1  LIG1        0.0330
     29 C           9.7649    0.0766   -0.6455 C.ar    1  LIG1       -0.0369
     30 C           7.6570    1.0932   -0.0544 C.ar    1  LIG1       -0.0004
     31 C          10.4758    1.0851   -0.0048 C.ar    1  LIG1       -0.0023
     32 H          10.3113   -0.7215   -1.1343 H       1  LIG1        0.0636
     33 C           8.3664    2.0979    0.5942 C.ar    1  LIG1       -0.0390
     34 C           9.7597    2.1111    0.6290 C.ar    1  LIG1        0.0131
     35 H           7.8081    2.8835    1.0919 H       1  LIG1        0.0635
     36 C           7.7058   -1.0041   -1.3800 C.1     1  LIG1       -0.0690
     37 C           7.1760   -1.9090   -1.9711 C.1     1  LIG1       -0.1139
     38 H           6.6984   -2.7057   -2.4934 H       1  LIG1        0.1232
     39 S          10.6461    3.3897    1.4923 S.3     1  LIG1       -0.1420
     40 H           9.5557    4.0123    1.9669 H       1  LIG1        0.1071
     41 C          12.6865    0.0262    0.6084 C.ar    1  LIG1        0.0325
     42 C          14.0843    0.0350    0.5348 C.ar    1  LIG1       -0.0447
     43 C          11.9652    1.0552   -0.0239 C.ar    1  LIG1       -0.0004
     44 C          14.7611    1.0336   -0.1407 C.ar    1  LIG1       -0.0474
     45 H          14.6379   -0.7568    1.0266 H       1  LIG1        0.0630
     46 C          12.6578    2.0519   -0.7080 C.ar    1  LIG1       -0.0396
     47 C          14.0485    2.0543   -0.7701 C.ar    1  LIG1        0.0054
     48 H          12.0889    2.8315   -1.2034 H       1  LIG1        0.0635
     49 H          15.8454    1.0223   -0.1771 H       1  LIG1        0.0629
     50 C          12.0309   -1.0204    1.3328 C.1     1  LIG1       -0.0691
     51 C          11.5113   -1.9140    1.9497 C.1     1  LIG1       -0.1139
     52 H          11.0404   -2.6995    2.4945 H       1  LIG1        0.1232
     53 S          14.9668    3.2997   -1.6396 S.3     1  LIG1       -0.1426
     54 H          13.9246    4.0916   -1.9361 H       1  LIG1        0.1071
@<TRIPOS>BOND
     1    38    37    1
     2    12    11    1
     3    27    26    1
     4    37    36    3
     5    54    53    1
     6    11    10    3
     7    53    47    1
     8    26    21    1
     9    36    28    1
    10    10     1    1
    11    48    46    1
    12    32    29    1
    13    22    20    1
    14     5     2    1
    15    47    46   ar
    16    47    44   ar
    17    46    43   ar
    18    28    29   ar
    19    28    30   ar
    20    21    20   ar
    21    21    18   ar
    22    29    31   ar
    23    20    17   ar
    24     1     2   ar
    25     1     3   ar
    26     2     4   ar
    27    49    44    1
    28    44    42   ar
    29    30    18    1
    30    30    33   ar
    31    18    16   ar
    32    43    31    1
    33    43    41   ar
    34    31    34   ar
    35     9     3    1
    36     3     6   ar
    37    17     4    1
    38    17    15   ar
    39     4     7   ar
    40    42    41   ar
    41    42    45    1
    42    33    34   ar
    43    33    35    1
    44    41    50    1
    45    16    15   ar
    46    16    19    1
    47    34    39    1
    48    15    23    1
    49     6     7   ar
    50     6     8    1
    51     7    13    1
    52    50    51    3
    53    23    24    3
    54    39    40    1
    55    13    14    1
    56    51    52    1
    57    24    25    1
