@<TRIPOS>MOLECULE
mol_data/opt/cam/geoms/mol2/4eg4eg-.out
 28 29 0 0 0
SMALL
GASTEIGER

@<TRIPOS>ATOM
      1 C          -0.0445    0.1305   -0.5515 C.ar    1  LIG1        0.0253
      2 C           1.3508    0.1494   -0.5726 C.ar    1  LIG1       -0.0375
      3 C          -0.7172    1.1489    0.1304 C.ar    1  LIG1       -0.0453
      4 C           2.0791    1.1512    0.0629 C.ar    1  LIG1       -0.0024
      5 H           1.8835   -0.6357   -1.0966 H       1  LIG1        0.0636
      6 C          -0.0074    2.1487    0.7700 C.ar    1  LIG1       -0.0468
      7 C           1.3887    2.1625    0.7480 C.ar    1  LIG1        0.0126
      8 H          -0.5476    2.9282    1.2969 H       1  LIG1        0.0629
      9 H          -1.8010    1.1502    0.1562 H       1  LIG1        0.0630
     10 C          -0.7696   -0.9087   -1.2168 C.1     1  LIG1       -0.0696
     11 C          -1.3819   -1.7814   -1.7762 C.1     1  LIG1       -0.1139
     12 H          -1.9216   -2.5549   -2.2720 H       1  LIG1        0.1232
     13 S           2.3118    3.4294    1.5927 S.3     1  LIG1       -0.1420
     14 H           1.2461    4.0125    2.1644 H       1  LIG1        0.1071
     15 C           4.3187    0.0940    0.5675 C.ar    1  LIG1        0.0325
     16 C           5.7123    0.1115    0.4377 C.ar    1  LIG1       -0.0447
     17 C           3.5672    1.1301   -0.0165 C.ar    1  LIG1       -0.0004
     18 C           6.3568    1.1262   -0.2457 C.ar    1  LIG1       -0.0474
     19 H           6.2890   -0.6857    0.8926 H       1  LIG1        0.0630
     20 C           4.2273    2.1421   -0.7101 C.ar    1  LIG1       -0.0396
     21 C           5.6145    2.1540   -0.8270 C.ar    1  LIG1        0.0054
     22 H           3.6354    2.9264   -1.1701 H       1  LIG1        0.0635
     23 H           7.4388    1.1223   -0.3246 H       1  LIG1        0.0629
     24 C           3.6979   -0.9687    1.2990 C.1     1  LIG1       -0.0691
     25 C           3.2081   -1.8762    1.9200 C.1     1  LIG1       -0.1139
     26 H           2.7621   -2.6736    2.4685 H       1  LIG1        0.1232
     27 S           6.4911    3.4192   -1.7114 S.3     1  LIG1       -0.1426
     28 H           5.4405    4.2276   -1.9214 H       1  LIG1        0.1071
@<TRIPOS>BOND
     1    12    11    1
     2    28    27    1
     3    11    10    3
     4    27    21    1
     5    10     1    1
     6    22    20    1
     7     5     2    1
     8    21    20   ar
     9    21    18   ar
    10    20    17   ar
    11     2     1   ar
    12     2     4   ar
    13     1     3   ar
    14    23    18    1
    15    18    16   ar
    16    17     4    1
    17    17    15   ar
    18     4     7   ar
    19     3     9    1
    20     3     6   ar
    21    16    15   ar
    22    16    19    1
    23    15    24    1
    24     7     6   ar
    25     7    13    1
    26     6     8    1
    27    24    25    3
    28    13    14    1
    29    25    26    1
