@<TRIPOS>MOLECULE
mol_data/opt/cam/geoms/mol2/4eg4eg-4eg.out
 41 43 0 0 0
SMALL
GASTEIGER

@<TRIPOS>ATOM
      1 C          -0.1281    0.0269   -0.4239 C.ar    1  LIG1        0.0253
      2 C           1.2668    0.0495   -0.3902 C.ar    1  LIG1       -0.0375
      3 C          -0.8267    1.1553    0.0163 C.ar    1  LIG1       -0.0453
      4 C           1.9699    1.1610    0.0661 C.ar    1  LIG1       -0.0024
      5 H           1.8194   -0.8200   -0.7269 H       1  LIG1        0.0636
      6 C          -0.1422    2.2656    0.4759 C.ar    1  LIG1       -0.0468
      7 C           1.2536    2.2830    0.5098 C.ar    1  LIG1        0.0126
      8 H          -0.7022    3.1303    0.8160 H       1  LIG1        0.0629
      9 H          -1.9105    1.1549   -0.0038 H       1  LIG1        0.0630
     10 C          -0.8275   -1.1268   -0.9018 C.1     1  LIG1       -0.0696
     11 C          -1.4186   -2.0955   -1.3038 C.1     1  LIG1       -0.1139
     12 H          -1.9399   -2.9540   -1.6596 H       1  LIG1        0.1232
     13 S           2.1440    3.6966    1.1258 S.3     1  LIG1       -0.1420
     14 H           1.0583    4.3681    1.5414 H       1  LIG1        0.1071
     15 C           4.1852    0.2394    0.8650 C.ar    1  LIG1        0.0330
     16 C           5.5793    0.2448    0.7943 C.ar    1  LIG1       -0.0369
     17 C           3.4595    1.1330    0.0566 C.ar    1  LIG1       -0.0004
     18 C           6.2769    1.1057   -0.0456 C.ar    1  LIG1       -0.0023
     19 H           6.1356   -0.4437    1.4196 H       1  LIG1        0.0636
     20 C           4.1556    1.9882   -0.7905 C.ar    1  LIG1       -0.0390
     21 C           5.5480    1.9897   -0.8543 C.ar    1  LIG1        0.0131
     22 H           3.5873    2.6630   -1.4217 H       1  LIG1        0.0635
     23 C           3.5347   -0.6636    1.7658 C.1     1  LIG1       -0.0690
     24 C           3.0157   -1.4334    2.5318 C.1     1  LIG1       -0.1139
     25 H           2.5465   -2.1101    3.2081 H       1  LIG1        0.1232
     26 S           6.4169    3.0718   -1.9680 S.3     1  LIG1       -0.1420
     27 H           5.3171    3.5918   -2.5356 H       1  LIG1        0.1071
     28 C           8.4767   -0.0578   -0.4845 C.ar    1  LIG1        0.0325
     29 C           9.8757   -0.0378   -0.4426 C.ar    1  LIG1       -0.0447
     30 C           7.7665    1.0760   -0.0499 C.ar    1  LIG1       -0.0004
     31 C          10.5641    1.0717    0.0120 C.ar    1  LIG1       -0.0474
     32 H          10.4207   -0.9111   -0.7823 H       1  LIG1        0.0630
     33 C           8.4708    2.1851    0.4136 C.ar    1  LIG1       -0.0396
     34 C           9.8625    2.1966    0.4456 C.ar    1  LIG1        0.0054
     35 H           7.9106    3.0472    0.7598 H       1  LIG1        0.0635
     36 H          11.6489    1.0657    0.0275 H       1  LIG1        0.0629
     37 C           7.8082   -1.2238   -0.9780 C.1     1  LIG1       -0.0691
     38 C           7.2775   -2.2194   -1.3980 C.1     1  LIG1       -0.1139
     39 H           6.7969   -3.0950   -1.7692 H       1  LIG1        0.1232
     40 S          10.7960    3.5853    1.0378 S.3     1  LIG1       -0.1426
     41 H           9.7591    4.4234    1.1912 H       1  LIG1        0.1071
@<TRIPOS>BOND
     1    27    26    1
     2    26    21    1
     3    39    38    1
     4    12    11    1
     5    22    20    1
     6    38    37    3
     7    11    10    3
     8    37    28    1
     9    10     1    1
    10    21    20   ar
    11    21    18   ar
    12    20    17   ar
    13    32    29    1
    14     5     2    1
    15    28    29   ar
    16    28    30   ar
    17    29    31   ar
    18     1     2   ar
    19     1     3   ar
    20     2     4   ar
    21    30    18    1
    22    30    33   ar
    23    18    16   ar
    24     9     3    1
    25    31    36    1
    26    31    34   ar
    27     3     6   ar
    28    17     4    1
    29    17    15   ar
    30     4     7   ar
    31    33    34   ar
    32    33    35    1
    33    34    40    1
    34     6     7   ar
    35     6     8    1
    36     7    13    1
    37    16    15   ar
    38    16    19    1
    39    15    23    1
    40    40    41    1
    41    13    14    1
    42    23    24    3
    43    24    25    1
