@<TRIPOS>MOLECULE
mol_data/opt/cam/geoms/mol2/4eg4eg-4eg-.out
 41 43 0 0 0
SMALL
GASTEIGER

@<TRIPOS>ATOM
      1 C          -0.1272    0.0225   -0.4226 C.ar    1  LIG1        0.0253
      2 C           1.2677    0.0455   -0.3864 C.ar    1  LIG1       -0.0375
      3 C          -0.8267    1.1552    0.0048 C.ar    1  LIG1       -0.0453
      4 C           1.9698    1.1617    0.0599 C.ar    1  LIG1       -0.0024
      5 H           1.8209   -0.8273   -0.7132 H       1  LIG1        0.0636
      6 C          -0.1431    2.2702    0.4544 C.ar    1  LIG1       -0.0468
      7 C           1.2526    2.2881    0.4908 C.ar    1  LIG1        0.0126
      8 H          -0.7038    3.1383    0.7847 H       1  LIG1        0.0629
      9 H          -1.9105    1.1546   -0.0173 H       1  LIG1        0.0630
     10 C          -0.8256   -1.1361   -0.8900 C.1     1  LIG1       -0.0696
     11 C          -1.4159   -2.1088   -1.2833 C.1     1  LIG1       -0.1139
     12 H          -1.9362   -2.9710   -1.6316 H       1  LIG1        0.1232
     13 S           2.1417    3.7080    1.0942 S.3     1  LIG1       -0.1420
     14 H           1.0551    4.3834    1.5011 H       1  LIG1        0.1071
     15 C           4.1835    0.2485    0.8726 C.ar    1  LIG1        0.0330
     16 C           5.5778    0.2531    0.8045 C.ar    1  LIG1       -0.0369
     17 C           3.4594    1.1337    0.0536 C.ar    1  LIG1       -0.0004
     18 C           6.2770    1.1053   -0.0428 C.ar    1  LIG1       -0.0023
     19 H           6.1329   -0.4290    1.4378 H       1  LIG1        0.0636
     20 C           4.1572    1.9801   -0.8008 C.ar    1  LIG1       -0.0390
     21 C           5.5498    1.9810   -0.8619 C.ar    1  LIG1        0.0131
     22 H           3.5902    2.6484   -1.4401 H       1  LIG1        0.0635
     23 C           3.5312   -0.6453    1.7812 C.1     1  LIG1       -0.0690
     24 C           3.0105   -1.4071    2.5541 C.1     1  LIG1       -0.1139
     25 H           2.5399   -2.0771    3.2361 H       1  LIG1        0.1232
     26 S           6.4208    3.0516   -1.9850 S.3     1  LIG1       -0.1420
     27 H           5.3221    3.5656   -2.5601 H       1  LIG1        0.1071
     28 C           8.4775   -0.0627   -0.4658 C.ar    1  LIG1        0.0325
     29 C           9.8765   -0.0424   -0.4213 C.ar    1  LIG1       -0.0447
     30 C           7.7666    1.0755   -0.0440 C.ar    1  LIG1       -0.0004
     31 C          10.5641    1.0717    0.0233 C.ar    1  LIG1       -0.0474
     32 H          10.4221   -0.9191   -0.7511 H       1  LIG1        0.0630
     33 C           8.4701    2.1892    0.4096 C.ar    1  LIG1       -0.0396
     34 C           9.8617    2.2010    0.4441 C.ar    1  LIG1        0.0054
     35 H           7.9093    3.0548    0.7459 H       1  LIG1        0.0635
     36 H          11.6489    1.0658    0.0409 H       1  LIG1        0.0629
     37 C           7.8099   -1.2337   -0.9485 C.1     1  LIG1       -0.0691
     38 C           7.2798   -2.2333   -1.3594 C.1     1  LIG1       -0.1139
     39 H           6.7999   -3.1124   -1.7233 H       1  LIG1        0.1232
     40 S          10.7942    3.5955    1.0240 S.3     1  LIG1       -0.1426
     41 H           9.7572    4.4354    1.1663 H       1  LIG1        0.1071
@<TRIPOS>BOND
     1    27    26    1
     2    26    21    1
     3    39    38    1
     4    12    11    1
     5    22    20    1
     6    38    37    3
     7    11    10    3
     8    37    28    1
     9    10     1    1
    10    21    20   ar
    11    21    18   ar
    12    20    17   ar
    13    32    29    1
    14     5     2    1
    15    28    29   ar
    16    28    30   ar
    17     1     2   ar
    18     1     3   ar
    19    29    31   ar
    20     2     4   ar
    21    30    18    1
    22    30    33   ar
    23    18    16   ar
    24     9     3    1
    25     3     6   ar
    26    31    36    1
    27    31    34   ar
    28    17     4    1
    29    17    15   ar
    30     4     7   ar
    31    33    34   ar
    32    33    35    1
    33    34    40    1
    34     6     7   ar
    35     6     8    1
    36     7    13    1
    37    16    15   ar
    38    16    19    1
    39    15    23    1
    40    40    41    1
    41    13    14    1
    42    23    24    3
    43    24    25    1
