@<TRIPOS>MOLECULE
mol_data/opt/cam/geoms/mol2/4eg4eg-4eg4eg.out
 54 57 0 0 0
SMALL
GASTEIGER

@<TRIPOS>ATOM
      1 C          -0.2391    0.1210   -0.5647 C.ar    1  LIG1        0.0253
      2 C           1.1561    0.1394   -0.5367 C.ar    1  LIG1       -0.0375
      3 C          -0.9351    1.1411    0.0910 C.ar    1  LIG1       -0.0453
      4 C           1.8618    1.1426    0.1218 C.ar    1  LIG1       -0.0024
      5 H           1.7068   -0.6469   -1.0398 H       1  LIG1        0.0636
      6 C          -0.2480    2.1421    0.7532 C.ar    1  LIG1       -0.0468
      7 C           1.1480    2.1553    0.7805 C.ar    1  LIG1        0.0126
      8 H          -0.8061    2.9228    1.2590 H       1  LIG1        0.0629
      9 H          -2.0191    1.1427    0.0785 H       1  LIG1        0.0630
     10 C          -0.9411   -0.9194   -1.2526 C.1     1  LIG1       -0.0696
     11 C          -1.5345   -1.7926   -1.8311 C.1     1  LIG1       -0.1139
     12 H          -2.0579   -2.5662   -2.3440 H       1  LIG1        0.1232
     13 S           2.0412    3.4233    1.6553 S.3     1  LIG1       -0.1420
     14 H           0.9570    4.0019    2.1958 H       1  LIG1        0.1071
     15 C           4.0844    0.0842    0.7018 C.ar    1  LIG1        0.0330
     16 C           5.4778    0.1063    0.6214 C.ar    1  LIG1       -0.0369
     17 C           3.3514    1.1203    0.0952 C.ar    1  LIG1       -0.0004
     18 C           6.1681    1.1196   -0.0343 C.ar    1  LIG1       -0.0023
     19 H           6.0398   -0.6926    1.0910 H       1  LIG1        0.0636
     20 C           4.0400    2.1292   -0.5689 C.ar    1  LIG1       -0.0390
     21 C           5.4318    2.1463   -0.6431 C.ar    1  LIG1        0.0131
     22 H           3.4660    2.9156   -1.0473 H       1  LIG1        0.0635
     23 C           3.4426   -0.9826    1.4090 C.1     1  LIG1       -0.0690
     24 C           2.9309   -1.8911    2.0103 C.1     1  LIG1       -0.1139
     25 H           2.4679   -2.6900    2.5422 H       1  LIG1        0.1232
     26 S           6.2895    3.4313   -1.5264 S.3     1  LIG1       -0.1420
     27 H           5.1842    4.0494   -1.9715 H       1  LIG1        0.1071
     28 C           8.3665    0.0635   -0.7017 C.ar    1  LIG1        0.0330
     29 C           9.7619    0.0804   -0.6657 C.ar    1  LIG1       -0.0369
     30 C           7.6570    1.0928   -0.0569 C.ar    1  LIG1       -0.0004
     31 C          10.4759    1.0818   -0.0175 C.ar    1  LIG1       -0.0023
     32 H          10.3057   -0.7132   -1.1646 H       1  LIG1        0.0636
     33 C           8.3697    2.0904    0.5992 C.ar    1  LIG1       -0.0390
     34 C           9.7631    2.1020    0.6291 C.ar    1  LIG1        0.0131
     35 H           7.8138    2.8714    1.1068 H       1  LIG1        0.0635
     36 C           7.6991   -0.9910   -1.4038 C.1     1  LIG1       -0.0690
     37 C           7.1664   -1.8895   -2.0020 C.1     1  LIG1       -0.1139
     38 H           6.6862   -2.6804   -2.5305 H       1  LIG1        0.1232
     39 S          10.6538    3.3711    1.5021 S.3     1  LIG1       -0.1420
     40 H           9.5656    3.9898    1.9868 H       1  LIG1        0.1071
     41 C          12.6879    0.0148    0.5771 C.ar    1  LIG1        0.0325
     42 C          14.0854    0.0231    0.4986 C.ar    1  LIG1       -0.0447
     43 C          11.9653    1.0508   -0.0423 C.ar    1  LIG1       -0.0004
     44 C          14.7607    1.0279   -0.1693 C.ar    1  LIG1       -0.0474
     45 H          14.6401   -0.7740    0.9804 H       1  LIG1        0.0630
     46 C          12.6563    2.0537   -0.7188 C.ar    1  LIG1       -0.0396
     47 C          14.0468    2.0555   -0.7859 C.ar    1  LIG1        0.0054
     48 H          12.0863    2.8387   -1.2044 H       1  LIG1        0.0635
     49 H          15.8448    1.0160   -0.2097 H       1  LIG1        0.0629
     50 C          12.0339   -1.0384    1.2933 C.1     1  LIG1       -0.0691
     51 C          11.5157   -1.9377    1.9031 C.1     1  LIG1       -0.1139
     52 H          11.0460   -2.7283    2.4416 H       1  LIG1        0.1232
     53 S          14.9632    3.3087   -1.6461 S.3     1  LIG1       -0.1426
     54 H          13.9206    4.1045   -1.9309 H       1  LIG1        0.1071
@<TRIPOS>BOND
     1    38    37    1
     2    12    11    1
     3    37    36    3
     4    27    26    1
     5    54    53    1
     6    11    10    3
     7    53    47    1
     8    26    21    1
     9    36    28    1
    10    10     1    1
    11    48    46    1
    12    32    29    1
    13    22    20    1
    14     5     2    1
    15    47    46   ar
    16    47    44   ar
    17    46    43   ar
    18    28    29   ar
    19    28    30   ar
    20    29    31   ar
    21    21    20   ar
    22    21    18   ar
    23    20    17   ar
    24     1     2   ar
    25     1     3   ar
    26     2     4   ar
    27    49    44    1
    28    44    42   ar
    29    30    18    1
    30    30    33   ar
    31    43    31    1
    32    43    41   ar
    33    18    16   ar
    34    31    34   ar
    35     9     3    1
    36     3     6   ar
    37    17     4    1
    38    17    15   ar
    39     4     7   ar
    40    42    41   ar
    41    42    45    1
    42    41    50    1
    43    33    34   ar
    44    33    35    1
    45    16    15   ar
    46    16    19    1
    47    34    39    1
    48    15    23    1
    49     6     7   ar
    50     6     8    1
    51     7    13    1
    52    50    51    3
    53    23    24    3
    54    39    40    1
    55    13    14    1
    56    51    52    1
    57    24    25    1
