@<TRIPOS>MOLECULE
mol_data/opt/cam/geoms/mol2/4eg4eg-4eg-4eg.out
 54 57 0 0 0
SMALL
GASTEIGER

@<TRIPOS>ATOM
      1 C          -0.2365   -0.1067   -0.0698 C.ar    1  LIG1        0.0253
      2 C           1.1582   -0.0699   -0.0375 C.ar    1  LIG1       -0.0375
      3 C          -0.9374    1.1030   -0.0949 C.ar    1  LIG1       -0.0453
      4 C           1.8589    1.1330   -0.0318 C.ar    1  LIG1       -0.0024
      5 H           1.7126   -1.0010   -0.0161 H       1  LIG1        0.0636
      6 C          -0.2553    2.3060   -0.0855 C.ar    1  LIG1       -0.0468
      7 C           1.1402    2.3379   -0.0512 C.ar    1  LIG1        0.0126
      8 H          -0.8171    3.2340   -0.1021 H       1  LIG1        0.0629
      9 H          -2.0211    1.0929   -0.1210 H       1  LIG1        0.0630
     10 C          -0.9331   -1.3569   -0.0794 C.1     1  LIG1       -0.0696
     11 C          -1.5217   -2.4070   -0.0884 C.1     1  LIG1       -0.1139
     12 H          -2.0409   -3.3375   -0.0960 H       1  LIG1        0.1232
     13 S           2.0265    3.8819   -0.0102 S.3     1  LIG1       -0.1420
     14 H           0.9377    4.6581    0.1088 H       1  LIG1        0.1071
     15 C           4.0693    0.5797    1.0657 C.ar    1  LIG1        0.0330
     16 C           5.4637    0.5597    1.0051 C.ar    1  LIG1       -0.0369
     17 C           3.3486    1.1059   -0.0216 C.ar    1  LIG1       -0.0004
     18 C           6.1668    1.0457   -0.0917 C.ar    1  LIG1       -0.0023
     19 H           6.0159    0.1549    1.8451 H       1  LIG1        0.0636
     20 C           4.0500    1.5831   -1.1232 C.ar    1  LIG1       -0.0390
     21 C           5.4428    1.5624   -1.1761 C.ar    1  LIG1        0.0131
     22 H           3.4856    1.9715   -1.9642 H       1  LIG1        0.0635
     23 C           3.4138    0.0779    2.2356 C.1     1  LIG1       -0.0690
     24 C           2.8910   -0.3506    3.2316 C.1     1  LIG1       -0.1139
     25 H           2.4182   -0.7262    4.1096 H       1  LIG1        0.1232
     26 S           6.3170    2.1486   -2.6108 S.3     1  LIG1       -0.1420
     27 H           5.2192    2.4271   -3.3315 H       1  LIG1        0.1071
     28 C           8.3715   -0.1921   -0.0361 C.ar    1  LIG1        0.0330
     29 C           9.7661   -0.1506    0.0079 C.ar    1  LIG1       -0.0369
     30 C           7.6559    1.0183   -0.0751 C.ar    1  LIG1       -0.0004
     31 C          10.4739    1.0462    0.0138 C.ar    1  LIG1       -0.0023
     32 H          10.3147   -1.0849    0.0332 H       1  LIG1        0.0636
     33 C           8.3623    2.2159   -0.0694 C.ar    1  LIG1       -0.0390
     34 C           9.7553    2.2496   -0.0320 C.ar    1  LIG1        0.0131
     35 H           7.8021    3.1445   -0.0918 H       1  LIG1        0.0635
     36 C           7.7110   -1.4625   -0.0482 C.1     1  LIG1       -0.0690
     37 C           7.1846   -2.5449   -0.0567 C.1     1  LIG1       -0.1139
     38 H           6.7096   -3.4988   -0.0659 H       1  LIG1        0.1232
     39 S          10.6369    3.7953   -0.0549 S.3     1  LIG1       -0.1420
     40 H           9.5577    4.5611   -0.2808 H       1  LIG1        0.1071
     41 C          12.7341    0.4574   -0.9500 C.ar    1  LIG1        0.0325
     42 C          14.1273    0.4335   -0.8175 C.ar    1  LIG1       -0.0447
     43 C          11.9617    1.0157    0.0849 C.ar    1  LIG1       -0.0004
     44 C          14.7510    0.9500    0.3035 C.ar    1  LIG1       -0.0474
     45 H          14.7205    0.0071   -1.6184 H       1  LIG1        0.0630
     46 C          12.6007    1.5251    1.2132 C.ar    1  LIG1       -0.0396
     47 C          13.9876    1.5024    1.3318 C.ar    1  LIG1        0.0054
     48 H          11.9931    1.9380    2.0116 H       1  LIG1        0.0635
     49 H          15.8331    0.9273    0.3786 H       1  LIG1        0.0629
     50 C          12.1340   -0.0737   -2.1363 C.1     1  LIG1       -0.0691
     51 C          11.6584   -0.5274   -3.1447 C.1     1  LIG1       -0.1139
     52 H          11.2228   -0.9230   -4.0332 H       1  LIG1        0.1232
     53 S          14.8377    2.1331    2.7568 S.3     1  LIG1       -0.1426
     54 H          13.7653    2.6696    3.3596 H       1  LIG1        0.1071
@<TRIPOS>BOND
     1    52    51    1
     2    27    26    1
     3    51    50    3
     4    26    21    1
     5    50    41    1
     6    22    20    1
     7    45    42    1
     8    21    20   ar
     9    21    18   ar
    10    20    17   ar
    11    41    42   ar
    12    41    43   ar
    13    42    44   ar
    14    40    39    1
    15     9     3    1
    16     8     6    1
    17    12    11    1
    18     3     6   ar
    19     3     1   ar
    20    35    33    1
    21    18    30    1
    22    18    16   ar
    23    11    10    3
    24     6     7   ar
    25    10     1    1
    26    30    33   ar
    27    30    28   ar
    28     1     2   ar
    29    33    34   ar
    30    38    37    1
    31    37    36    3
    32    39    34    1
    33     7     4   ar
    34     7    13    1
    35    36    28    1
    36     2     4   ar
    37     2     5    1
    38    28    29   ar
    39    34    31   ar
    40     4    17    1
    41    17    15   ar
    42    13    14    1
    43    29    31   ar
    44    29    32    1
    45    31    43    1
    46    43    46   ar
    47    44    49    1
    48    44    47   ar
    49    16    15   ar
    50    16    19    1
    51    15    23    1
    52    46    47   ar
    53    46    48    1
    54    47    53    1
    55    23    24    3
    56    53    54    1
    57    24    25    1
