@<TRIPOS>MOLECULE
mol_data/opt/cam/geoms/mol2/4eg4eg4eg4eg-.out
 54 57 0 0 0
SMALL
GASTEIGER

@<TRIPOS>ATOM
      1 C          -0.2127    0.5265    1.0514 C.ar    1  LIG1        0.0253
      2 C           1.1808    0.5228    0.9764 C.ar    1  LIG1       -0.0375
      3 C          -0.9389    1.0598   -0.0178 C.ar    1  LIG1       -0.0453
      4 C           1.8561    1.0354   -0.1279 C.ar    1  LIG1       -0.0024
      5 H           1.7543    0.1106    1.7984 H       1  LIG1        0.0636
      6 C          -0.2824    1.5683   -1.1237 C.ar    1  LIG1       -0.0468
      7 C           1.1121    1.5610   -1.1954 C.ar    1  LIG1        0.0126
      8 H          -0.8637    1.9741   -1.9449 H       1  LIG1        0.0629
      9 H          -2.0221    1.0715    0.0241 H       1  LIG1        0.0630
     10 C          -0.8827   -0.0024    2.2003 C.1     1  LIG1       -0.0696
     11 C          -1.4490   -0.4457    3.1657 C.1     1  LIG1       -0.1139
     12 H          -1.9482   -0.8388    4.0211 H       1  LIG1        0.1232
     13 S           1.9650    2.1866   -2.6278 S.3     1  LIG1       -0.1420
     14 H           0.8578    2.4168   -3.3515 H       1  LIG1        0.1071
     15 C           4.0777   -0.1748   -0.1338 C.ar    1  LIG1        0.0330
     16 C           5.4721   -0.1165   -0.1104 C.ar    1  LIG1       -0.0369
     17 C           3.3461    1.0268   -0.1360 C.ar    1  LIG1       -0.0004
     18 C           6.1651    1.0890   -0.0904 C.ar    1  LIG1       -0.0023
     19 H           6.0328   -1.0438   -0.1132 H       1  LIG1        0.0636
     20 C           4.0378    2.2327   -0.1160 C.ar    1  LIG1       -0.0390
     21 C           5.4308    2.2836   -0.1006 C.ar    1  LIG1        0.0131
     22 H           3.4661    3.1544   -0.1091 H       1  LIG1        0.0635
     23 C           3.4327   -1.4528   -0.1624 C.1     1  LIG1       -0.0690
     24 C           2.9188   -2.5410   -0.1853 C.1     1  LIG1       -0.1139
     25 H           2.4534   -3.4994   -0.2071 H       1  LIG1        0.1232
     26 S           6.2916    3.8415   -0.1065 S.3     1  LIG1       -0.1420
     27 H           5.2011    4.5958   -0.3160 H       1  LIG1        0.1071
     28 C           8.4206    0.5424   -1.0941 C.ar    1  LIG1        0.0330
     29 C           9.8118    0.5401   -0.9805 C.ar    1  LIG1       -0.0369
     30 C           7.6535    1.0762   -0.0427 C.ar    1  LIG1       -0.0004
     31 C          10.4671    1.0503    0.1347 C.ar    1  LIG1       -0.0023
     32 H          10.4003    0.1306   -1.7931 H       1  LIG1        0.0636
     33 C           8.3069    1.5776    1.0776 C.ar    1  LIG1       -0.0390
     34 C           9.6968    1.5739    1.1832 C.ar    1  LIG1        0.0131
     35 H           7.7070    1.9717    1.8910 H       1  LIG1        0.0635
     36 C           7.8148    0.0171   -2.2802 C.1     1  LIG1       -0.0690
     37 C           7.3311   -0.4299   -3.2876 C.1     1  LIG1       -0.1139
     38 H           6.8905   -0.8202   -4.1759 H       1  LIG1        0.1232
     39 S          10.5102    2.1920    2.6401 S.3     1  LIG1       -0.1420
     40 H           9.3838    2.4595    3.3197 H       1  LIG1        0.1071
     41 C          12.6848   -0.1608    0.1873 C.ar    1  LIG1        0.0325
     42 C          14.0835   -0.1056    0.1974 C.ar    1  LIG1       -0.0447
     43 C          11.9564    1.0427    0.1750 C.ar    1  LIG1       -0.0004
     44 C          14.7542    1.1035    0.1999 C.ar    1  LIG1       -0.0474
     45 H          14.6424   -1.0344    0.2112 H       1  LIG1        0.0630
     46 C          12.6432    2.2548    0.1697 C.ar    1  LIG1       -0.0396
     47 C          14.0345    2.2983    0.1861 C.ar    1  LIG1        0.0054
     48 H          12.0696    3.1752    0.1449 H       1  LIG1        0.0635
     49 H          15.8389    1.1198    0.2158 H       1  LIG1        0.0629
     50 C          12.0351   -1.4366    0.2010 C.1     1  LIG1       -0.0691
     51 C          11.5207   -2.5249    0.2130 C.1     1  LIG1       -0.1139
     52 H          11.0545   -3.4831    0.2247 H       1  LIG1        0.1232
     53 S          14.9453    3.8216    0.1698 S.3     1  LIG1       -0.1426
     54 H          13.8913    4.6411    0.3065 H       1  LIG1        0.1071
@<TRIPOS>BOND
     1    38    37    1
     2    14    13    1
     3    37    36    3
     4    13     7    1
     5    36    28    1
     6     8     6    1
     7    32    29    1
     8     7     6   ar
     9     7     4   ar
    10     6     3   ar
    11    28    29   ar
    12    28    30   ar
    13    29    31   ar
    14    27    26    1
    15    25    24    1
    16    24    23    3
    17    23    15    1
    18    17    15   ar
    19    17     4    1
    20    17    20   ar
    21    15    16   ar
    22     4     2   ar
    23    20    22    1
    24    20    21   ar
    25    19    16    1
    26    16    18   ar
    27    26    21    1
    28    21    18   ar
    29    18    30    1
    30    30    33   ar
    31     3     9    1
    32     3     1   ar
    33    31    43    1
    34    31    34   ar
    35    48    46    1
    36    46    43   ar
    37    46    47   ar
    38    53    47    1
    39    53    54    1
    40    43    41   ar
    41    47    44   ar
    42    41    42   ar
    43    41    50    1
    44    42    44   ar
    45    42    45    1
    46    44    49    1
    47    50    51    3
    48    51    52    1
    49     2     1   ar
    50     2     5    1
    51     1    10    1
    52    33    34   ar
    53    33    35    1
    54    34    39    1
    55    10    11    3
    56    39    40    1
    57    11    12    1
