@<TRIPOS>MOLECULE
mol_data/opt/cam/geoms/mol2/4eg4eg4eg-.out
 41 43 0 0 0
SMALL
GASTEIGER

@<TRIPOS>ATOM
      1 C          -0.1289    0.0342    0.4358 C.ar    1  LIG1        0.0253
      2 C           1.2661    0.0556    0.4029 C.ar    1  LIG1       -0.0375
      3 C          -0.8264    1.1587   -0.0158 C.ar    1  LIG1       -0.0453
      4 C           1.9702    1.1623   -0.0635 C.ar    1  LIG1       -0.0024
      5 H           1.8178   -0.8110    0.7483 H       1  LIG1        0.0636
      6 C          -0.1409    2.2642   -0.4855 C.ar    1  LIG1       -0.0468
      7 C           1.2549    2.2804   -0.5184 C.ar    1  LIG1        0.0126
      8 H          -0.7001    3.1260   -0.8343 H       1  LIG1        0.0629
      9 H          -1.9103    1.1592    0.0034 H       1  LIG1        0.0630
     10 C          -0.8294   -1.1145    0.9241 C.1     1  LIG1       -0.0696
     11 C          -1.4215   -2.0789    1.3349 C.1     1  LIG1       -0.1139
     12 H          -1.9432   -2.9339    1.6985 H       1  LIG1        0.1232
     13 S           2.1467    3.6875   -1.1472 S.3     1  LIG1       -0.1420
     14 H           1.0617    4.3555   -1.5703 H       1  LIG1        0.1071
     15 C           4.1854    0.2317   -0.8519 C.ar    1  LIG1        0.0330
     16 C           5.5795    0.2367   -0.7802 C.ar    1  LIG1       -0.0369
     17 C           3.4598    1.1334   -0.0525 C.ar    1  LIG1       -0.0004
     18 C           6.2770    1.1050    0.0521 C.ar    1  LIG1       -0.0023
     19 H           6.1358   -0.4580   -1.3984 H       1  LIG1        0.0636
     20 C           4.1558    1.9961    0.7869 C.ar    1  LIG1       -0.0390
     21 C           5.5482    1.9972    0.8518 C.ar    1  LIG1        0.0131
     22 H           3.5875    2.6772    1.4113 H       1  LIG1        0.0635
     23 C           3.5350   -0.6794   -1.7445 C.1     1  LIG1       -0.0690
     24 C           3.0158   -1.4560   -2.5036 C.1     1  LIG1       -0.1139
     25 H           2.5465   -2.1390   -3.1736 H       1  LIG1        0.1232
     26 S           6.4170    3.0892    1.9559 S.3     1  LIG1       -0.1420
     27 H           5.3171    3.6152    2.5178 H       1  LIG1        0.1071
     28 C           8.4756   -0.0558    0.5040 C.ar    1  LIG1        0.0325
     29 C           9.8746   -0.0373    0.4629 C.ar    1  LIG1       -0.0447
     30 C           7.7666    1.0743    0.0579 C.ar    1  LIG1       -0.0004
     31 C          10.5643    1.0674   -0.0017 C.ar    1  LIG1       -0.0474
     32 H          10.4187   -0.9077    0.8114 H       1  LIG1        0.0630
     33 C           8.4721    2.1784   -0.4156 C.ar    1  LIG1       -0.0396
     34 C           9.8638    2.1886   -0.4466 C.ar    1  LIG1        0.0054
     35 H           7.9129    3.0375   -0.7705 H       1  LIG1        0.0635
     36 H          11.6491    1.0604   -0.0163 H       1  LIG1        0.0629
     37 C           7.8058   -1.2166    1.0079 C.1     1  LIG1       -0.0691
     38 C           7.2739   -2.2076    1.4370 C.1     1  LIG1       -0.1139
     39 H           6.7925   -3.0789    1.8171 H       1  LIG1        0.1232
     40 S          10.7989    3.5708   -1.0514 S.3     1  LIG1       -0.1426
     41 H           9.7628    4.4083   -1.2132 H       1  LIG1        0.1071
@<TRIPOS>BOND
     1    25    24    1
     2    24    23    3
     3    23    15    1
     4    14    13    1
     5    19    16    1
     6    41    40    1
     7    13     7    1
     8    40    34    1
     9    15    16   ar
    10    15    17   ar
    11     8     6    1
    12    16    18   ar
    13    35    33    1
    14     7     6   ar
    15     7     4   ar
    16     6     3   ar
    17    34    33   ar
    18    34    31   ar
    19    33    30   ar
    20     4    17    1
    21     4     2   ar
    22    17    20   ar
    23    36    31    1
    24     3     9    1
    25     3     1   ar
    26    31    29   ar
    27    18    30    1
    28    18    21   ar
    29    30    28   ar
    30     2     1   ar
    31     2     5    1
    32     1    10    1
    33    29    28   ar
    34    29    32    1
    35    28    37    1
    36    20    21   ar
    37    20    22    1
    38    21    26    1
    39    10    11    3
    40    37    38    3
    41    11    12    1
    42    38    39    1
    43    26    27    1
