@<TRIPOS>MOLECULE
mol_data/opt/cam/geoms/mol2/4eh4fi-13he13ii.out
 56 59 0 0 0
SMALL
GASTEIGER

@<TRIPOS>ATOM
      1 C           0.0150    0.2782    1.2845 C.ar    1  LIG1        0.0254
      2 C           1.3913    0.3643    1.0647 C.ar    1  LIG1       -0.0367
      3 C          -0.8430    0.9032    0.3726 C.ar    1  LIG1       -0.0446
      4 C           1.9268    1.0495   -0.0213 C.ar    1  LIG1        0.0074
      5 H           2.0663   -0.1217    1.7589 H       1  LIG1        0.0636
      6 C          -0.3322    1.5788   -0.7178 C.ar    1  LIG1       -0.0393
      7 C           1.0481    1.6622   -0.9385 C.ar    1  LIG1        0.0325
      8 H          -1.0071    2.0565   -1.4223 H       1  LIG1        0.0636
      9 H          -1.9152    0.8490    0.5252 H       1  LIG1        0.0630
     10 C          -0.5033   -0.4292    2.4152 C.1     1  LIG1       -0.0696
     11 C          -0.9432   -1.0232    3.3665 C.1     1  LIG1       -0.1139
     12 H          -1.3302   -1.5490    4.2081 H       1  LIG1        0.1232
     13 N           1.5252    2.3731   -2.0334 N.pl3   1  LIG1       -0.3575
     14 H           2.4544    2.1216   -2.3380 H       1  LIG1        0.1423
     15 H           0.8723    2.4636   -2.7975 H       1  LIG1        0.1423
     16 C           4.2148   -0.0037   -0.2242 C.ar    1  LIG1        0.1252
     17 C           5.5905    0.1164   -0.3606 C.ar    1  LIG1       -0.0102
     18 C           3.4020    1.1378   -0.1933 C.ar    1  LIG1        0.0256
     19 C           6.2179    1.3634   -0.4761 C.ar    1  LIG1        0.0065
     20 H           6.2055   -0.7797   -0.3620 H       1  LIG1        0.0661
     21 C           4.0429    2.3721   -0.3093 C.ar    1  LIG1       -0.0469
     22 C           5.4197    2.5242   -0.4544 C.ar    1  LIG1       -0.0405
     23 H           3.4235    3.2640   -0.2946 H       1  LIG1        0.0628
     24 O           3.6173   -1.2220   -0.1125 O.3     1  LIG1       -0.5061
     25 H           4.2956   -1.9076   -0.1265 H       1  LIG1        0.2922
     26 C           5.9857    3.9147   -0.6074 C.3     1  LIG1       -0.0391
     27 H           5.2035    4.6092   -0.9211 H       1  LIG1        0.0278
     28 H           6.7854    3.9458   -1.3513 H       1  LIG1        0.0278
     29 H           6.3926    4.3103    0.3317 H       1  LIG1        0.0278
     30 C           7.6737    1.3780   -0.6258 C.ar    1  LIG1        0.0695
     31 C           8.5062    0.4820   -1.2681 C.ar    1  LIG1        0.0664
     32 C           9.8547    0.9198   -1.0812 C.ar    1  LIG1        0.0726
     33 C           9.8134    2.0706   -0.3022 C.ar    1  LIG1        0.0810
     34 N           8.4997    2.3487   -0.0668 N.ar    1  LIG1       -0.3505
     35 H           8.1971    2.9979    0.6403 H       1  LIG1        0.1660
     36 N           8.1487   -0.6640   -1.9793 N.pl3   1  LIG1       -0.3554
     37 H           7.2794   -0.5694   -2.4884 H       1  LIG1        0.1424
     38 H           8.8951   -0.9781   -2.5875 H       1  LIG1        0.1424
     39 C          10.9817    0.3124   -1.6913 C.1     1  LIG1       -0.0656
     40 C          11.8971   -0.2420   -2.2476 C.1     1  LIG1       -0.1138
     41 H          12.7210   -0.7167   -2.7279 H       1  LIG1        0.1232
     42 C          10.8628    2.9390    0.1943 C.ar    1  LIG1        0.0674
     43 C          12.0859    2.6699    0.7755 C.ar    1  LIG1       -0.0208
     44 C          12.6837    3.9264    1.0997 C.ar    1  LIG1       -0.0296
     45 C          11.8062    4.9071    0.7132 C.ar    1  LIG1        0.0054
     46 N          10.6933    4.3095    0.1866 N.ar    1  LIG1       -0.3590
     47 H           9.9696    4.7825   -0.3287 H       1  LIG1        0.1654
     48 H          11.8892    5.9820    0.7779 H       1  LIG1        0.0810
     49 C          12.6675    1.3242    1.0712 C.3     1  LIG1       -0.0374
     50 H          13.1198    1.3040    2.0677 H       1  LIG1        0.0278
     51 H          13.4468    1.0503    0.3523 H       1  LIG1        0.0278
     52 H          11.9052    0.5446    1.0280 H       1  LIG1        0.0278
     53 C          14.0110    4.1258    1.7608 C.3     1  LIG1       -0.0380
     54 H          14.2246    5.1879    1.9030 H       1  LIG1        0.0278
     55 H          14.8261    3.7001    1.1665 H       1  LIG1        0.0278
     56 H          14.0497    3.6469    2.7452 H       1  LIG1        0.0278
@<TRIPOS>BOND
     1    15    13    1
     2    41    40    1
     3    38    36    1
     4    37    36    1
     5    14    13    1
     6    40    39    3
     7    13     7    1
     8    36    31    1
     9    39    32    1
    10     8     6    1
    11    28    26    1
    12    31    32   ar
    13    31    30   ar
    14    32    33   ar
    15     7     6   ar
    16     7     4   ar
    17    27    26    1
    18     6     3   ar
    19    30    19    1
    20    30    34   ar
    21    26    22    1
    22    26    29    1
    23    19    22   ar
    24    19    17   ar
    25    22    21   ar
    26    20    17    1
    27    17    16   ar
    28    47    46    1
    29    21    23    1
    30    21    18   ar
    31    33    34   ar
    32    33    42    1
    33    16    18   ar
    34    16    24    1
    35    18     4    1
    36    25    24    1
    37    34    35    1
    38     4     2   ar
    39    46    42   ar
    40    46    45   ar
    41    42    43   ar
    42    51    49    1
    43     3     9    1
    44     3     1   ar
    45    45    48    1
    46    45    44   ar
    47    43    49    1
    48    43    44   ar
    49    52    49    1
    50     2     1   ar
    51     2     5    1
    52    49    50    1
    53    44    53    1
    54    55    53    1
    55     1    10    1
    56    53    54    1
    57    53    56    1
    58    10    11    3
    59    11    12    1
