@<TRIPOS>MOLECULE
mol_data/opt/cam/geoms/mol2/4eh6lf-6al6df.out
 54 57 0 0 0
SMALL
GASTEIGER

@<TRIPOS>ATOM
      1 C          -0.1808    0.3218    0.7817 C.ar    1  LIG1        0.0254
      2 C           1.2104    0.4350    0.7780 C.ar    1  LIG1       -0.0367
      3 C          -0.9042    1.0685   -0.1545 C.ar    1  LIG1       -0.0446
      4 C           1.8919    1.2621   -0.1124 C.ar    1  LIG1        0.0091
      5 H           1.7817   -0.1379    1.5003 H       1  LIG1        0.0636
      6 C          -0.2495    1.9022   -1.0382 C.ar    1  LIG1       -0.0393
      7 C           1.1470    2.0254   -1.0393 C.ar    1  LIG1        0.0326
      8 H          -0.8232    2.4812   -1.7563 H       1  LIG1        0.0636
      9 H          -1.9860    0.9965   -0.1744 H       1  LIG1        0.0630
     10 C          -0.8435   -0.5340    1.7168 C.1     1  LIG1       -0.0696
     11 C          -1.4031   -1.2549    2.5030 C.1     1  LIG1       -0.1139
     12 H          -1.8978   -1.8916    3.1992 H       1  LIG1        0.1232
     13 N           1.7692    2.8243   -1.9849 N.pl3   1  LIG1       -0.3575
     14 H           2.5678    3.3355   -1.6308 H       1  LIG1        0.1423
     15 H           1.1348    3.4210   -2.4960 H       1  LIG1        0.1423
     16 C           4.2134    2.3570    0.0270 C.ar    1  LIG1        0.2232
     17 C           3.3776    1.2235   -0.0951 C.ar    1  LIG1        0.0489
     18 C           4.0372    0.0065   -0.1212 C.ar    1  LIG1       -0.0052
     19 C           5.4280   -0.0657   -0.0532 C.ar    1  LIG1        0.1436
     20 C           6.1543    1.1194    0.0250 C.ar    1  LIG1        0.1176
     21 N           5.5215    2.3035    0.0870 N.ar    1  LIG1       -0.2087
     22 H           3.4762   -0.9182   -0.1959 H       1  LIG1        0.0662
     23 O           3.6099    3.5722    0.0776 O.3     1  LIG1       -0.4792
     24 C           4.4483    4.7013    0.3109 C.3     1  LIG1        0.0804
     25 H           3.7797    5.5612    0.3250 H       1  LIG1        0.0660
     26 H           4.9634    4.6086    1.2695 H       1  LIG1        0.0660
     27 H           5.1974    4.8085   -0.4762 H       1  LIG1        0.0660
     28 O           5.9902   -1.3102   -0.0685 O.3     1  LIG1       -0.5046
     29 H           6.8801   -1.2603    0.3030 H       1  LIG1        0.2922
     30 C           8.2786    2.1240    0.8548 C.ar    1  LIG1        0.0378
     31 C           7.6341    1.1627    0.0761 C.ar    1  LIG1        0.0256
     32 C           8.4368    0.2886   -0.6633 C.ar    1  LIG1       -0.0071
     33 C           9.8209    0.3994   -0.5884 C.ar    1  LIG1        0.1467
     34 C          10.3724    1.3934    0.2416 C.ar    1  LIG1        0.1153
     35 N           9.5984    2.2254    0.9343 N.ar    1  LIG1       -0.2506
     36 H           7.9796   -0.4343   -1.3270 H       1  LIG1        0.0662
     37 H           7.6933    2.8357    1.4268 H       1  LIG1        0.0836
     38 O          10.6833   -0.3828   -1.2803 O.3     1  LIG1       -0.4929
     39 C          10.1564   -1.3229   -2.1982 C.3     1  LIG1        0.0789
     40 H          11.0166   -1.8047   -2.6606 H       1  LIG1        0.0660
     41 H           9.5472   -2.0813   -1.6937 H       1  LIG1        0.0660
     42 H           9.5565   -0.8324   -2.9720 H       1  LIG1        0.0660
     43 C          12.4105    2.8707    0.3644 C.ar    1  LIG1        0.1495
     44 C          11.8377    1.5856    0.3869 C.ar    1  LIG1        0.0432
     45 C          12.6923    0.5109    0.5986 C.ar    1  LIG1       -0.0066
     46 C          14.0462    0.7427    0.7962 C.ar    1  LIG1        0.1356
     47 C          14.5084    2.0585    0.7695 C.ar    1  LIG1        0.0705
     48 N          13.7128    3.0925    0.5514 N.ar    1  LIG1       -0.2403
     49 H          12.3189   -0.5046    0.6157 H       1  LIG1        0.0662
     50 H          15.5649    2.2756    0.9254 H       1  LIG1        0.0867
     51 N          11.0603    5.0210   -0.1917 N.1     1  LIG1       -0.1893
     52 C          11.6310    4.0527    0.0768 C.1     1  LIG1        0.1198
     53 O          14.8569   -0.3188    1.0102 O.3     1  LIG1       -0.5052
     54 H          15.7636   -0.0163    1.1447 H       1  LIG1        0.2922
@<TRIPOS>BOND
     1    42    39    1
     2    40    39    1
     3    15    13    1
     4    39    41    1
     5    39    38    1
     6    13    14    1
     7    13     7    1
     8     8     6    1
     9    36    32    1
    10    38    33    1
    11     7     6   ar
    12     7     4   ar
    13     6     3   ar
    14    32    33   ar
    15    32    31   ar
    16    33    34   ar
    17    27    24    1
    18    22    18    1
    19    51    52    3
    20     9     3    1
    21     3     1   ar
    22    18    17   ar
    23    18    19   ar
    24     4    17    1
    25     4     2   ar
    26    17    16   ar
    27    28    19    1
    28    28    29    1
    29    19    20   ar
    30    20    31    1
    31    20    21   ar
    32    16    23    1
    33    16    21   ar
    34    31    30   ar
    35    52    43    1
    36    23    24    1
    37    34    44    1
    38    34    35   ar
    39    24    25    1
    40    24    26    1
    41    43    44   ar
    42    43    48   ar
    43    44    45   ar
    44    48    47   ar
    45    45    49    1
    46    45    46   ar
    47    47    46   ar
    48    47    50    1
    49     2     1   ar
    50     2     5    1
    51     1    10    1
    52    46    53    1
    53    30    35   ar
    54    30    37    1
    55    53    54    1
    56    10    11    3
    57    11    12    1
