@<TRIPOS>MOLECULE
mol_data/opt/cam/geoms/mol2/4eh6ei-4ee4ea.out
 56 59 0 0 0
SMALL
GASTEIGER

@<TRIPOS>ATOM
      1 C          -0.2182    0.7794    0.8919 C.ar    1  LIG1        0.0254
      2 C           1.1784    0.8212    0.8832 C.ar    1  LIG1       -0.0368
      3 C          -0.8939    1.1156   -0.2868 C.ar    1  LIG1       -0.0446
      4 C           1.8990    1.1888   -0.2468 C.ar    1  LIG1        0.0066
      5 H           1.7188    0.5670    1.7889 H       1  LIG1        0.0636
      6 C          -0.1954    1.4732   -1.4226 C.ar    1  LIG1       -0.0393
      7 C           1.2057    1.5152   -1.4316 C.ar    1  LIG1        0.0325
      8 H          -0.7343    1.7273   -2.3307 H       1  LIG1        0.0636
      9 H          -1.9779    1.0898   -0.3040 H       1  LIG1        0.0630
     10 C          -0.9335    0.4022    2.0716 C.1     1  LIG1       -0.0696
     11 C          -1.5375    0.0828    3.0637 C.1     1  LIG1       -0.1139
     12 H          -2.0709   -0.1969    3.9423 H       1  LIG1        0.1232
     13 N           1.8757    1.8874   -2.5758 N.pl3   1  LIG1       -0.3575
     14 H           2.8598    1.6818   -2.6351 H       1  LIG1        0.1423
     15 H           1.3744    1.8232   -3.4463 H       1  LIG1        0.1423
     16 C           4.1698    2.3365   -0.2827 C.ar    1  LIG1        0.1216
     17 C           3.3860    1.1725   -0.2012 C.ar    1  LIG1        0.0180
     18 C           4.0703   -0.0268   -0.0210 C.ar    1  LIG1       -0.0464
     19 C           5.4577   -0.0784    0.0362 C.ar    1  LIG1       -0.0238
     20 C           6.1367    1.1425   -0.1164 C.ar    1  LIG1        0.0765
     21 N           5.5070    2.3082   -0.2439 N.ar    1  LIG1       -0.2375
     22 H           3.4965   -0.9432    0.0844 H       1  LIG1        0.0628
     23 C           3.5626    3.6357   -0.3813 C.1     1  LIG1       -0.0492
     24 C           3.0555    4.7236   -0.4524 C.1     1  LIG1       -0.1124
     25 H           2.6049    5.6869   -0.5189 H       1  LIG1        0.1232
     26 C           6.1669   -1.3820    0.2767 C.3     1  LIG1       -0.0377
     27 H           7.0018   -1.2585    0.9703 H       1  LIG1        0.0278
     28 H           6.5748   -1.7863   -0.6533 H       1  LIG1        0.0278
     29 H           5.4796   -2.1201    0.6956 H       1  LIG1        0.0278
     30 C           8.4522    0.6520   -1.0523 C.ar    1  LIG1        0.0345
     31 C           9.8390    0.7926   -0.9524 C.ar    1  LIG1       -0.0368
     32 C           7.6265    1.2360   -0.0759 C.ar    1  LIG1        0.0172
     33 C          10.4374    1.5009    0.0825 C.ar    1  LIG1       -0.0001
     34 H          10.4623    0.3431   -1.7161 H       1  LIG1        0.0636
     35 C           8.2198    1.9620    0.9470 C.ar    1  LIG1       -0.0354
     36 C           9.6070    2.1010    1.0492 C.ar    1  LIG1        0.0331
     37 H           7.5886    2.4363    1.6891 H       1  LIG1        0.0637
     38 C           7.9129   -0.0441   -2.1823 C.1     1  LIG1       -0.0690
     39 C           7.4927   -0.6267   -3.1489 C.1     1  LIG1       -0.1139
     40 H           7.1198   -1.1348   -4.0082 H       1  LIG1        0.1232
     41 C          10.1390    2.8348    2.1584 C.1     1  LIG1       -0.0690
     42 C          10.5448    3.4536    3.1078 C.1     1  LIG1       -0.1139
     43 H          10.9144    3.9971    3.9466 H       1  LIG1        0.1232
     44 C          12.7646    0.5165    0.1539 C.ar    1  LIG1        0.0324
     45 C          14.1534    0.6967    0.1536 C.ar    1  LIG1       -0.0457
     46 C          11.9176    1.6411    0.1197 C.ar    1  LIG1       -0.0013
     47 C          14.7041    1.9671    0.1183 C.ar    1  LIG1       -0.0606
     48 H          14.7911   -0.1796    0.1857 H       1  LIG1        0.0630
     49 C          12.4928    2.9114    0.0900 C.ar    1  LIG1       -0.0528
     50 C          13.8701    3.0788    0.0869 C.ar    1  LIG1       -0.0611
     51 H          11.8431    3.7790    0.0627 H       1  LIG1        0.0624
     52 H          15.7820    2.0893    0.1164 H       1  LIG1        0.0618
     53 C          12.2484   -0.8199    0.2121 C.1     1  LIG1       -0.0691
     54 C          11.8579   -1.9574    0.2656 C.1     1  LIG1       -0.1139
     55 H          11.5003   -2.9600    0.3145 H       1  LIG1        0.1232
     56 H          14.2913    4.0782    0.0568 H       1  LIG1        0.0618
@<TRIPOS>BOND
     1    40    39    1
     2    15    13    1
     3    39    38    3
     4    14    13    1
     5    13     7    1
     6     8     6    1
     7    38    30    1
     8    34    31    1
     9     7     6   ar
    10     7     4   ar
    11     6     3   ar
    12    30    31   ar
    13    30    32   ar
    14    31    33   ar
    15    28    26    1
    16    25    24    1
    17    24    23    3
    18    23    16    1
    19     9     3    1
    20     3     1   ar
    21    16    21   ar
    22    16    17   ar
    23     4    17    1
    24     4     2   ar
    25    21    20   ar
    26    17    18   ar
    27    20    32    1
    28    20    19   ar
    29    32    35   ar
    30    18    19   ar
    31    18    22    1
    32    19    26    1
    33    56    50    1
    34    51    49    1
    35    33    46    1
    36    33    36   ar
    37    50    49   ar
    38    50    47   ar
    39    49    46   ar
    40    52    47    1
    41    47    45   ar
    42    46    44   ar
    43    45    44   ar
    44    45    48    1
    45    44    53    1
    46    53    54    3
    47    54    55    1
    48    26    29    1
    49    26    27    1
    50     2     1   ar
    51     2     5    1
    52     1    10    1
    53    35    36   ar
    54    35    37    1
    55    36    41    1
    56    10    11    3
    57    41    42    3
    58    11    12    1
    59    42    43    1
