@<TRIPOS>MOLECULE
mol_data/opt/cam/geoms/mol2/4ei.out
 17 17 0 0 0
SMALL
GASTEIGER

@<TRIPOS>ATOM
      1 C           0.0726   -0.0040   -0.0007 C.ar    1  LIG1        0.0247
      2 C           1.4714   -0.0020    0.0044 C.ar    1  LIG1       -0.0461
      3 C          -0.6012    1.2218    0.0045 C.ar    1  LIG1       -0.0461
      4 C           2.1704    1.1949    0.0130 C.ar    1  LIG1       -0.0577
      5 H           2.0032   -0.9471    0.0052 H       1  LIG1        0.0630
      6 C           0.1094    2.4120    0.0131 C.ar    1  LIG1       -0.0577
      7 C           1.5046    2.4212    0.0144 C.ar    1  LIG1       -0.0504
      8 H          -0.4299    3.3548    0.0208 H       1  LIG1        0.0621
      9 H           3.2564    1.1781    0.0206 H       1  LIG1        0.0621
     10 H          -1.6855    1.2311    0.0055 H       1  LIG1        0.0630
     11 C          -0.6556   -1.2373   -0.0065 C.1     1  LIG1       -0.0697
     12 C          -1.2678   -2.2741   -0.0116 C.1     1  LIG1       -0.1139
     13 H          -1.8096   -3.1915   -0.0154 H       1  LIG1        0.1232
     14 C           2.2699    3.7172   -0.0083 C.3     1  LIG1       -0.0397
     15 H           1.7149    4.5171    0.4876 H       1  LIG1        0.0278
     16 H           2.4617    4.0419   -1.0368 H       1  LIG1        0.0278
     17 H           3.2384    3.6175    0.4876 H       1  LIG1        0.0278
@<TRIPOS>BOND
     1    16    14    1
     2    13    12    1
     3    12    11    3
     4    14     7    1
     5    14    15    1
     6    14    17    1
     7    11     1    1
     8     1     2   ar
     9     1     3   ar
    10     2     5    1
    11     2     4   ar
    12     3    10    1
    13     3     6   ar
    14     4     7   ar
    15     4     9    1
    16     6     7   ar
    17     6     8    1
