@<TRIPOS>MOLECULE
mol_data/opt/cam/geoms/mol2/4ei12lh4fh-13ia4ed-13le13dh-4fa.out
 103 110 0 0 0
SMALL
GASTEIGER

@<TRIPOS>ATOM
      1 C           0.1435   -0.9937   -1.0249 C.ar    1  LIG1        0.0254
      2 C           1.3976   -0.6734   -0.5075 C.ar    1  LIG1       -0.0353
      3 C          -0.6321    0.0205   -1.5921 C.ar    1  LIG1       -0.0460
      4 C           1.8891    0.6363   -0.5353 C.ar    1  LIG1        0.0251
      5 H           2.0076   -1.4555   -0.0731 H       1  LIG1        0.0637
      6 C          -0.1470    1.3169   -1.6210 C.ar    1  LIG1       -0.0570
      7 C           1.1010    1.6606   -1.1013 C.ar    1  LIG1       -0.0396
      8 H          -0.7594    2.1003   -2.0570 H       1  LIG1        0.0621
      9 H          -1.6079   -0.2132   -2.0022 H       1  LIG1        0.0630
     10 C          -0.3354   -2.3434   -0.9811 C.1     1  LIG1       -0.0696
     11 C          -0.7427   -3.4757   -0.9451 C.1     1  LIG1       -0.1139
     12 H          -1.1001   -4.4790   -0.9144 H       1  LIG1        0.1232
     13 C           1.5341    3.1023   -1.1569 C.3     1  LIG1       -0.0390
     14 H           0.7102    3.7292   -1.5041 H       1  LIG1        0.0278
     15 H           2.3814    3.2404   -1.8330 H       1  LIG1        0.0278
     16 H           1.8511    3.4632   -0.1752 H       1  LIG1        0.0278
     17 C           3.2111    0.8632    0.0479 C.ar    1  LIG1        0.1793
     18 C           3.9615    0.1340    0.9274 C.ar    1  LIG1        0.1870
     19 C           5.2066    0.8072    1.1206 C.ar    1  LIG1        0.1141
     20 C           5.1547    1.9229    0.3233 C.ar    1  LIG1        0.1635
     21 O           3.9316    1.9531   -0.3175 O.2     1  LIG1       -0.4490
     22 O           3.6494   -1.0463    1.5404 O.3     1  LIG1       -0.4896
     23 C           3.0703   -0.8778    2.8343 C.3     1  LIG1        0.0791
     24 H           2.9204   -1.8780    3.2421 H       1  LIG1        0.0660
     25 H           3.7388   -0.3085    3.4883 H       1  LIG1        0.0660
     26 H           2.1063   -0.3639    2.7639 H       1  LIG1        0.0660
     27 N           6.1497    0.3701    2.0341 N.pl3   1  LIG1       -0.3522
     28 H           6.1007   -0.6323    2.1647 H       1  LIG1        0.1425
     29 H           7.0851    0.6916    1.8183 H       1  LIG1        0.1425
     30 C           7.4071    3.0392    0.1739 C.ar    1  LIG1        0.1283
     31 C           8.1600    4.1761   -0.0671 C.ar    1  LIG1       -0.0086
     32 C           6.0104    3.0713    0.0691 C.ar    1  LIG1        0.0624
     33 C           7.5824    5.3855   -0.4606 C.ar    1  LIG1        0.0227
     34 H           9.2352    4.1306    0.0737 H       1  LIG1        0.0661
     35 C           5.4368    4.2810   -0.3409 C.ar    1  LIG1       -0.0262
     36 C           6.1815    5.4199   -0.6115 C.ar    1  LIG1        0.0347
     37 H           4.3587    4.3192   -0.4523 H       1  LIG1        0.0644
     38 O           8.0157    1.8541    0.5129 O.3     1  LIG1       -0.5060
     39 H           8.9718    1.9755    0.4909 H       1  LIG1        0.2922
     40 N           5.5300    6.6227   -0.9822 N.pl3   1  LIG1       -0.3574
     41 H           5.9516    7.0486   -1.8011 H       1  LIG1        0.1423
     42 H           4.5431    6.4759   -1.1541 H       1  LIG1        0.1423
     43 C           8.4221    6.5685   -0.6702 C.ar    1  LIG1        0.0517
     44 C           9.7342    6.7067   -1.1083 C.ar    1  LIG1       -0.0245
     45 C          10.0503    8.0824   -1.0328 C.ar    1  LIG1       -0.0329
     46 C           8.9418    8.7636   -0.5652 C.ar    1  LIG1        0.0484
     47 N           7.9613    7.8255   -0.3656 N.ar    1  LIG1       -0.3539
     48 H           7.0416    7.9835    0.0201 H       1  LIG1        0.1659
     49 C          10.6557    5.6351   -1.6064 C.3     1  LIG1       -0.0377
     50 H          11.3574    6.0454   -2.3370 H       1  LIG1        0.0278
     51 H          10.1076    4.8234   -2.0911 H       1  LIG1        0.0278
     52 H          11.2559    5.1943   -0.8016 H       1  LIG1        0.0278
     53 H          10.9839    8.5346   -1.3281 H       1  LIG1        0.0641
     54 C           9.6655   11.1352   -0.0384 C.ar    1  LIG1        0.0345
     55 C           9.3323   12.4759    0.1449 C.ar    1  LIG1       -0.0352
     56 C           8.6693   10.1838   -0.3682 C.ar    1  LIG1        0.0149
     57 C           8.0255   12.9568    0.0188 C.ar    1  LIG1        0.0205
     58 H          10.1162   13.1747    0.4028 H       1  LIG1        0.0637
     59 C           7.3667   10.6593   -0.4993 C.ar    1  LIG1       -0.0334
     60 C           7.0374   12.0018   -0.3135 C.ar    1  LIG1        0.0617
     61 H           6.5740    9.9776   -0.7861 H       1  LIG1        0.0637
     62 C          11.0372   10.7750    0.1581 C.1     1  LIG1       -0.0690
     63 C          12.2035   10.5412    0.3431 C.1     1  LIG1       -0.1139
     64 H          13.2320   10.3188    0.5127 H       1  LIG1        0.1232
     65 N           4.5581   12.6906   -0.6261 N.1     1  LIG1       -0.1908
     66 C           5.6645   12.3691   -0.5007 C.1     1  LIG1        0.0998
     67 C           7.7532   14.3737    0.2188 C.ar    1  LIG1        0.0917
     68 C           8.6053   15.4690    0.1917 C.ar    1  LIG1        0.1612
     69 C           7.8414   16.6523    0.4128 C.ar    1  LIG1        0.0936
     70 C           6.5233   16.2385    0.5857 C.ar    1  LIG1        0.0839
     71 N           6.4955   14.8823    0.4650 N.ar    1  LIG1       -0.3490
     72 H           5.6783   14.3292    0.6680 H       1  LIG1        0.1661
     73 O           9.9464   15.3935   -0.0012 O.3     1  LIG1       -0.4917
     74 C          10.4429   16.0717   -1.1539 C.3     1  LIG1        0.0789
     75 H          11.5204   15.9074   -1.1631 H       1  LIG1        0.0660
     76 H          10.0012   15.6558   -2.0659 H       1  LIG1        0.0660
     77 H          10.2357   17.1425   -1.1012 H       1  LIG1        0.0660
     78 C           8.3212   17.9872    0.4248 C.1     1  LIG1       -0.0638
     79 C           8.7250   19.1215    0.4303 C.1     1  LIG1       -0.1137
     80 H           9.0643   20.1303    0.4821 H       1  LIG1        0.1232
     81 C           5.2762   16.9465    0.7697 C.ar    1  LIG1        0.0841
     82 C           4.9203   18.0964    1.4665 C.ar    1  LIG1        0.0996
     83 C           3.5113   18.2936    1.3073 C.ar    1  LIG1        0.0686
     84 C           3.0409   17.2598    0.5126 C.ar    1  LIG1        0.0727
     85 N           4.1327   16.4518    0.2238 N.ar    1  LIG1       -0.3504
     86 H           4.1141   15.7283   -0.4799 H       1  LIG1        0.1660
     87 N           6.3068   19.6539    2.9744 N.1     1  LIG1       -0.1907
     88 C           5.7279   18.9241    2.2851 C.1     1  LIG1        0.1032
     89 N           2.7862   19.2771    1.9519 N.pl3   1  LIG1       -0.3553
     90 H           3.3586   20.0212    2.3266 H       1  LIG1        0.1424
     91 H           2.0000   19.6124    1.4106 H       1  LIG1        0.1424
     92 C           0.7245   17.7864   -0.3245 C.ar    1  LIG1        0.1260
     93 C          -0.5262   17.3647   -0.7591 C.ar    1  LIG1       -0.0195
     94 C           1.7086   16.8619    0.0595 C.ar    1  LIG1        0.0415
     95 C          -0.8200   16.0112   -0.8506 C.ar    1  LIG1       -0.0583
     96 H          -1.2682   18.1071   -1.0432 H       1  LIG1        0.0654
     97 C           1.3817   15.5026   -0.0430 C.ar    1  LIG1       -0.0491
     98 C           0.1426   15.0751   -0.4967 C.ar    1  LIG1       -0.0609
     99 H           2.1178   14.7635    0.2572 H       1  LIG1        0.0625
    100 H          -1.7979   15.6951   -1.1974 H       1  LIG1        0.0619
    101 O           1.0393   19.1193   -0.2803 O.3     1  LIG1       -0.5061
    102 H           0.2979   19.6306   -0.6253 H       1  LIG1        0.2922
    103 H          -0.0714   14.0141   -0.5597 H       1  LIG1        0.0618
@<TRIPOS>BOND
     1    50    49    1
     2    51    49    1
     3    76    74    1
     4     8     6    1
     5     9     3    1
     6    15    13    1
     7    41    40    1
     8     6     3   ar
     9     6     7   ar
    10    49    44    1
    11    49    52    1
    12     3     1   ar
    13    14    13    1
    14    53    45    1
    15   100    95    1
    16    75    74    1
    17    13     7    1
    18    13    16    1
    19    42    40    1
    20    74    77    1
    21    74    73    1
    22    44    45   ar
    23    44    43   ar
    24     7     4   ar
    25    96    93    1
    26    45    46   ar
    27     1    10    1
    28     1     2   ar
    29    40    36    1
    30    10    11    3
    31    11    12    1
    32    95    93   ar
    33    95    98   ar
    34    61    59    1
    35    93    92   ar
    36    43    33    1
    37    43    47   ar
    38    65    66    3
    39   102   101    1
    40    36    33   ar
    41    36    35   ar
    42    46    56    1
    43    46    47   ar
    44   103    98    1
    45     4     2   ar
    46     4    17    1
    47     2     5    1
    48    66    60    1
    49    59    56   ar
    50    59    60   ar
    51    98    97   ar
    52    86    85    1
    53    33    31   ar
    54    37    35    1
    55    56    54   ar
    56    47    48    1
    57    35    32   ar
    58    92   101    1
    59    92    94   ar
    60    21    17   ar
    61    21    20   ar
    62    60    57   ar
    63    31    34    1
    64    31    30   ar
    65    97    94   ar
    66    97    99    1
    67    54    55   ar
    68    54    62    1
    69    73    68    1
    70    57    55   ar
    71    57    67    1
    72    17    18   ar
    73    94    84    1
    74    32    30   ar
    75    32    20    1
    76    55    58    1
    77    62    63    3
    78    30    38    1
    79    68    67   ar
    80    68    69   ar
    81    67    71   ar
    82    85    84   ar
    83    85    81   ar
    84    20    19   ar
    85    63    64    1
    86    69    78    1
    87    69    70   ar
    88    78    79    3
    89    79    80    1
    90    71    70   ar
    91    71    72    1
    92    39    38    1
    93    84    83   ar
    94    70    81    1
    95    81    82   ar
    96    18    19   ar
    97    18    22    1
    98    19    27    1
    99    83    82   ar
   100    83    89    1
   101    91    89    1
   102    82    88    1
   103    22    23    1
   104    29    27    1
   105    89    90    1
   106    27    28    1
   107    88    87    3
   108    26    23    1
   109    23    24    1
   110    23    25    1
