@<TRIPOS>MOLECULE
mol_data/opt/cam/geoms/mol2/4ei12fh13ee12hi.out
 51 54 0 0 0
SMALL
GASTEIGER

@<TRIPOS>ATOM
      1 C          -0.0190   -0.1025    0.3718 C.ar    1  LIG1        0.0254
      2 C           1.3563    0.0014    0.1736 C.ar    1  LIG1       -0.0353
      3 C          -0.7821    1.0644    0.4566 C.ar    1  LIG1       -0.0460
      4 C           1.9897    1.2451    0.0528 C.ar    1  LIG1        0.0251
      5 H           1.9474   -0.9034    0.1117 H       1  LIG1        0.0637
      6 C          -0.1590    2.2942    0.3345 C.ar    1  LIG1       -0.0570
      7 C           1.2145    2.4231    0.1294 C.ar    1  LIG1       -0.0396
      8 H          -0.7584    3.1976    0.3942 H       1  LIG1        0.0621
      9 H          -1.8527    0.9993    0.6131 H       1  LIG1        0.0630
     10 C          -0.6371   -1.3897    0.4921 C.1     1  LIG1       -0.0696
     11 C          -1.1621   -2.4684    0.5939 C.1     1  LIG1       -0.1139
     12 H          -1.6233   -3.4245    0.6837 H       1  LIG1        0.1232
     13 C           1.7875    3.8102   -0.0142 C.3     1  LIG1       -0.0390
     14 H           0.9845    4.5498   -0.0048 H       1  LIG1        0.0278
     15 H           2.3379    3.9202   -0.9528 H       1  LIG1        0.0278
     16 H           2.4805    4.0494    0.7963 H       1  LIG1        0.0278
     17 C           3.4321    1.2281   -0.1548 C.ar    1  LIG1        0.1791
     18 C           4.3180    0.2260   -0.4417 C.ar    1  LIG1        0.1845
     19 C           5.6242    0.7874   -0.5160 C.ar    1  LIG1        0.1153
     20 C           5.4781    2.1181   -0.2391 C.ar    1  LIG1        0.1772
     21 O           4.1615    2.3904   -0.0244 O.2     1  LIG1       -0.4476
     22 O           4.0856   -1.0868   -0.6419 O.3     1  LIG1       -0.5020
     23 H           4.9697   -1.4876   -0.7215 H       1  LIG1        0.2924
     24 N           6.7279   -0.0342   -0.8424 N.pl3   1  LIG1       -0.3521
     25 H           6.9597    0.0336   -1.8294 H       1  LIG1        0.1425
     26 H           7.5575    0.2225   -0.3163 H       1  LIG1        0.1425
     27 C           6.3627    3.2516   -0.1571 C.ar    1  LIG1        0.1014
     28 C           7.7282    3.3721    0.0477 C.ar    1  LIG1        0.0691
     29 C           8.0433    4.7758   -0.0028 C.ar    1  LIG1        0.0691
     30 C           6.8493    5.4591   -0.2040 C.ar    1  LIG1        0.1012
     31 N           5.8619    4.5186   -0.2964 N.ar    1  LIG1       -0.3473
     32 H           4.8889    4.7360   -0.4479 H       1  LIG1        0.1662
     33 C           8.6628    2.3401    0.3170 C.1     1  LIG1       -0.0662
     34 C           9.4823    1.4908    0.5660 C.1     1  LIG1       -0.1138
     35 H          10.2173    0.7584    0.8098 H       1  LIG1        0.1232
     36 C           9.3508    5.3136    0.0897 C.1     1  LIG1       -0.0662
     37 C          10.4766    5.7417    0.1604 C.1     1  LIG1       -0.1138
     38 H          11.4803    6.0973    0.2018 H       1  LIG1        0.1232
     39 C           6.5063    6.8518   -0.3222 C.ar    1  LIG1        0.1729
     40 C           7.0729    8.0456    0.0462 C.ar    1  LIG1        0.0754
     41 C           6.1365    9.0732   -0.3299 C.ar    1  LIG1        0.0086
     42 C           5.0791    8.4269   -0.8743 C.ar    1  LIG1        0.0974
     43 O           5.2662    7.0898   -0.8824 O.2     1  LIG1       -0.4592
     44 H           4.1482    8.7810   -1.2902 H       1  LIG1        0.1033
     45 N           8.2432    8.2887    0.7386 N.pl3   1  LIG1       -0.3548
     46 H           8.9303    7.5460    0.7126 H       1  LIG1        0.1424
     47 H           8.6504    9.1947    0.5582 H       1  LIG1        0.1424
     48 C           6.3208   10.5396   -0.1179 C.3     1  LIG1       -0.0350
     49 H           5.4439   11.0985   -0.4507 H       1  LIG1        0.0279
     50 H           7.1841   10.9240   -0.6729 H       1  LIG1        0.0279
     51 H           6.4832   10.7680    0.9403 H       1  LIG1        0.0279
@<TRIPOS>BOND
     1    25    24    1
     2    44    42    1
     3    15    13    1
     4    43    42   ar
     5    43    39   ar
     6    42    41   ar
     7    24    19    1
     8    24    26    1
     9    23    22    1
    10    50    48    1
    11    22    18    1
    12    19    18   ar
    13    19    20   ar
    14    49    48    1
    15    32    31    1
    16    18    17   ar
    17    41    48    1
    18    41    40   ar
    19    39    30    1
    20    39    40   ar
    21    31    30   ar
    22    31    27   ar
    23    20    27    1
    24    20    21   ar
    25    30    29   ar
    26    27    28   ar
    27    17    21   ar
    28    17     4    1
    29    48    51    1
    30    13    14    1
    31    13     7    1
    32    13    16    1
    33    29    28   ar
    34    29    36    1
    35    40    45    1
    36    28    33    1
    37     4     7   ar
    38     4     2   ar
    39    36    37    3
    40     5     2    1
    41     7     6   ar
    42    37    38    1
    43     2     1   ar
    44    33    34    3
    45     6     8    1
    46     6     3   ar
    47     1     3   ar
    48     1    10    1
    49     3     9    1
    50    10    11    3
    51    47    45    1
    52    34    35    1
    53    11    12    1
    54    46    45    1
