@<TRIPOS>MOLECULE
mol_data/opt/cam/geoms/mol2/4ei4ei-4ei4ei.out
 62 65 0 0 0
SMALL
GASTEIGER

@<TRIPOS>ATOM
      1 C          -0.2071    0.3177   -0.9757 C.ar    1  LIG1        0.0253
      2 C           1.1892    0.3531   -0.9218 C.ar    1  LIG1       -0.0383
      3 C          -0.9316    1.1544   -0.1242 C.ar    1  LIG1       -0.0461
      4 C           1.8606    1.2042   -0.0492 C.ar    1  LIG1       -0.0126
      5 H           1.7608   -0.2913   -1.5806 H       1  LIG1        0.0636
      6 C          -0.2635    1.9924    0.7541 C.ar    1  LIG1       -0.0571
      7 C           1.1288    2.0381    0.8139 C.ar    1  LIG1       -0.0426
      8 H          -0.8377    2.6283    1.4214 H       1  LIG1        0.0621
      9 H          -2.0154    1.1370   -0.1518 H       1  LIG1        0.0630
     10 C          -0.8776   -0.5627   -1.8849 C.1     1  LIG1       -0.0696
     11 C          -1.4424   -1.3031   -2.6482 C.1     1  LIG1       -0.1139
     12 H          -1.9414   -1.9581   -3.3242 H       1  LIG1        0.1232
     13 C           1.8109    2.9540    1.7942 C.3     1  LIG1       -0.0391
     14 H           1.0975    3.3374    2.5266 H       1  LIG1        0.0278
     15 H           2.2626    3.8084    1.2822 H       1  LIG1        0.0278
     16 H           2.6109    2.4392    2.3324 H       1  LIG1        0.0278
     17 C           4.1359    2.2211   -0.5285 C.ar    1  LIG1        0.0330
     18 C           5.5288    2.1072   -0.4957 C.ar    1  LIG1       -0.0377
     19 C           3.3518    1.1670   -0.0313 C.ar    1  LIG1       -0.0019
     20 C           6.1635    0.9760    0.0045 C.ar    1  LIG1       -0.0126
     21 H           6.1276    2.9222   -0.8874 H       1  LIG1        0.0636
     22 C           4.0010    0.0420    0.4718 C.ar    1  LIG1       -0.0494
     23 C           5.3880   -0.0822    0.5061 C.ar    1  LIG1       -0.0421
     24 H           3.3934   -0.7677    0.8650 H       1  LIG1        0.0627
     25 C           3.5463    3.4002   -1.0896 C.1     1  LIG1       -0.0690
     26 C           3.0764    4.4014   -1.5658 C.1     1  LIG1       -0.1139
     27 H           2.6515    5.2787   -1.9962 H       1  LIG1        0.1232
     28 C           6.0169   -1.3210    1.0842 C.3     1  LIG1       -0.0391
     29 H           6.8351   -1.0728    1.7650 H       1  LIG1        0.0278
     30 H           6.4344   -1.9511    0.2939 H       1  LIG1        0.0278
     31 H           5.2796   -1.9102    1.6331 H       1  LIG1        0.0278
     32 C           8.4004    0.1041   -0.8159 C.ar    1  LIG1        0.0330
     33 C           9.7964    0.1436   -0.7533 C.ar    1  LIG1       -0.0377
     34 C           7.6542    0.9450    0.0263 C.ar    1  LIG1       -0.0019
     35 C          10.4705    0.9888    0.1206 C.ar    1  LIG1       -0.0126
     36 H          10.3659   -0.5075   -1.4075 H       1  LIG1        0.0636
     37 C           8.3431    1.8031    0.8803 C.ar    1  LIG1       -0.0494
     38 C           9.7333    1.8481    0.9516 C.ar    1  LIG1       -0.0421
     39 H           7.7649    2.4661    1.5172 H       1  LIG1        0.0627
     40 C           7.7704   -0.7718   -1.7586 C.1     1  LIG1       -0.0690
     41 C           7.2665   -1.5152   -2.5609 C.1     1  LIG1       -0.1139
     42 H           6.8125   -2.1638   -3.2742 H       1  LIG1        0.1232
     43 C          10.4061    2.8103    1.8928 C.3     1  LIG1       -0.0391
     44 H           9.6932    3.5462    2.2701 H       1  LIG1        0.0278
     45 H          11.2227    3.3445    1.4005 H       1  LIG1        0.0278
     46 H          10.8346    2.2829    2.7497 H       1  LIG1        0.0278
     47 C          12.7200    0.4685    1.1701 C.ar    1  LIG1        0.0324
     48 C          14.1175    0.4854    1.0850 C.ar    1  LIG1       -0.0455
     49 C          11.9620    0.9875    0.1058 C.ar    1  LIG1       -0.0020
     50 C          14.7555    0.9997   -0.0298 C.ar    1  LIG1       -0.0576
     51 H          14.6955    0.0830    1.9095 H       1  LIG1        0.0630
     52 C          12.6305    1.4912   -1.0097 C.ar    1  LIG1       -0.0499
     53 C          14.0199    1.5081   -1.1011 C.ar    1  LIG1       -0.0498
     54 H          12.0385    1.8886   -1.8291 H       1  LIG1        0.0627
     55 H          15.8408    1.0046   -0.0719 H       1  LIG1        0.0621
     56 C          12.0982   -0.0976    2.3302 C.1     1  LIG1       -0.0691
     57 C          11.6042   -0.5801    3.3168 C.1     1  LIG1       -0.1139
     58 H          11.1596   -1.0140    4.1825 H       1  LIG1        0.1232
     59 C          14.7116    2.0437   -2.3259 C.3     1  LIG1       -0.0397
     60 H          14.0227    2.6053   -2.9601 H       1  LIG1        0.0278
     61 H          15.1283    1.2299   -2.9285 H       1  LIG1        0.0278
     62 H          15.5406    2.7041   -2.0574 H       1  LIG1        0.0278
@<TRIPOS>BOND
     1    12    11    1
     2    42    41    1
     3    60    59    1
     4    61    59    1
     5    11    10    3
     6    41    40    3
     7    59    62    1
     8    59    53    1
     9    27    26    1
    10    10     1    1
    11    54    52    1
    12    40    32    1
    13     5     2    1
    14    26    25    3
    15    36    33    1
    16    53    52   ar
    17    53    50   ar
    18    25    17    1
    19    52    49   ar
    20     1     2   ar
    21     1     3   ar
    22     2     4   ar
    23    21    18    1
    24    32    33   ar
    25    32    34   ar
    26    33    35   ar
    27    17    18   ar
    28    17    19   ar
    29    18    20   ar
    30     9     3    1
    31     3     6   ar
    32    55    50    1
    33     4    19    1
    34     4     7   ar
    35    19    22   ar
    36    50    48   ar
    37    20    34    1
    38    20    23   ar
    39    34    37   ar
    40    49    35    1
    41    49    47   ar
    42    35    38   ar
    43    30    28    1
    44    22    23   ar
    45    22    24    1
    46    23    28    1
    47     6     7   ar
    48     6     8    1
    49     7    13    1
    50    37    38   ar
    51    37    39    1
    52    38    43    1
    53    28    31    1
    54    28    29    1
    55    48    47   ar
    56    48    51    1
    57    47    56    1
    58    15    13    1
    59    45    43    1
    60    13    16    1
    61    13    14    1
    62    43    44    1
    63    43    46    1
    64    56    57    3
    65    57    58    1
