@<TRIPOS>MOLECULE
mol_data/opt/cam/geoms/mol2/4ei4ih12hh-12ie-.out
 55 58 0 0 0
SMALL
GASTEIGER

@<TRIPOS>ATOM
      1 C          -0.1421    0.4094   -1.0672 C.ar    1  LIG1        0.0253
      2 C           1.2541    0.4809   -1.0195 C.ar    1  LIG1       -0.0384
      3 C          -0.8802    1.0006   -0.0397 C.ar    1  LIG1       -0.0461
      4 C           1.9112    1.1237    0.0241 C.ar    1  LIG1       -0.0135
      5 H           1.8357    0.0256   -1.8138 H       1  LIG1        0.0636
      6 C          -0.2263    1.6450    0.9991 C.ar    1  LIG1       -0.0571
      7 C           1.1647    1.7215    1.0540 C.ar    1  LIG1       -0.0427
      8 H          -0.8104    2.1053    1.7905 H       1  LIG1        0.0621
      9 H          -1.9632    0.9529   -0.0632 H       1  LIG1        0.0630
     10 C          -0.7990   -0.2574   -2.1515 C.1     1  LIG1       -0.0696
     11 C          -1.3519   -0.8177   -3.0627 C.1     1  LIG1       -0.1139
     12 H          -1.8409   -1.3135   -3.8689 H       1  LIG1        0.1232
     13 C           1.8465    2.4407    2.1872 C.3     1  LIG1       -0.0391
     14 H           1.1164    2.8305    2.8993 H       1  LIG1        0.0278
     15 H           2.4476    3.2771    1.8197 H       1  LIG1        0.0278
     16 H           2.5314    1.7806    2.7272 H       1  LIG1        0.0278
     17 C           4.1628    0.2000    0.6995 C.ar    1  LIG1       -0.0420
     18 C           5.5432    0.3092    0.6488 C.ar    1  LIG1       -0.0458
     19 C           3.4047    1.1750    0.0286 C.ar    1  LIG1       -0.0129
     20 C           6.2147    1.3357   -0.0324 C.ar    1  LIG1        0.0401
     21 H           6.1473   -0.4317    1.1612 H       1  LIG1        0.0628
     22 C           4.0476    2.2033   -0.6416 C.ar    1  LIG1       -0.0324
     23 C           5.4444    2.3230   -0.6893 C.ar    1  LIG1        0.0360
     24 H           3.4492    2.9562   -1.1477 H       1  LIG1        0.0642
     25 C           3.5081   -0.9384    1.4390 C.3     1  LIG1       -0.0391
     26 H           4.2601   -1.5829    1.8994 H       1  LIG1        0.0278
     27 H           2.8968   -1.5556    0.7733 H       1  LIG1        0.0278
     28 H           2.8430   -0.5837    2.2330 H       1  LIG1        0.0278
     29 N           5.9888    3.4077   -1.3433 N.pl3   1  LIG1       -0.3574
     30 H           6.9804    3.4238   -1.5116 H       1  LIG1        0.1423
     31 H           5.4086    3.8606   -2.0294 H       1  LIG1        0.1423
     32 C           7.6748    1.3167   -0.0464 C.ar    1  LIG1        0.1600
     33 C           8.6020    0.3413    0.2264 C.ar    1  LIG1        0.0928
     34 C           9.8920    0.9193   -0.0017 C.ar    1  LIG1        0.0957
     35 C           9.6811    2.2140   -0.3744 C.ar    1  LIG1        0.1932
     36 O           8.3329    2.4564   -0.4112 O.2     1  LIG1       -0.4478
     37 N           8.3792   -0.9804    0.6555 N.pl3   1  LIG1       -0.3536
     38 H           7.9500   -1.5763   -0.0424 H       1  LIG1        0.1425
     39 H           9.2188   -1.4088    1.0229 H       1  LIG1        0.1425
     40 N          11.0967    0.2307    0.1717 N.pl3   1  LIG1       -0.3535
     41 H          11.0760   -0.6823   -0.2690 H       1  LIG1        0.1425
     42 H          11.8937    0.7514   -0.1723 H       1  LIG1        0.1425
     43 C          10.5703    3.2912   -0.7260 C.ar    1  LIG1        0.1757
     44 C          11.7600    3.7176   -0.2148 C.ar    1  LIG1        0.0138
     45 C          12.1698    4.8188   -1.0538 C.ar    1  LIG1        0.0659
     46 C          11.1867    4.9770   -1.9814 C.ar    1  LIG1        0.1083
     47 O          10.2158    4.0595   -1.8067 O.2     1  LIG1       -0.4582
     48 H          11.0514    5.6804   -2.7873 H       1  LIG1        0.1042
     49 C          12.4819    3.2231    0.9956 C.3     1  LIG1       -0.0348
     50 H          12.7390    4.0578    1.6533 H       1  LIG1        0.0279
     51 H          13.4233    2.7280    0.7339 H       1  LIG1        0.0279
     52 H          11.8700    2.5173    1.5600 H       1  LIG1        0.0279
     53 C          13.3508    5.5973   -0.9122 C.1     1  LIG1       -0.0662
     54 C          14.3566    6.2443   -0.7748 C.1     1  LIG1       -0.1138
     55 H          15.2438    6.8228   -0.6581 H       1  LIG1        0.1232
@<TRIPOS>BOND
     1    12    11    1
     2    11    10    3
     3    48    46    1
     4    10     1    1
     5    31    29    1
     6    46    47   ar
     7    46    45   ar
     8     5     2    1
     9    47    43   ar
    10    30    29    1
    11    29    23    1
    12    24    22    1
    13     1     2   ar
    14     1     3   ar
    15    45    53    1
    16    45    44   ar
    17     2     4   ar
    18    53    54    3
    19    54    55    1
    20    43    35    1
    21    43    44   ar
    22    23    22   ar
    23    23    20   ar
    24    22    19   ar
    25    36    35   ar
    26    36    32   ar
    27    35    34   ar
    28    41    40    1
    29    44    49    1
    30    42    40    1
    31     9     3    1
    32    32    20    1
    33    32    33   ar
    34    38    37    1
    35     3     6   ar
    36    20    18   ar
    37    34    40    1
    38    34    33   ar
    39     4    19    1
    40     4     7   ar
    41    19    17   ar
    42    33    37    1
    43    18    17   ar
    44    18    21    1
    45    37    39    1
    46    17    25    1
    47    51    49    1
    48    27    25    1
    49    49    52    1
    50    49    50    1
    51     6     7   ar
    52     6     8    1
    53     7    13    1
    54    25    26    1
    55    25    28    1
    56    15    13    1
    57    13    16    1
    58    13    14    1
