@<TRIPOS>MOLECULE
mol_data/opt/cam/geoms/mol2/4ei4ei-4ei.out
 47 49 0 0 0
SMALL
GASTEIGER

@<TRIPOS>ATOM
      1 C          -0.1372    0.1431   -0.4679 C.ar    1  LIG1        0.0253
      2 C           1.2603    0.1674   -0.4800 C.ar    1  LIG1       -0.0383
      3 C          -0.8219    1.2477    0.0428 C.ar    1  LIG1       -0.0461
      4 C           1.9711    1.2651   -0.0041 C.ar    1  LIG1       -0.0126
      5 H           1.8012   -0.6849   -0.8762 H       1  LIG1        0.0636
      6 C          -0.1141    2.3355    0.5288 C.ar    1  LIG1       -0.0571
      7 C           1.2796    2.3717    0.5184 C.ar    1  LIG1       -0.0426
      8 H          -0.6572    3.1830    0.9361 H       1  LIG1        0.0621
      9 H          -1.9060    1.2432    0.0618 H       1  LIG1        0.0630
     10 C          -0.8489   -0.9954   -0.9667 C.1     1  LIG1       -0.0696
     11 C          -1.4485   -1.9522   -1.3845 C.1     1  LIG1       -0.1139
     12 H          -1.9782   -2.7983   -1.7569 H       1  LIG1        0.1232
     13 C           2.0065    3.5686    1.0699 C.3     1  LIG1       -0.0391
     14 H           1.3256    4.2091    1.6343 H       1  LIG1        0.0278
     15 H           2.4438    4.1658    0.2646 H       1  LIG1        0.0278
     16 H           2.8235    3.2702    1.7319 H       1  LIG1        0.0278
     17 C           4.2323    1.9881   -0.9015 C.ar    1  LIG1        0.0330
     18 C           5.6249    1.8667   -0.8760 C.ar    1  LIG1       -0.0377
     19 C           3.4616    1.2067   -0.0252 C.ar    1  LIG1       -0.0019
     20 C           6.2710    0.9863   -0.0159 C.ar    1  LIG1       -0.0126
     21 H           6.2132    2.4686   -1.5599 H       1  LIG1        0.0636
     22 C           4.1226    0.3322    0.8343 C.ar    1  LIG1       -0.0494
     23 C           5.5090    0.2016    0.8649 C.ar    1  LIG1       -0.0421
     24 H           3.5256   -0.2644    1.5176 H       1  LIG1        0.0627
     25 C           3.6287    2.8902   -1.8368 C.1     1  LIG1       -0.0690
     26 C           3.1466    3.6553   -2.6319 C.1     1  LIG1       -0.1139
     27 H           2.7104    4.3209   -3.3405 H       1  LIG1        0.1232
     28 C           6.1526   -0.7520    1.8349 C.3     1  LIG1       -0.0391
     29 H           6.9908   -0.2843    2.3578 H       1  LIG1        0.0278
     30 H           6.5449   -1.6307    1.3152 H       1  LIG1        0.0278
     31 H           5.4311   -1.0933    2.5798 H       1  LIG1        0.0278
     32 C           8.4667   -0.1668   -0.5481 C.ar    1  LIG1        0.0324
     33 C           9.8656   -0.1436   -0.5476 C.ar    1  LIG1       -0.0455
     34 C           7.7618    0.9368   -0.0335 C.ar    1  LIG1       -0.0020
     35 C          10.5585    0.9486   -0.0536 C.ar    1  LIG1       -0.0576
     36 H          10.4024   -0.9978   -0.9451 H       1  LIG1        0.0630
     37 C           8.4841    2.0264    0.4490 C.ar    1  LIG1       -0.0499
     38 C           9.8773    2.0567    0.4487 C.ar    1  LIG1       -0.0498
     39 H           7.9338    2.8757    0.8438 H       1  LIG1        0.0627
     40 H          11.6445    0.9426   -0.0600 H       1  LIG1        0.0621
     41 C           7.7865   -1.3046   -1.0919 C.1     1  LIG1       -0.0691
     42 C           7.2420   -2.2730   -1.5564 C.1     1  LIG1       -0.1139
     43 H           6.7509   -3.1216   -1.9740 H       1  LIG1        0.1232
     44 C          10.6233    3.2626    0.9535 C.3     1  LIG1       -0.0397
     45 H          10.0445    3.8045    1.7049 H       1  LIG1        0.0278
     46 H          10.8355    3.9615    0.1373 H       1  LIG1        0.0278
     47 H          11.5807    2.9813    1.3984 H       1  LIG1        0.0278
@<TRIPOS>BOND
     1    27    26    1
     2    26    25    3
     3    43    42    1
     4    25    17    1
     5    12    11    1
     6    21    18    1
     7    42    41    3
     8    11    10    3
     9    41    32    1
    10    10     1    1
    11    36    33    1
    12    17    18   ar
    13    17    19   ar
    14     5     2    1
    15    18    20   ar
    16    32    33   ar
    17    32    34   ar
    18    33    35   ar
    19     2     1   ar
    20     2     4   ar
    21     1     3   ar
    22    40    35    1
    23    35    38   ar
    24    34    20    1
    25    34    37   ar
    26    19     4    1
    27    19    22   ar
    28    20    23   ar
    29     4     7   ar
    30     3     9    1
    31     3     6   ar
    32    46    44    1
    33    15    13    1
    34    38    37   ar
    35    38    44    1
    36    37    39    1
    37     7     6   ar
    38     7    13    1
    39     6     8    1
    40    22    23   ar
    41    22    24    1
    42    23    28    1
    43    44    47    1
    44    44    45    1
    45    13    14    1
    46    13    16    1
    47    30    28    1
    48    28    29    1
    49    28    31    1
