@<TRIPOS>MOLECULE
mol_data/opt/cam/geoms/mol2/4ei4ei-4ei-4ei.out
 62 65 0 0 0
SMALL
GASTEIGER

@<TRIPOS>ATOM
      1 C          -0.2171    0.0561    0.3966 C.ar    1  LIG1        0.0253
      2 C           1.1793    0.0942    0.3501 C.ar    1  LIG1       -0.0383
      3 C          -0.9312    1.1920    0.0092 C.ar    1  LIG1       -0.0461
      4 C           1.8609    1.2295   -0.0781 C.ar    1  LIG1       -0.0126
      5 H           1.7425   -0.7837    0.6469 H       1  LIG1        0.0636
      6 C          -0.2526    2.3271   -0.4046 C.ar    1  LIG1       -0.0571
      7 C           1.1400    2.3750   -0.4578 C.ar    1  LIG1       -0.0426
      8 H          -0.8182    3.2091   -0.6900 H       1  LIG1        0.0621
      9 H          -2.0149    1.1798    0.0419 H       1  LIG1        0.0630
     10 C          -0.8982   -1.1247    0.8360 C.1     1  LIG1       -0.0696
     11 C          -1.4720   -2.1164    1.2061 C.1     1  LIG1       -0.1139
     12 H          -1.9791   -2.9947    1.5324 H       1  LIG1        0.1232
     13 C           1.8340    3.6351   -0.9000 C.3     1  LIG1       -0.0391
     14 H           1.1366    4.4752   -0.9182 H       1  LIG1        0.0278
     15 H           2.2514    3.5198   -1.9043 H       1  LIG1        0.0278
     16 H           2.6621    3.8909   -0.2341 H       1  LIG1        0.0278
     17 C           4.1056    1.1847   -1.2612 C.ar    1  LIG1        0.0330
     18 C           5.5007    1.1430   -1.1807 C.ar    1  LIG1       -0.0377
     19 C           3.3522    1.2044   -0.0758 C.ar    1  LIG1       -0.0019
     20 C           6.1674    1.1240    0.0391 C.ar    1  LIG1       -0.0126
     21 H           6.0758    1.1271   -2.1001 H       1  LIG1        0.0636
     22 C           4.0327    1.1609    1.1388 C.ar    1  LIG1       -0.0494
     23 C           5.4220    1.1217    1.2294 C.ar    1  LIG1       -0.0421
     24 H           3.4483    1.1567    2.0542 H       1  LIG1        0.0627
     25 C           3.4823    1.1779   -2.5513 C.1     1  LIG1       -0.0690
     26 C           2.9840    1.1696   -3.6475 C.1     1  LIG1       -0.1139
     27 H           2.5343    1.1533   -4.6134 H       1  LIG1        0.1232
     28 C           6.0847    1.0650    2.5792 C.3     1  LIG1       -0.0391
     29 H           6.5496    2.0236    2.8264 H       1  LIG1        0.0278
     30 H           6.8719    0.3072    2.6050 H       1  LIG1        0.0278
     31 H           5.3572    0.8305    3.3588 H       1  LIG1        0.0278
     32 C           8.4587    2.1365    0.4406 C.ar    1  LIG1        0.0330
     33 C           9.8499    2.0059    0.3949 C.ar    1  LIG1       -0.0377
     34 C           7.6570    1.0563    0.0362 C.ar    1  LIG1       -0.0019
     35 C          10.4654    0.8417   -0.0502 C.ar    1  LIG1       -0.0126
     36 H          10.4627    2.8461    0.7027 H       1  LIG1        0.0636
     37 C           8.2873   -0.1057   -0.4031 C.ar    1  LIG1       -0.0494
     38 C           9.6722   -0.2441   -0.4557 C.ar    1  LIG1       -0.0421
     39 H           7.6658   -0.9431   -0.7062 H       1  LIG1        0.0627
     40 C           7.8901    3.3771    0.8769 C.1     1  LIG1       -0.0690
     41 C           7.4392    4.4304    1.2477 C.1     1  LIG1       -0.1139
     42 H           7.0338    5.3634    1.5647 H       1  LIG1        0.1232
     43 C          10.2812   -1.5375   -0.9249 C.3     1  LIG1       -0.0391
     44 H          11.0775   -1.8702   -0.2540 H       1  LIG1        0.0278
     45 H          10.7227   -1.4220   -1.9187 H       1  LIG1        0.0278
     46 H           9.5269   -2.3249   -0.9789 H       1  LIG1        0.0278
     47 C          12.7087    0.7836   -1.2319 C.ar    1  LIG1        0.0324
     48 C          14.1051    0.7330   -1.1553 C.ar    1  LIG1       -0.0455
     49 C          11.9557    0.7753   -0.0437 C.ar    1  LIG1       -0.0020
     50 C          14.7485    0.6806    0.0694 C.ar    1  LIG1       -0.0576
     51 H          14.6791    0.7389   -2.0752 H       1  LIG1        0.0630
     52 C          12.6291    0.7311    1.1756 C.ar    1  LIG1       -0.0499
     53 C          14.0193    0.6845    1.2582 C.ar    1  LIG1       -0.0498
     54 H          12.0417    0.7265    2.0893 H       1  LIG1        0.0627
     55 H          15.8331    0.6384    0.1039 H       1  LIG1        0.0621
     56 C          12.0816    0.8624   -2.5177 C.1     1  LIG1       -0.0691
     57 C          11.5814    0.9287   -3.6111 C.1     1  LIG1       -0.1139
     58 H          11.1301    0.9974   -4.5740 H       1  LIG1        0.1232
     59 C          14.7139    0.6642    2.5933 C.3     1  LIG1       -0.0397
     60 H          14.0690    0.2527    3.3728 H       1  LIG1        0.0278
     61 H          14.9973    1.6761    2.9024 H       1  LIG1        0.0278
     62 H          15.6286    0.0674    2.5576 H       1  LIG1        0.0278
@<TRIPOS>BOND
     1    27    26    1
     2    58    57    1
     3    26    25    3
     4    57    56    3
     5    25    17    1
     6    56    47    1
     7    21    18    1
     8    51    48    1
     9    45    43    1
    10    15    13    1
    11    17    18   ar
    12    17    19   ar
    13    47    48   ar
    14    47    49   ar
    15    18    20   ar
    16    48    50   ar
    17    46    43    1
    18    43    38    1
    19    43    44    1
    20    14    13    1
    21    13     7    1
    22    13    16    1
    23    39    37    1
    24     8     6    1
    25     7     6   ar
    26     7     4   ar
    27    38    37   ar
    28    38    35   ar
    29     6     3   ar
    30    37    34   ar
    31     4    19    1
    32     4     2   ar
    33    19    22   ar
    34    35    49    1
    35    35    33   ar
    36    49    52   ar
    37     3     9    1
    38     3     1   ar
    39    34    20    1
    40    34    32   ar
    41    20    23   ar
    42    50    55    1
    43    50    53   ar
    44     2     1   ar
    45     2     5    1
    46    33    32   ar
    47    33    36    1
    48     1    10    1
    49    32    40    1
    50    10    11    3
    51    40    41    3
    52    22    23   ar
    53    22    24    1
    54    52    53   ar
    55    52    54    1
    56    11    12    1
    57    23    28    1
    58    41    42    1
    59    53    59    1
    60    62    59    1
    61    28    30    1
    62    28    29    1
    63    28    31    1
    64    59    61    1
    65    59    60    1
