@<TRIPOS>MOLECULE
mol_data/opt/cam/geoms/mol2/4ei4ei-.out
 32 33 0 0 0
SMALL
GASTEIGER

@<TRIPOS>ATOM
      1 C          -0.0325    0.2355   -0.6135 C.ar    1  LIG1        0.0253
      2 C           1.3639    0.2798   -0.6557 C.ar    1  LIG1       -0.0383
      3 C          -0.7112    1.2071    0.1251 C.ar    1  LIG1       -0.0461
      4 C           2.0791    1.2690    0.0124 C.ar    1  LIG1       -0.0126
      5 H           1.8997   -0.4693   -1.2283 H       1  LIG1        0.0636
      6 C           0.0014    2.1846    0.8011 C.ar    1  LIG1       -0.0571
      7 C           1.3942    2.2398    0.7635 C.ar    1  LIG1       -0.0426
      8 H          -0.5368    2.9265    1.3833 H       1  LIG1        0.0621
      9 H          -1.7943    1.1853    0.1701 H       1  LIG1        0.0630
     10 C          -0.7488   -0.7893   -1.3119 C.1     1  LIG1       -0.0696
     11 C          -1.3518   -1.6512   -1.8978 C.1     1  LIG1       -0.1139
     12 H          -1.8848   -2.4133   -2.4177 H       1  LIG1        0.1232
     13 C           2.1272    3.3110    1.5251 C.3     1  LIG1       -0.0391
     14 H           1.4576    3.8173    2.2236 H       1  LIG1        0.0278
     15 H           2.5382    4.0629    0.8453 H       1  LIG1        0.0278
     16 H           2.9642    2.8964    2.0927 H       1  LIG1        0.0278
     17 C           4.3059    2.1894   -0.7818 C.ar    1  LIG1        0.0324
     18 C           5.7018    2.0920   -0.8164 C.ar    1  LIG1       -0.0455
     19 C           3.5694    1.2354   -0.0570 C.ar    1  LIG1       -0.0020
     20 C           6.3599    1.0707   -0.1535 C.ar    1  LIG1       -0.0576
     21 H           6.2631    2.8315   -1.3768 H       1  LIG1        0.0630
     22 C           4.2569    0.2121    0.5938 C.ar    1  LIG1       -0.0499
     23 C           5.6457    0.1080    0.5601 C.ar    1  LIG1       -0.0498
     24 H           3.6817   -0.5221    1.1503 H       1  LIG1        0.0627
     25 H           7.4440    1.0175   -0.1918 H       1  LIG1        0.0621
     26 C           3.6614    3.2469   -1.5023 C.1     1  LIG1       -0.0691
     27 C           3.1470    4.1451   -2.1176 C.1     1  LIG1       -0.1139
     28 H           2.6812    4.9302   -2.6674 H       1  LIG1        0.1232
     29 C           6.3547   -1.0234    1.2548 C.3     1  LIG1       -0.0397
     30 H           7.2885   -0.6868    1.7123 H       1  LIG1        0.0278
     31 H           6.6083   -1.8201    0.5473 H       1  LIG1        0.0278
     32 H           5.7325   -1.4645    2.0364 H       1  LIG1        0.0278
@<TRIPOS>BOND
     1    28    27    1
     2    12    11    1
     3    27    26    3
     4    11    10    3
     5    26    17    1
     6    21    18    1
     7    10     1    1
     8     5     2    1
     9    18    17   ar
    10    18    20   ar
    11    17    19   ar
    12     2     1   ar
    13     2     4   ar
    14     1     3   ar
    15    25    20    1
    16    20    23   ar
    17    19     4    1
    18    19    22   ar
    19     4     7   ar
    20     3     9    1
    21     3     6   ar
    22    31    29    1
    23    23    22   ar
    24    23    29    1
    25    22    24    1
    26     7     6   ar
    27     7    13    1
    28     6     8    1
    29    15    13    1
    30    29    30    1
    31    29    32    1
    32    13    16    1
    33    13    14    1
