@<TRIPOS>MOLECULE
mol_data/opt/cam/geoms/mol2/4ei4ei4ei4ei.out
 62 65 0 0 0
SMALL
GASTEIGER

@<TRIPOS>ATOM
      1 C          -0.2201    2.0764   -0.4430 C.ar    1  LIG1        0.0253
      2 C           1.1769    2.0448   -0.4109 C.ar    1  LIG1       -0.0383
      3 C          -0.9239    0.9175   -0.1089 C.ar    1  LIG1       -0.0461
      4 C           1.8691    0.8887   -0.0633 C.ar    1  LIG1       -0.0126
      5 H           1.7323    2.9394   -0.6705 H       1  LIG1        0.0636
      6 C          -0.2351   -0.2302    0.2498 C.ar    1  LIG1       -0.0571
      7 C           1.1582   -0.2737    0.2817 C.ar    1  LIG1       -0.0426
      8 H          -0.7934   -1.1213    0.5209 H       1  LIG1        0.0621
      9 H          -2.0080    0.9262   -0.1262 H       1  LIG1        0.0630
     10 C          -0.9121    3.2760   -0.8084 C.1     1  LIG1       -0.0696
     11 C          -1.4949    4.2841   -1.1146 C.1     1  LIG1       -0.1139
     12 H          -2.0099    5.1762   -1.3869 H       1  LIG1        0.1232
     13 C           1.8636   -1.5389    0.6903 C.3     1  LIG1       -0.0391
     14 H           1.1643   -2.2416    1.1481 H       1  LIG1        0.0278
     15 H           2.6651   -1.3370    1.4055 H       1  LIG1        0.0278
     16 H           2.3189   -2.0294   -0.1748 H       1  LIG1        0.0278
     17 C           4.1577    0.2762   -0.9725 C.ar    1  LIG1        0.0330
     18 C           5.5487    0.3858   -0.8861 C.ar    1  LIG1       -0.0377
     19 C           3.3595    0.9390   -0.0256 C.ar    1  LIG1       -0.0019
     20 C           6.1680    1.1287    0.1125 C.ar    1  LIG1       -0.0126
     21 H           6.1586   -0.1273   -1.6216 H       1  LIG1        0.0636
     22 C           3.9928    1.6981    0.9557 C.ar    1  LIG1       -0.0494
     23 C           5.3777    1.8110    1.0520 C.ar    1  LIG1       -0.0421
     24 H           3.3734    2.2249    1.6755 H       1  LIG1        0.0627
     25 C           3.5843   -0.4869   -2.0410 C.1     1  LIG1       -0.0690
     26 C           3.1281   -1.1330   -2.9491 C.1     1  LIG1       -0.1139
     27 H           2.7153   -1.6949   -3.7548 H       1  LIG1        0.1232
     28 C           5.9889    2.6583    2.1350 C.3     1  LIG1       -0.0391
     29 H           5.2358    3.2995    2.5974 H       1  LIG1        0.0278
     30 H           6.7871    3.2929    1.7419 H       1  LIG1        0.0278
     31 H           6.4291    2.0335    2.9174 H       1  LIG1        0.0278
     32 C           8.4412    0.5942    1.1042 C.ar    1  LIG1        0.0330
     33 C           9.8332    0.7041    1.0350 C.ar    1  LIG1       -0.0377
     34 C           7.6565    1.2154    0.1186 C.ar    1  LIG1       -0.0019
     35 C          10.4658    1.4139    0.0208 C.ar    1  LIG1       -0.0126
     36 H          10.4328    0.2211    1.7988 H       1  LIG1        0.0636
     37 C           8.3047    1.9037   -0.9043 C.ar    1  LIG1       -0.0494
     38 C           9.6904    2.0213   -0.9802 C.ar    1  LIG1       -0.0421
     39 H           7.6971    2.3682   -1.6754 H       1  LIG1        0.0627
     40 C           7.8551   -0.1726    2.1631 C.1     1  LIG1       -0.0690
     41 C           7.3890   -0.8243    3.0622 C.1     1  LIG1       -0.1139
     42 H           6.9700   -1.4056    3.8508 H       1  LIG1        0.1232
     43 C          10.3187    2.7748   -2.1212 C.3     1  LIG1       -0.0391
     44 H           9.5866    2.9695   -2.9074 H       1  LIG1        0.0278
     45 H          11.1511    2.2168   -2.5576 H       1  LIG1        0.0278
     46 H          10.7158    3.7358   -1.7822 H       1  LIG1        0.0278
     47 C          12.6693    2.6393    0.2943 C.ar    1  LIG1        0.0324
     48 C          14.0688    2.6115    0.2775 C.ar    1  LIG1       -0.0455
     49 C          11.9567    1.4616    0.0064 C.ar    1  LIG1       -0.0020
     50 C          14.7532    1.4443   -0.0130 C.ar    1  LIG1       -0.0576
     51 H          14.6118    3.5234    0.5002 H       1  LIG1        0.0630
     52 C          12.6711    0.2979   -0.2744 C.ar    1  LIG1       -0.0499
     53 C          14.0635    0.2635   -0.2895 C.ar    1  LIG1       -0.0498
     54 H          12.1141   -0.6082   -0.4947 H       1  LIG1        0.0627
     55 H          15.8392    1.4478   -0.0233 H       1  LIG1        0.0621
     56 C          11.9987    3.8617    0.6241 C.1     1  LIG1       -0.0691
     57 C          11.4627    4.9028    0.9051 C.1     1  LIG1       -0.1139
     58 H          10.9811    5.8182    1.1614 H       1  LIG1        0.1232
     59 C          14.8043   -1.0152   -0.5747 C.3     1  LIG1       -0.0397
     60 H          14.1662   -1.7421   -1.0816 H       1  LIG1        0.0278
     61 H          15.1588   -1.4778    0.3526 H       1  LIG1        0.0278
     62 H          15.6809   -0.8356   -1.2026 H       1  LIG1        0.0278
@<TRIPOS>BOND
     1    27    26    1
     2    26    25    3
     3    44    43    1
     4    45    43    1
     5    43    46    1
     6    43    38    1
     7    25    17    1
     8    39    37    1
     9    21    18    1
    10    12    11    1
    11    62    59    1
    12    11    10    3
    13    60    59    1
    14    38    37   ar
    15    38    35   ar
    16    17    18   ar
    17    17    19   ar
    18    37    34   ar
    19    18    20   ar
    20    10     1    1
    21     5     2    1
    22    59    53    1
    23    59    61    1
    24    54    52    1
    25     1     2   ar
    26     1     3   ar
    27     2     4   ar
    28    53    52   ar
    29    53    50   ar
    30    52    49   ar
    31    16    13    1
    32     9     3    1
    33     3     6   ar
    34     4    19    1
    35     4     7   ar
    36    19    22   ar
    37    55    50    1
    38    50    48   ar
    39    49    35    1
    40    49    47   ar
    41    35    33   ar
    42    20    34    1
    43    20    23   ar
    44    34    32   ar
    45     6     7   ar
    46     6     8    1
    47    48    47   ar
    48    48    51    1
    49     7    13    1
    50    47    56    1
    51    56    57    3
    52    13    14    1
    53    13    15    1
    54    57    58    1
    55    22    23   ar
    56    22    24    1
    57    33    32   ar
    58    33    36    1
    59    23    28    1
    60    32    40    1
    61    30    28    1
    62    28    29    1
    63    28    31    1
    64    40    41    3
    65    41    42    1
