@<TRIPOS>MOLECULE
mol_data/opt/cam/geoms/mol2/4ei4ad-6af-6ff-.out
 49 52 0 0 0
SMALL
GASTEIGER

@<TRIPOS>ATOM
      1 C          -0.1346   -0.0196   -0.1719 C.ar    1  LIG1        0.0253
      2 C           1.2576    0.0808   -0.1585 C.ar    1  LIG1       -0.0384
      3 C          -0.8901    1.1397    0.0213 C.ar    1  LIG1       -0.0461
      4 C           1.9008    1.3026    0.0352 C.ar    1  LIG1       -0.0138
      5 H           1.8501   -0.8131   -0.3202 H       1  LIG1        0.0636
      6 C          -0.2535    2.3520    0.2261 C.ar    1  LIG1       -0.0571
      7 C           1.1374    2.4666    0.2379 C.ar    1  LIG1       -0.0427
      8 H          -0.8518    3.2427    0.3925 H       1  LIG1        0.0621
      9 H          -1.9725    1.0804    0.0162 H       1  LIG1        0.0630
     10 C          -0.7703   -1.2856   -0.3803 C.1     1  LIG1       -0.0696
     11 C          -1.3056   -2.3495   -0.5548 C.1     1  LIG1       -0.1139
     12 H          -1.7800   -3.2909   -0.7109 H       1  LIG1        0.1232
     13 C           1.7593    3.8164    0.4912 C.3     1  LIG1       -0.0391
     14 H           1.0592    4.4633    1.0238 H       1  LIG1        0.0278
     15 H           2.0214    4.3258   -0.4418 H       1  LIG1        0.0278
     16 H           2.6722    3.7411    1.0852 H       1  LIG1        0.0278
     17 C           4.1045    0.4454    0.8646 C.ar    1  LIG1       -0.0534
     18 C           5.4906    0.4235    0.8556 C.ar    1  LIG1       -0.0522
     19 C           3.3892    1.3133    0.0355 C.ar    1  LIG1       -0.0163
     20 C           6.2289    1.2615    0.0195 C.ar    1  LIG1        0.0011
     21 H           6.0183   -0.2412    1.5310 H       1  LIG1        0.0624
     22 C           4.1145    2.1472   -0.8108 C.ar    1  LIG1       -0.0360
     23 C           5.5107    2.1267   -0.8256 C.ar    1  LIG1        0.0601
     24 H           3.5971    2.8094   -1.4947 H       1  LIG1        0.0637
     25 H           3.5627   -0.2087    1.5399 H       1  LIG1        0.0624
     26 N           6.6774    3.6951   -2.5297 N.1     1  LIG1       -0.1908
     27 C           6.1778    2.9880   -1.7628 C.1     1  LIG1        0.0998
     28 C           8.4893    2.3646    0.1293 C.ar    1  LIG1        0.0362
     29 C           7.7090    1.2104    0.0437 C.ar    1  LIG1        0.0049
     30 C           8.3812   -0.0073    0.0572 C.ar    1  LIG1       -0.0088
     31 C           9.7671   -0.0432    0.1093 C.ar    1  LIG1        0.1435
     32 C          10.4824    1.1692    0.1090 C.ar    1  LIG1        0.1174
     33 N           9.8138    2.3314    0.1633 N.ar    1  LIG1       -0.2505
     34 H           7.8450   -0.9495    0.0281 H       1  LIG1        0.0661
     35 H           8.0317    3.3465    0.1862 H       1  LIG1        0.0836
     36 O          10.3460   -1.2672    0.1672 O.3     1  LIG1       -0.5046
     37 H          11.2667   -1.1787    0.4483 H       1  LIG1        0.2922
     38 C          12.6398    2.3358    0.7151 C.ar    1  LIG1        0.2220
     39 C          11.9603    1.2444    0.1050 C.ar    1  LIG1        0.0687
     40 C          12.7508    0.2695   -0.5054 C.ar    1  LIG1       -0.0043
     41 C          14.1349    0.3456   -0.4285 C.ar    1  LIG1        0.1357
     42 C          14.6857    1.4085    0.2739 C.ar    1  LIG1        0.0728
     43 N          13.9592    2.3802    0.8138 N.ar    1  LIG1       -0.2172
     44 H          12.3128   -0.5360   -1.0851 H       1  LIG1        0.0663
     45 H          15.7673    1.4889    0.3887 H       1  LIG1        0.0868
     46 O          11.9851    3.3805    1.2256 O.3     1  LIG1       -0.4919
     47 H          11.0568    3.3291    0.8954 H       1  LIG1        0.2937
     48 O          14.8735   -0.6259   -1.0349 O.3     1  LIG1       -0.5052
     49 H          15.8112   -0.4207   -0.9406 H       1  LIG1        0.2922
@<TRIPOS>BOND
     1    26    27    3
     2    27    23    1
     3    24    22    1
     4    44    40    1
     5    48    49    1
     6    48    41    1
     7    23    22   ar
     8    23    20   ar
     9    22    19   ar
    10    12    11    1
    11    11    10    3
    12    40    41   ar
    13    40    39   ar
    14    15    13    1
    15    41    42   ar
    16    10     1    1
    17     5     2    1
    18     1     2   ar
    19     1     3   ar
    20     2     4   ar
    21     9     3    1
    22    20    29    1
    23    20    18   ar
    24     3     6   ar
    25    34    30    1
    26     4    19    1
    27     4     7   ar
    28    19    17   ar
    29    29    30   ar
    30    29    28   ar
    31    30    31   ar
    32    39    32    1
    33    39    38   ar
    34    32    31   ar
    35    32    33   ar
    36    31    36    1
    37    28    33   ar
    38    28    35    1
    39    36    37    1
    40     6     7   ar
    41     6     8    1
    42     7    13    1
    43    42    45    1
    44    42    43   ar
    45    13    14    1
    46    13    16    1
    47    38    43   ar
    48    38    46    1
    49    18    17   ar
    50    18    21    1
    51    17    25    1
    52    47    46    1
