@<TRIPOS>MOLECULE
mol_data/opt/cam/geoms/mol2/4ei4ei.out
 32 33 0 0 0
SMALL
GASTEIGER

@<TRIPOS>ATOM
      1 C           0.0399    0.3780   -0.9962 C.ar    1  LIG1        0.0253
      2 C           1.4344    0.4547   -0.9379 C.ar    1  LIG1       -0.0383
      3 C          -0.7081    1.0262   -0.0112 C.ar    1  LIG1       -0.0461
      4 C           2.0810    1.1519    0.0782 C.ar    1  LIG1       -0.0126
      5 H           2.0239   -0.0472   -1.6973 H       1  LIG1        0.0636
      6 C          -0.0647    1.7314    0.9933 C.ar    1  LIG1       -0.0571
      7 C           1.3256    1.8120    1.0627 C.ar    1  LIG1       -0.0426
      8 H          -0.6574    2.2429    1.7458 H       1  LIG1        0.0621
      9 H          -1.7908    0.9786   -0.0436 H       1  LIG1        0.0630
     10 C          -0.6047   -0.3485   -2.0488 C.1     1  LIG1       -0.0696
     11 C          -1.1477   -0.9581   -2.9338 C.1     1  LIG1       -0.1139
     12 H          -1.6274   -1.4989   -3.7164 H       1  LIG1        0.1232
     13 C           1.9811    2.6017    2.1635 C.3     1  LIG1       -0.0391
     14 H           1.2493    3.2240    2.6829 H       1  LIG1        0.0278
     15 H           2.7689    3.2518    1.7746 H       1  LIG1        0.0278
     16 H           2.4435    1.9378    2.8995 H       1  LIG1        0.0278
     17 C           4.3601    0.5253    0.9996 C.ar    1  LIG1        0.0324
     18 C           5.7547    0.6136    0.9164 C.ar    1  LIG1       -0.0455
     19 C           3.5718    1.2119    0.0589 C.ar    1  LIG1       -0.0020
     20 C           6.3616    1.3604   -0.0783 C.ar    1  LIG1       -0.0576
     21 H           6.3559    0.0818    1.6455 H       1  LIG1        0.0630
     22 C           4.2093    1.9492   -0.9379 C.ar    1  LIG1       -0.0499
     23 C           5.5966    2.0381   -1.0278 C.ar    1  LIG1       -0.0498
     24 H           3.5944    2.4756   -1.6621 H       1  LIG1        0.0627
     25 H           7.4454    1.4168   -0.1209 H       1  LIG1        0.0621
     26 C           3.7714   -0.2790    2.0289 C.1     1  LIG1       -0.0691
     27 C           3.3045   -0.9626    2.9034 C.1     1  LIG1       -0.1139
     28 H           2.8814   -1.5734    3.6672 H       1  LIG1        0.1232
     29 C           6.2528    2.8247   -2.1305 C.3     1  LIG1       -0.0397
     30 H           5.5641    3.5511   -2.5672 H       1  LIG1        0.0278
     31 H           6.5893    2.1639   -2.9365 H       1  LIG1        0.0278
     32 H           7.1308    3.3643   -1.7662 H       1  LIG1        0.0278
@<TRIPOS>BOND
     1    12    11    1
     2    31    29    1
     3    11    10    3
     4    30    29    1
     5    29    32    1
     6    29    23    1
     7    10     1    1
     8     5     2    1
     9    24    22    1
    10    23    22   ar
    11    23    20   ar
    12     1     2   ar
    13     1     3   ar
    14    22    19   ar
    15     2     4   ar
    16    25    20    1
    17    20    18   ar
    18     9     3    1
    19     3     6   ar
    20    19     4    1
    21    19    17   ar
    22     4     7   ar
    23    18    17   ar
    24    18    21    1
    25     6     7   ar
    26     6     8    1
    27    17    26    1
    28     7    13    1
    29    15    13    1
    30    26    27    3
    31    13    14    1
    32    13    16    1
    33    27    28    1
