@<TRIPOS>MOLECULE
mol_data/opt/cam/geoms/mol2/4ei4ei-4ei-4ei-.out
 62 65 0 0 0
SMALL
GASTEIGER

@<TRIPOS>ATOM
      1 C          -0.2555    0.3886    0.4712 C.ar    1  LIG1        0.0253
      2 C           1.1418    0.3662    0.4462 C.ar    1  LIG1       -0.0383
      3 C          -0.9185    1.4692   -0.1142 C.ar    1  LIG1       -0.0461
      4 C           1.8736    1.3874   -0.1525 C.ar    1  LIG1       -0.0126
      5 H           1.6656   -0.4697    0.8967 H       1  LIG1        0.0636
      6 C          -0.1898    2.4925   -0.6990 C.ar    1  LIG1       -0.0571
      7 C           1.2042    2.4786   -0.7327 C.ar    1  LIG1       -0.0426
      8 H          -0.7160    3.3345   -1.1389 H       1  LIG1        0.0621
      9 H          -2.0021    1.5031   -0.1008 H       1  LIG1        0.0630
     10 C          -0.9888   -0.6756    1.0886 C.1     1  LIG1       -0.0696
     11 C          -1.6064   -1.5692    1.6082 C.1     1  LIG1       -0.1139
     12 H          -2.1521   -2.3609    2.0669 H       1  LIG1        0.1232
     13 C           1.9542    3.6187   -1.3672 C.3     1  LIG1       -0.0391
     14 H           1.2921    4.4698   -1.5394 H       1  LIG1        0.0278
     15 H           2.3785    3.3197   -2.3300 H       1  LIG1        0.0278
     16 H           2.7841    3.9510   -0.7383 H       1  LIG1        0.0278
     17 C           4.1294    1.0534   -1.2659 C.ar    1  LIG1        0.0330
     18 C           5.5203    0.9718   -1.1517 C.ar    1  LIG1       -0.0377
     19 C           3.3627    1.3074   -0.1166 C.ar    1  LIG1       -0.0019
     20 C           6.1700    1.1387    0.0660 C.ar    1  LIG1       -0.0126
     21 H           6.1057    0.7738   -2.0430 H       1  LIG1        0.0636
     22 C           4.0253    1.4499    1.1003 C.ar    1  LIG1       -0.0494
     23 C           5.4106    1.3733    1.2239 C.ar    1  LIG1       -0.0421
     24 H           3.4295    1.6276    1.9907 H       1  LIG1        0.0627
     25 C           3.5225    0.8484   -2.5475 C.1     1  LIG1       -0.0690
     26 C           3.0380    0.6710   -3.6355 C.1     1  LIG1       -0.1139
     27 H           2.5996    0.5060   -4.5926 H       1  LIG1        0.1232
     28 C           6.0540    1.5282    2.5753 C.3     1  LIG1       -0.0391
     29 H           6.5432    2.5023    2.6652 H       1  LIG1        0.0278
     30 H           6.8195    0.7663    2.7420 H       1  LIG1        0.0278
     31 H           5.3102    1.4483    3.3706 H       1  LIG1        0.0278
     32 C           8.4979    2.1112    0.3339 C.ar    1  LIG1        0.0330
     33 C           9.8826    1.9179    0.3398 C.ar    1  LIG1       -0.0377
     34 C           7.6551    1.0109    0.1059 C.ar    1  LIG1       -0.0019
     35 C          10.4519    0.6672    0.1303 C.ar    1  LIG1       -0.0126
     36 H          10.5272    2.7722    0.5154 H       1  LIG1        0.0636
     37 C           8.2400   -0.2319   -0.1253 C.ar    1  LIG1       -0.0494
     38 C           9.6179   -0.4350   -0.1185 C.ar    1  LIG1       -0.0421
     39 H           7.5874   -1.0781   -0.3191 H       1  LIG1        0.0627
     40 C           7.9783    3.4315    0.5328 C.1     1  LIG1       -0.0690
     41 C           7.5686    4.5514    0.7007 C.1     1  LIG1       -0.1139
     42 H           7.1993    5.5410    0.8412 H       1  LIG1        0.1232
     43 C          10.1761   -1.8068   -0.3849 C.3     1  LIG1       -0.0391
     44 H          10.5685   -2.2532    0.5332 H       1  LIG1        0.0278
     45 H          10.9986   -1.7701   -1.1038 H       1  LIG1        0.0278
     46 H           9.4041   -2.4696   -0.7804 H       1  LIG1        0.0278
     47 C          12.6397   -0.0975    1.1602 C.ar    1  LIG1        0.0324
     48 C          14.0371   -0.1576    1.1038 C.ar    1  LIG1       -0.0455
     49 C          11.9391    0.5518    0.1281 C.ar    1  LIG1       -0.0020
     50 C          14.7314    0.4153    0.0526 C.ar    1  LIG1       -0.0576
     51 H          14.5708   -0.6600    1.9030 H       1  LIG1        0.0630
     52 C          12.6638    1.1276   -0.9144 C.ar    1  LIG1       -0.0499
     53 C          14.0543    1.0737   -0.9743 C.ar    1  LIG1       -0.0498
     54 H          12.1162    1.6284   -1.7076 H       1  LIG1        0.0627
     55 H          15.8154    0.3531    0.0287 H       1  LIG1        0.0621
     56 C          11.9599   -0.6813    2.2782 C.1     1  LIG1       -0.0691
     57 C          11.4159   -1.1801    3.2298 C.1     1  LIG1       -0.1139
     58 H          10.9279   -1.6116    4.0731 H       1  LIG1        0.1232
     59 C          14.8076    1.7253   -2.1027 C.3     1  LIG1       -0.0397
     60 H          15.6499    1.1087   -2.4271 H       1  LIG1        0.0278
     61 H          15.2146    2.6941   -1.7941 H       1  LIG1        0.0278
     62 H          14.1618    1.8999   -2.9658 H       1  LIG1        0.0278
@<TRIPOS>BOND
     1    27    26    1
     2    26    25    3
     3    62    59    1
     4    25    17    1
     5    60    59    1
     6    15    13    1
     7    59    61    1
     8    59    53    1
     9    21    18    1
    10    54    52    1
    11    14    13    1
    12    13    16    1
    13    13     7    1
    14    17    18   ar
    15    17    19   ar
    16    18    20   ar
    17     8     6    1
    18    45    43    1
    19    53    52   ar
    20    53    50   ar
    21    52    49   ar
    22    46    43    1
    23     7     6   ar
    24     7     4   ar
    25     6     3   ar
    26    43    38    1
    27    43    44    1
    28    39    37    1
    29     4    19    1
    30     4     2   ar
    31    37    38   ar
    32    37    34   ar
    33    38    35   ar
    34    19    22   ar
    35     3     9    1
    36     3     1   ar
    37    55    50    1
    38    50    48   ar
    39    20    34    1
    40    20    23   ar
    41    34    32   ar
    42    49    35    1
    43    49    47   ar
    44    35    33   ar
    45    32    33   ar
    46    32    40    1
    47    33    36    1
    48     2     1   ar
    49     2     5    1
    50     1    10    1
    51    40    41    3
    52    41    42    1
    53    10    11    3
    54    22    23   ar
    55    22    24    1
    56    48    47   ar
    57    48    51    1
    58    47    56    1
    59    23    28    1
    60    11    12    1
    61    56    57    3
    62    28    29    1
    63    28    30    1
    64    28    31    1
    65    57    58    1
