@<TRIPOS>MOLECULE
mol_data/opt/cam/geoms/mol2/4ei4ei4ei-4ei-.out
 62 65 0 0 0
SMALL
GASTEIGER

@<TRIPOS>ATOM
      1 C          -0.1997    0.0676   -0.4358 C.ar    1  LIG1        0.0253
      2 C           1.1958    0.1225   -0.3805 C.ar    1  LIG1       -0.0383
      3 C          -0.9300    1.1925   -0.0465 C.ar    1  LIG1       -0.0461
      4 C           1.8608    1.2637    0.0582 C.ar    1  LIG1       -0.0126
      5 H           1.7716   -0.7468   -0.6786 H       1  LIG1        0.0636
      6 C          -0.2679    2.3335    0.3777 C.ar    1  LIG1       -0.0571
      7 C           1.1237    2.3981    0.4397 C.ar    1  LIG1       -0.0426
      8 H          -0.8460    3.2069    0.6644 H       1  LIG1        0.0621
      9 H          -2.0132    1.1672   -0.0860 H       1  LIG1        0.0630
     10 C          -0.8635   -1.1189   -0.8860 C.1     1  LIG1       -0.0696
     11 C          -1.4230   -2.1155   -1.2651 C.1     1  LIG1       -0.1139
     12 H          -1.9173   -2.9980   -1.5995 H       1  LIG1        0.1232
     13 C           1.7993    3.6642    0.8932 C.3     1  LIG1       -0.0391
     14 H           1.0920    4.4960    0.9092 H       1  LIG1        0.0278
     15 H           2.6299    3.9325    0.2355 H       1  LIG1        0.0278
     16 H           2.2095    3.5492    1.9006 H       1  LIG1        0.0278
     17 C           4.0988    1.2399    1.2547 C.ar    1  LIG1        0.0330
     18 C           5.4947    1.2156    1.1825 C.ar    1  LIG1       -0.0377
     19 C           3.3524    1.2567    0.0649 C.ar    1  LIG1       -0.0019
     20 C           6.1689    1.2109   -0.0333 C.ar    1  LIG1       -0.0126
     21 H           6.0644    1.2017    2.1052 H       1  LIG1        0.0636
     22 C           4.0406    1.2278   -1.1458 C.ar    1  LIG1       -0.0494
     23 C           5.4308    1.2058   -1.2281 C.ar    1  LIG1       -0.0421
     24 H           3.4618    1.2213   -2.0647 H       1  LIG1        0.0627
     25 C           3.4678    1.2186    2.5409 C.1     1  LIG1       -0.0690
     26 C           2.9630    1.1982    3.6340 C.1     1  LIG1       -0.1139
     27 H           2.5076    1.1711    4.5969 H       1  LIG1        0.1232
     28 C           6.1022    1.1641   -2.5742 C.3     1  LIG1       -0.0391
     29 H           5.3824    0.9240   -3.3593 H       1  LIG1        0.0278
     30 H           6.8993    0.4166   -2.5988 H       1  LIG1        0.0278
     31 H           6.5562    2.1297   -2.8140 H       1  LIG1        0.0278
     32 C           8.4507    2.2519   -0.4166 C.ar    1  LIG1        0.0330
     33 C           9.8430    2.1374   -0.3629 C.ar    1  LIG1       -0.0377
     34 C           7.6592    1.1608   -0.0216 C.ar    1  LIG1       -0.0019
     35 C          10.4694    0.9786    0.0812 C.ar    1  LIG1       -0.0126
     36 H          10.4478    2.9859   -0.6636 H       1  LIG1        0.0636
     37 C           8.3003    0.0045    0.4169 C.ar    1  LIG1       -0.0494
     38 C           9.6864   -0.1179    0.4774 C.ar    1  LIG1       -0.0421
     39 H           7.6869   -0.8414    0.7128 H       1  LIG1        0.0627
     40 C           7.8703    3.4877   -0.8511 C.1     1  LIG1       -0.0690
     41 C           7.4095    4.5373   -1.2202 C.1     1  LIG1       -0.1139
     42 H           6.9951    5.4669   -1.5357 H       1  LIG1        0.1232
     43 C          10.3076   -1.4061    0.9452 C.3     1  LIG1       -0.0391
     44 H          10.7425   -1.2894    1.9418 H       1  LIG1        0.0278
     45 H          11.1111   -1.7273    0.2773 H       1  LIG1        0.0278
     46 H           9.5620   -2.2022    0.9922 H       1  LIG1        0.0278
     47 C          12.7058    0.9429    1.2756 C.ar    1  LIG1        0.0324
     48 C          14.1041    0.9172    1.2068 C.ar    1  LIG1       -0.0455
     49 C          11.9603    0.9294    0.0837 C.ar    1  LIG1       -0.0020
     50 C          14.7550    0.8818   -0.0135 C.ar    1  LIG1       -0.0576
     51 H          14.6724    0.9344    2.1302 H       1  LIG1        0.0630
     52 C          12.6419    0.9023   -1.1326 C.ar    1  LIG1       -0.0499
     53 C          14.0321    0.8743   -1.2072 C.ar    1  LIG1       -0.0498
     54 H          12.0600    0.8990   -2.0497 H       1  LIG1        0.0627
     55 H          15.8406    0.8647   -0.0420 H       1  LIG1        0.0621
     56 C          12.0706    1.0091    2.5581 C.1     1  LIG1       -0.0691
     57 C          11.5637    1.0646    3.6491 C.1     1  LIG1       -0.1139
     58 H          11.1066    1.1237    4.6099 H       1  LIG1        0.1232
     59 C          14.7383    0.8211   -2.5353 C.3     1  LIG1       -0.0397
     60 H          15.1679   -0.1703   -2.7129 H       1  LIG1        0.0278
     61 H          15.5600    1.5414   -2.5770 H       1  LIG1        0.0278
     62 H          14.0556    1.0383   -3.3593 H       1  LIG1        0.0278
@<TRIPOS>BOND
     1    62    59    1
     2    29    28    1
     3    31    28    1
     4    60    59    1
     5    30    28    1
     6    61    59    1
     7    28    23    1
     8    59    53    1
     9    24    22    1
    10    54    52    1
    11    12    11    1
    12    42    41    1
    13    11    10    3
    14    23    22   ar
    15    23    20   ar
    16    41    40    3
    17    53    52   ar
    18    53    50   ar
    19    22    19   ar
    20    52    49   ar
    21    10     1    1
    22    40    32    1
    23     5     2    1
    24    36    33    1
    25     1     2   ar
    26     1     3   ar
    27    32    33   ar
    28    32    34   ar
    29     2     4   ar
    30    33    35   ar
    31     9     3    1
    32     3     6   ar
    33    55    50    1
    34    20    34    1
    35    20    18   ar
    36    34    37   ar
    37    50    48   ar
    38     4    19    1
    39     4     7   ar
    40    19    17   ar
    41    35    49    1
    42    35    38   ar
    43    49    47   ar
    44    15    13    1
    45    45    43    1
    46     6     7   ar
    47     6     8    1
    48    37    38   ar
    49    37    39    1
    50     7    13    1
    51    38    43    1
    52    13    14    1
    53    13    16    1
    54    43    46    1
    55    43    44    1
    56    18    17   ar
    57    18    21    1
    58    48    47   ar
    59    48    51    1
    60    17    25    1
    61    47    56    1
    62    25    26    3
    63    56    57    3
    64    26    27    1
    65    57    58    1
