@<TRIPOS>MOLECULE
mol_data/opt/cam/geoms/mol2/4ei4ei4ei.out
 47 49 0 0 0
SMALL
GASTEIGER

@<TRIPOS>ATOM
      1 C          -0.0825    1.3248   -1.2164 C.ar    1  LIG1        0.0253
      2 C           1.3122    1.3556   -1.1301 C.ar    1  LIG1       -0.0383
      3 C          -0.8127    0.8922   -0.1074 C.ar    1  LIG1       -0.0461
      4 C           1.9767    0.9595    0.0267 C.ar    1  LIG1       -0.0126
      5 H           1.8879    1.6881   -1.9869 H       1  LIG1        0.0636
      6 C          -0.1518    0.5102    1.0491 C.ar    1  LIG1       -0.0571
      7 C           1.2391    0.5339    1.1450 C.ar    1  LIG1       -0.0426
      8 H          -0.7308    0.1890    1.9098 H       1  LIG1        0.0621
      9 H          -1.8955    0.8650   -0.1573 H       1  LIG1        0.0630
     10 C          -0.7458    1.7324   -2.4186 C.1     1  LIG1       -0.0696
     11 C          -1.3045    2.0756   -3.4284 C.1     1  LIG1       -0.1139
     12 H          -1.7982    2.3782   -4.3227 H       1  LIG1        0.1232
     13 C           1.9132    0.1231    2.4263 C.3     1  LIG1       -0.0391
     14 H           1.1893    0.0586    3.2413 H       1  LIG1        0.0278
     15 H           2.6920    0.8337    2.7145 H       1  LIG1        0.0278
     16 H           2.3916   -0.8547    2.3203 H       1  LIG1        0.0278
     17 C           4.2827   -0.0990    0.0513 C.ar    1  LIG1        0.0330
     18 C           5.6720    0.0575    0.0593 C.ar    1  LIG1       -0.0377
     19 C           3.4658    1.0437    0.0540 C.ar    1  LIG1       -0.0019
     20 C           6.2711    1.3118    0.0744 C.ar    1  LIG1       -0.0126
     21 H           6.2963   -0.8293    0.0560 H       1  LIG1        0.0636
     22 C           4.0799    2.2938    0.0454 C.ar    1  LIG1       -0.0494
     23 C           5.4627    2.4600    0.0568 C.ar    1  LIG1       -0.0421
     24 H           3.4468    3.1761    0.0286 H       1  LIG1        0.0627
     25 C           3.7310   -1.4207    0.0133 C.1     1  LIG1       -0.0690
     26 C           3.2934   -2.5420   -0.0203 C.1     1  LIG1       -0.1139
     27 H           2.8973   -3.5305   -0.0590 H       1  LIG1        0.1232
     28 C           6.0529    3.8442    0.0392 C.3     1  LIG1       -0.0391
     29 H           5.2938    4.5862   -0.2161 H       1  LIG1        0.0278
     30 H           6.8668    3.9218   -0.6861 H       1  LIG1        0.0278
     31 H           6.4657    4.1046    1.0180 H       1  LIG1        0.0278
     32 C           8.4969    1.8194    1.1779 C.ar    1  LIG1        0.0324
     33 C           9.8944    1.8575    1.1017 C.ar    1  LIG1       -0.0455
     34 C           7.7605    1.3914    0.0592 C.ar    1  LIG1       -0.0020
     35 C          10.5537    1.4766   -0.0536 C.ar    1  LIG1       -0.0576
     36 H          10.4557    2.1886    1.9685 H       1  LIG1        0.0630
     37 C           8.4506    1.0048   -1.0891 C.ar    1  LIG1       -0.0499
     38 C           9.8405    1.0379   -1.1698 C.ar    1  LIG1       -0.0498
     39 H           7.8755    0.6738   -1.9490 H       1  LIG1        0.0627
     40 H          11.6384    1.5175   -0.0903 H       1  LIG1        0.0621
     41 C           7.8538    2.1980    2.4010 C.1     1  LIG1       -0.0691
     42 C           7.3418    2.5213    3.4419 C.1     1  LIG1       -0.1139
     43 H           6.8816    2.7976    4.3624 H       1  LIG1        0.1232
     44 C          10.5565    0.5957   -2.4177 C.3     1  LIG1       -0.0397
     45 H           9.8769    0.5428   -3.2706 H       1  LIG1        0.0278
     46 H          10.9986   -0.3974   -2.2850 H       1  LIG1        0.0278
     47 H          11.3699    1.2801   -2.6732 H       1  LIG1        0.0278
@<TRIPOS>BOND
     1    12    11    1
     2    11    10    3
     3    45    44    1
     4    47    44    1
     5    10     1    1
     6    44    46    1
     7    44    38    1
     8     5     2    1
     9    39    37    1
    10     1     2   ar
    11     1     3   ar
    12    38    37   ar
    13    38    35   ar
    14     2     4   ar
    15    37    34   ar
    16    30    28    1
    17    29    28    1
    18     9     3    1
    19     3     6   ar
    20    40    35    1
    21    27    26    1
    22    35    33   ar
    23    26    25    3
    24    25    17    1
    25     4    19    1
    26     4     7   ar
    27    24    22    1
    28    28    23    1
    29    28    31    1
    30    22    19   ar
    31    22    23   ar
    32    17    19   ar
    33    17    18   ar
    34    21    18    1
    35    23    20   ar
    36    34    20    1
    37    34    32   ar
    38    18    20   ar
    39     6     7   ar
    40     6     8    1
    41    33    32   ar
    42    33    36    1
    43     7    13    1
    44    32    41    1
    45    16    13    1
    46    41    42    3
    47    13    15    1
    48    13    14    1
    49    42    43    1
