@<TRIPOS>MOLECULE
mol_data/opt/cam/geoms/mol2/4ei4ei4ei-4ei.out
 62 65 0 0 0
SMALL
GASTEIGER

@<TRIPOS>ATOM
      1 C          -0.1969    1.4513   -1.2373 C.ar    1  LIG1        0.0253
      2 C           1.1980    1.3867   -1.1736 C.ar    1  LIG1       -0.0383
      3 C          -0.9303    1.2620   -0.0641 C.ar    1  LIG1       -0.0461
      4 C           1.8588    1.1320    0.0243 C.ar    1  LIG1       -0.0126
      5 H           1.7764    1.5303   -2.0796 H       1  LIG1        0.0636
      6 C          -0.2720    1.0213    1.1313 C.ar    1  LIG1       -0.0571
      7 C           1.1186    0.9514    1.2054 C.ar    1  LIG1       -0.0426
      8 H          -0.8524    0.8892    2.0396 H       1  LIG1        0.0621
      9 H          -2.0129    1.3118   -0.0960 H       1  LIG1        0.0630
     10 C          -0.8568    1.7101   -2.4817 C.1     1  LIG1       -0.0696
     11 C          -1.4131    1.9285   -3.5270 C.1     1  LIG1       -0.1139
     12 H          -1.9045    2.1204   -4.4527 H       1  LIG1        0.1232
     13 C           1.7909    0.7005    2.5284 C.3     1  LIG1       -0.0391
     14 H           1.0838    0.8224    3.3515 H       1  LIG1        0.0278
     15 H           2.6258    1.3873    2.6893 H       1  LIG1        0.0278
     16 H           2.1939   -0.3153    2.5756 H       1  LIG1        0.0278
     17 C           4.0802   -0.0843    0.1862 C.ar    1  LIG1        0.0330
     18 C           5.4770   -0.0361    0.1504 C.ar    1  LIG1       -0.0377
     19 C           3.3504    1.1039    0.0180 C.ar    1  LIG1       -0.0019
     20 C           6.1671    1.1525   -0.0579 C.ar    1  LIG1       -0.0126
     21 H           6.0341   -0.9582    0.2747 H       1  LIG1        0.0636
     22 C           4.0549    2.2883   -0.1847 C.ar    1  LIG1       -0.0494
     23 C           5.4459    2.3461   -0.2250 C.ar    1  LIG1       -0.0421
     24 H           3.4890    3.2073   -0.3050 H       1  LIG1        0.0627
     25 C           3.4312   -1.3481    0.3715 C.1     1  LIG1       -0.0690
     26 C           2.9107   -2.4226    0.5289 C.1     1  LIG1       -0.1139
     27 H           2.4412   -3.3706    0.6558 H       1  LIG1        0.1232
     28 C           6.1376    3.6668   -0.4295 C.3     1  LIG1       -0.0391
     29 H           5.4383    4.4953   -0.3005 H       1  LIG1        0.0278
     30 H           6.5606    3.7334   -1.4358 H       1  LIG1        0.0278
     31 H           6.9610    3.7989    0.2770 H       1  LIG1        0.0278
     32 C           8.4137    1.3116   -1.2254 C.ar    1  LIG1        0.0330
     33 C           9.8085    1.2524   -1.1508 C.ar    1  LIG1       -0.0377
     34 C           7.6581    1.1210   -0.0567 C.ar    1  LIG1       -0.0019
     35 C          10.4714    0.9989    0.0445 C.ar    1  LIG1       -0.0126
     36 H          10.3853    1.3947   -2.0582 H       1  LIG1        0.0636
     37 C           8.3355    0.8718    1.1345 C.ar    1  LIG1       -0.0494
     38 C           9.7244    0.8072    1.2181 C.ar    1  LIG1       -0.0421
     39 H           7.7500    0.7337    2.0386 H       1  LIG1        0.0627
     40 C           7.7929    1.5430   -2.4957 C.1     1  LIG1       -0.0690
     41 C           7.2962    1.7389   -3.5750 C.1     1  LIG1       -0.1139
     42 H           6.8483    1.9001   -4.5284 H       1  LIG1        0.1232
     43 C          10.3862    0.5505    2.5450 C.3     1  LIG1       -0.0391
     44 H          11.2165    1.2401    2.7171 H       1  LIG1        0.0278
     45 H          10.7938   -0.4635    2.5871 H       1  LIG1        0.0278
     46 H           9.6719    0.6624    3.3631 H       1  LIG1        0.0278
     47 C          12.6951   -0.2092    0.2071 C.ar    1  LIG1        0.0324
     48 C          14.0940   -0.1584    0.1829 C.ar    1  LIG1       -0.0455
     49 C          11.9631    0.9800    0.0435 C.ar    1  LIG1       -0.0020
     50 C          14.7585    1.0410   -0.0035 C.ar    1  LIG1       -0.0576
     51 H          14.6521   -1.0794    0.3095 H       1  LIG1        0.0630
     52 C          12.6576    2.1731   -0.1518 C.ar    1  LIG1       -0.0499
     53 C          14.0490    2.2295   -0.1795 C.ar    1  LIG1       -0.0498
     54 H          12.0855    3.0874   -0.2796 H       1  LIG1        0.0627
     55 H          15.8444    1.0561   -0.0154 H       1  LIG1        0.0621
     56 C          12.0443   -1.4742    0.3774 C.1     1  LIG1       -0.0691
     57 C          11.5242   -2.5508    0.5211 C.1     1  LIG1       -0.1139
     58 H          11.0552   -3.5005    0.6373 H       1  LIG1        0.1232
     59 C          14.7687    3.5308   -0.4118 C.3     1  LIG1       -0.0397
     60 H          14.1120    4.3863   -0.2412 H       1  LIG1        0.0278
     61 H          15.1370    3.5968   -1.4410 H       1  LIG1        0.0278
     62 H          15.6343    3.6296    0.2486 H       1  LIG1        0.0278
@<TRIPOS>BOND
     1    42    41    1
     2    12    11    1
     3    41    40    3
     4    11    10    3
     5    40    32    1
     6    10     1    1
     7     5     2    1
     8    36    33    1
     9    61    59    1
    10    30    28    1
    11     1     2   ar
    12     1     3   ar
    13    32    33   ar
    14    32    34   ar
    15     2     4   ar
    16    33    35   ar
    17    28    29    1
    18    28    23    1
    19    28    31    1
    20    59    60    1
    21    59    53    1
    22    59    62    1
    23    24    22    1
    24    54    52    1
    25    23    22   ar
    26    23    20   ar
    27    22    19   ar
    28    53    52   ar
    29    53    50   ar
    30    52    49   ar
    31     9     3    1
    32     3     6   ar
    33    20    34    1
    34    20    18   ar
    35    34    37   ar
    36    55    50    1
    37    50    48   ar
    38    19     4    1
    39    19    17   ar
    40     4     7   ar
    41    49    35    1
    42    49    47   ar
    43    35    38   ar
    44    18    17   ar
    45    18    21    1
    46    48    47   ar
    47    48    51    1
    48    17    25    1
    49    47    56    1
    50    25    26    3
    51    56    57    3
    52    57    58    1
    53    26    27    1
    54     6     7   ar
    55     6     8    1
    56    37    38   ar
    57    37    39    1
    58     7    13    1
    59    38    43    1
    60    13    16    1
    61    13    15    1
    62    13    14    1
    63    43    45    1
    64    43    44    1
    65    43    46    1
