@<TRIPOS>MOLECULE
mol_data/opt/cam/geoms/mol2/4ei4ei4ei4ei-.out
 62 65 0 0 0
SMALL
GASTEIGER

@<TRIPOS>ATOM
      1 C          -0.1977    1.6422   -1.0463 C.ar    1  LIG1        0.0253
      2 C           1.1983    1.6154   -0.9809 C.ar    1  LIG1       -0.0383
      3 C          -0.9278    1.0391   -0.0199 C.ar    1  LIG1       -0.0461
      4 C           1.8639    0.9979    0.0738 C.ar    1  LIG1       -0.0126
      5 H           1.7739    2.0795   -1.7741 H       1  LIG1        0.0636
      6 C          -0.2654    0.4355    1.0370 C.ar    1  LIG1       -0.0571
      7 C           1.1267    0.3999    1.1104 C.ar    1  LIG1       -0.0426
      8 H          -0.8438   -0.0181    1.8363 H       1  LIG1        0.0621
      9 H          -2.0114    1.0536   -0.0543 H       1  LIG1        0.0630
     10 C          -0.8620    2.2792   -2.1436 C.1     1  LIG1       -0.0696
     11 C          -1.4217    2.8152   -3.0651 C.1     1  LIG1       -0.1139
     12 H          -1.9162    3.2886   -3.8815 H       1  LIG1        0.1232
     13 C           1.8030   -0.2553    2.2844 C.3     1  LIG1       -0.0391
     14 H           1.0883   -0.4410    3.0889 H       1  LIG1        0.0278
     15 H           2.6105    0.3665    2.6792 H       1  LIG1        0.0278
     16 H           2.2448   -1.2134    1.9962 H       1  LIG1        0.0278
     17 C           4.1359   -0.1129   -0.1358 C.ar    1  LIG1        0.0330
     18 C           5.5292    0.0007   -0.1275 C.ar    1  LIG1       -0.0377
     19 C           3.3551    1.0330    0.0886 C.ar    1  LIG1       -0.0019
     20 C           6.1676    1.2145    0.1006 C.ar    1  LIG1       -0.0126
     21 H           6.1256   -0.8879   -0.3031 H       1  LIG1        0.0636
     22 C           4.0078    2.2464    0.2931 C.ar    1  LIG1       -0.0494
     23 C           5.3952    2.3694    0.3062 C.ar    1  LIG1       -0.0421
     24 H           3.4022    3.1346    0.4478 H       1  LIG1        0.0627
     25 C           3.5429   -1.3900   -0.4005 C.1     1  LIG1       -0.0690
     26 C           3.0703   -2.4742   -0.6268 C.1     1  LIG1       -0.1139
     27 H           2.6430   -3.4277   -0.8355 H       1  LIG1        0.1232
     28 C           6.0279    3.7172    0.5238 C.3     1  LIG1       -0.0391
     29 H           5.2909    4.5147    0.4100 H       1  LIG1        0.0278
     30 H           6.8403    3.8953   -0.1851 H       1  LIG1        0.0278
     31 H           6.4543    3.7904    1.5284 H       1  LIG1        0.0278
     32 C           8.4296    1.4638    1.2221 C.ar    1  LIG1        0.0330
     33 C           9.8237    1.4712    1.1166 C.ar    1  LIG1       -0.0377
     34 C           7.6577    1.2545    0.0674 C.ar    1  LIG1       -0.0019
     35 C          10.4708    1.2807   -0.0989 C.ar    1  LIG1       -0.0126
     36 H          10.4133    1.6326    2.0125 H       1  LIG1        0.0636
     37 C           8.3199    1.0421   -1.1395 C.ar    1  LIG1       -0.0494
     38 C           9.7078    1.0502   -1.2552 C.ar    1  LIG1       -0.0421
     39 H           7.7218    0.8625   -2.0281 H       1  LIG1        0.0627
     40 C           7.8280    1.6421    2.5102 C.1     1  LIG1       -0.0690
     41 C           7.3487    1.7925    3.6046 C.1     1  LIG1       -0.1139
     42 H           6.9180    1.9175    4.5712 H       1  LIG1        0.1232
     43 C          10.3512    0.8042   -2.5931 C.3     1  LIG1       -0.0391
     44 H           9.6225    0.4184   -3.3087 H       1  LIG1        0.0278
     45 H          11.1703    0.0847   -2.5155 H       1  LIG1        0.0278
     46 H          10.7699    1.7286   -3.0006 H       1  LIG1        0.0278
     47 C          12.7027    2.3196   -0.7090 C.ar    1  LIG1        0.0324
     48 C          14.1008    2.2674   -0.6735 C.ar    1  LIG1       -0.0455
     49 C          11.9623    1.2784   -0.1203 C.ar    1  LIG1       -0.0020
     50 C          14.7577    1.2105   -0.0671 C.ar    1  LIG1       -0.0576
     51 H          14.6651    3.0774   -1.1221 H       1  LIG1        0.0630
     52 C          12.6490    0.2306    0.4905 C.ar    1  LIG1       -0.0499
     53 C          14.0405    0.1717    0.5261 C.ar    1  LIG1       -0.0498
     54 H          12.0709   -0.5663    0.9495 H       1  LIG1        0.0627
     55 H          15.8434    1.1935   -0.0487 H       1  LIG1        0.0621
     56 C          12.0610    3.4462   -1.3188 C.1     1  LIG1       -0.0691
     57 C          11.5495    4.4049   -1.8380 C.1     1  LIG1       -0.1139
     58 H          11.0896    5.2544   -2.2878 H       1  LIG1        0.1232
     59 C          14.7489   -0.9924    1.1651 C.3     1  LIG1       -0.0397
     60 H          15.6760   -0.6766    1.6497 H       1  LIG1        0.0278
     61 H          15.0132   -1.7486    0.4181 H       1  LIG1        0.0278
     62 H          14.1211   -1.4787    1.9150 H       1  LIG1        0.0278
@<TRIPOS>BOND
     1    12    11    1
     2    44    43    1
     3    11    10    3
     4    46    43    1
     5    43    45    1
     6    43    38    1
     7    58    57    1
     8    10     1    1
     9    39    37    1
    10    57    56    3
    11     5     2    1
    12    56    47    1
    13    38    37   ar
    14    38    35   ar
    15    37    34   ar
    16    51    48    1
    17     1     2   ar
    18     1     3   ar
    19     2     4   ar
    20    27    26    1
    21    47    48   ar
    22    47    49   ar
    23    48    50   ar
    24    26    25    3
    25    25    17    1
    26    21    18    1
    27    30    28    1
    28    17    18   ar
    29    17    19   ar
    30    18    20   ar
    31    49    35    1
    32    49    52   ar
    33    35    33   ar
    34    50    55    1
    35    50    53   ar
    36     9     3    1
    37     3     6   ar
    38    34    20    1
    39    34    32   ar
    40     4    19    1
    41     4     7   ar
    42    19    22   ar
    43    20    23   ar
    44    22    23   ar
    45    22    24    1
    46    23    28    1
    47    29    28    1
    48    61    59    1
    49    52    53   ar
    50    52    54    1
    51    28    31    1
    52    53    59    1
    53     6     7   ar
    54     6     8    1
    55     7    13    1
    56    33    32   ar
    57    33    36    1
    58    59    60    1
    59    59    62    1
    60    32    40    1
    61    16    13    1
    62    13    15    1
    63    13    14    1
    64    40    41    3
    65    41    42    1
