@<TRIPOS>MOLECULE
mol_data/opt/cam/geoms/mol2/4ei4ei-4ei4ei-.out
 62 65 0 0 0
SMALL
GASTEIGER

@<TRIPOS>ATOM
      1 C          -0.2376    0.2421   -0.6663 C.ar    1  LIG1        0.0253
      2 C           1.1598    0.2749   -0.6636 C.ar    1  LIG1       -0.0383
      3 C          -0.9319    1.2226    0.0457 C.ar    1  LIG1       -0.0461
      4 C           1.8613    1.2616    0.0226 C.ar    1  LIG1       -0.0126
      5 H           1.7080   -0.4810   -1.2151 H       1  LIG1        0.0636
      6 C          -0.2334    2.1977    0.7396 C.ar    1  LIG1       -0.0571
      7 C           1.1603    2.2416    0.7462 C.ar    1  LIG1       -0.0426
      8 H          -0.7839    2.9468    1.3008 H       1  LIG1        0.0621
      9 H          -2.0160    1.2096    0.0559 H       1  LIG1        0.0630
     10 C          -0.9397   -0.7799   -1.3830 C.1     1  LIG1       -0.0696
     11 C          -1.5314   -1.6390   -1.9843 C.1     1  LIG1       -0.1139
     12 H          -2.0542   -2.3983   -2.5185 H       1  LIG1        0.1232
     13 C           1.8766    3.3119    1.5250 C.3     1  LIG1       -0.0391
     14 H           1.1891    3.8249    2.2008 H       1  LIG1        0.0278
     15 H           2.3121    4.0581    0.8544 H       1  LIG1        0.0278
     16 H           2.6938    2.8949    2.1192 H       1  LIG1        0.0278
     17 C           4.1228    2.1563   -0.7024 C.ar    1  LIG1        0.0330
     18 C           5.5159    2.0387   -0.6928 C.ar    1  LIG1       -0.0377
     19 C           3.3522    1.2155    0.0005 C.ar    1  LIG1       -0.0019
     20 C           6.1629    1.0107   -0.0167 C.ar    1  LIG1       -0.0126
     21 H           6.1044    2.7649   -1.2427 H       1  LIG1        0.0636
     22 C           4.0140    0.1939    0.6777 C.ar    1  LIG1       -0.0494
     23 C           5.4009    0.0666    0.6907 C.ar    1  LIG1       -0.0421
     24 H           3.4169   -0.5269    1.2284 H       1  LIG1        0.0627
     25 C           3.5185    3.2205   -1.4473 C.1     1  LIG1       -0.0690
     26 C           3.0359    4.1240   -2.0806 C.1     1  LIG1       -0.1139
     27 H           2.5993    4.9131   -2.6480 H       1  LIG1        0.1232
     28 C           6.0455   -1.0537    1.4613 C.3     1  LIG1       -0.0391
     29 H           6.8836   -0.6929    2.0629 H       1  LIG1        0.0278
     30 H           6.4383   -1.8172    0.7838 H       1  LIG1        0.0278
     31 H           5.3247   -1.5312    2.1282 H       1  LIG1        0.0278
     32 C           8.3702   -0.0068   -0.7435 C.ar    1  LIG1        0.0330
     33 C           9.7677    0.0295   -0.7291 C.ar    1  LIG1       -0.0377
     34 C           7.6536    0.9723   -0.0357 C.ar    1  LIG1       -0.0019
     35 C          10.4711    1.0135   -0.0440 C.ar    1  LIG1       -0.0126
     36 H          10.3143   -0.7261   -1.2826 H       1  LIG1        0.0636
     37 C           8.3714    1.9497    0.6495 C.ar    1  LIG1       -0.0494
     38 C           9.7633    1.9965    0.6667 C.ar    1  LIG1       -0.0421
     39 H           7.8158    2.7005    1.2036 H       1  LIG1        0.0627
     40 C           7.7074   -1.0286   -1.4980 C.1     1  LIG1       -0.0690
     41 C           7.1751   -1.8976   -2.1396 C.1     1  LIG1       -0.1139
     42 H           6.6962   -2.6562   -2.7146 H       1  LIG1        0.1232
     43 C          10.4694    3.0741    1.4444 C.3     1  LIG1       -0.0391
     44 H           9.7751    3.5907    2.1100 H       1  LIG1        0.0278
     45 H          10.9091    3.8156    0.7714 H       1  LIG1        0.0278
     46 H          11.2826    2.6631    2.0481 H       1  LIG1        0.0278
     47 C          12.7346    1.9028   -0.7625 C.ar    1  LIG1        0.0324
     48 C          14.1301    1.7912   -0.7431 C.ar    1  LIG1       -0.0455
     49 C          11.9620    0.9644   -0.0559 C.ar    1  LIG1       -0.0020
     50 C          14.7518    0.7715   -0.0441 C.ar    1  LIG1       -0.0576
     51 H          14.7196    2.5182   -1.2906 H       1  LIG1        0.0630
     52 C          12.6138   -0.0581    0.6324 C.ar    1  LIG1       -0.0499
     53 C          14.0013   -0.1757    0.6533 C.ar    1  LIG1       -0.0498
     54 H          12.0104   -0.7806    1.1742 H       1  LIG1        0.0627
     55 H          15.8360    0.7071   -0.0410 H       1  LIG1        0.0621
     56 C          12.1282    2.9578   -1.5189 C.1     1  LIG1       -0.0691
     57 C          11.6459    3.8533   -2.1634 C.1     1  LIG1       -0.1139
     58 H          11.2101    4.6368   -2.7395 H       1  LIG1        0.1232
     59 C          14.6742   -1.3023    1.3905 C.3     1  LIG1       -0.0397
     60 H          15.5474   -0.9487    1.9452 H       1  LIG1        0.0278
     61 H          15.0223   -2.0733    0.6952 H       1  LIG1        0.0278
     62 H          13.9930   -1.7797    2.0980 H       1  LIG1        0.0278
@<TRIPOS>BOND
     1    58    57    1
     2    42    41    1
     3    27    26    1
     4    12    11    1
     5    57    56    3
     6    41    40    3
     7    26    25    3
     8    11    10    3
     9    56    47    1
    10    40    32    1
    11    25    17    1
    12    10     1    1
    13    51    48    1
    14    36    33    1
    15    21    18    1
    16     5     2    1
    17    47    48   ar
    18    47    49   ar
    19    32    33   ar
    20    32    34   ar
    21    48    50   ar
    22    33    35   ar
    23    17    18   ar
    24    17    19   ar
    25    18    20   ar
    26     1     2   ar
    27     1     3   ar
    28     2     4   ar
    29    49    35    1
    30    49    52   ar
    31    50    55    1
    32    50    53   ar
    33    35    38   ar
    34    34    20    1
    35    34    37   ar
    36    20    23   ar
    37    19     4    1
    38    19    22   ar
    39     4     7   ar
    40     3     9    1
    41     3     6   ar
    42    52    53   ar
    43    52    54    1
    44    37    38   ar
    45    37    39    1
    46    53    59    1
    47    38    43    1
    48    22    23   ar
    49    22    24    1
    50    23    28    1
    51    61    59    1
    52     6     7   ar
    53     6     8    1
    54     7    13    1
    55    45    43    1
    56    30    28    1
    57    15    13    1
    58    59    60    1
    59    59    62    1
    60    43    46    1
    61    43    44    1
    62    28    29    1
    63    28    31    1
    64    13    16    1
    65    13    14    1
