@<TRIPOS>MOLECULE
mol_data/opt/cam/geoms/mol2/4ei6if6ee-4fe-.out
 56 59 0 0 0
SMALL
GASTEIGER

@<TRIPOS>ATOM
      1 C           0.1793   -2.4045    1.2894 C.ar    1  LIG1        0.0253
      2 C           1.3297   -1.7775    0.7784 C.ar    1  LIG1       -0.0383
      3 C          -1.0713   -2.0429    0.7623 C.ar    1  LIG1       -0.0461
      4 C           1.2478   -0.8144   -0.2299 C.ar    1  LIG1       -0.0120
      5 H           2.3010   -2.0516    1.1776 H       1  LIG1        0.0636
      6 C          -1.1523   -1.0866   -0.2444 C.ar    1  LIG1       -0.0571
      7 C          -0.0120   -0.4576   -0.7600 C.ar    1  LIG1       -0.0426
      8 H          -2.1265   -0.8201   -0.6455 H       1  LIG1        0.0621
      9 H          -1.9694   -2.5162    1.1448 H       1  LIG1        0.0630
     10 C           0.2854   -3.3881    2.3210 C.1     1  LIG1       -0.0696
     11 C           0.3747   -4.2209    3.1945 C.1     1  LIG1       -0.1139
     12 H           0.4541   -4.9539    3.9635 H       1  LIG1        0.1232
     13 C          -0.1382    0.5680   -1.8613 C.3     1  LIG1       -0.0391
     14 H          -1.1857    0.7263   -2.1296 H       1  LIG1        0.0278
     15 H           0.3992    0.2562   -2.7634 H       1  LIG1        0.0278
     16 H           0.2848    1.5345   -1.5655 H       1  LIG1        0.0278
     17 C           3.0288    1.0009   -0.1660 C.ar    1  LIG1        0.0468
     18 C           2.5075   -0.1846   -0.7372 C.ar    1  LIG1        0.0069
     19 C           3.2060   -0.7686   -1.7910 C.ar    1  LIG1       -0.0086
     20 C           4.3860   -0.1835   -2.2537 C.ar    1  LIG1        0.1434
     21 C           4.8370    0.9901   -1.6245 C.ar    1  LIG1        0.1152
     22 N           4.1599    1.5534   -0.6138 N.ar    1  LIG1       -0.2475
     23 H           2.8465   -1.6753   -2.2672 H       1  LIG1        0.0661
     24 C           2.3489    1.6960    0.9889 C.3     1  LIG1       -0.0217
     25 H           2.3173    1.0576    1.8787 H       1  LIG1        0.0293
     26 H           1.3114    1.9568    0.7529 H       1  LIG1        0.0293
     27 H           2.8975    2.6075    1.2291 H       1  LIG1        0.0293
     28 O           5.0267   -0.7850   -3.2961 O.3     1  LIG1       -0.5046
     29 H           5.7676   -0.2279   -3.5767 H       1  LIG1        0.2922
     30 C           6.1669    2.9998   -2.4690 C.ar    1  LIG1        0.1232
     31 C           6.1055    1.6470   -2.0512 C.ar    1  LIG1        0.0389
     32 C           7.3098    0.9430   -2.0233 C.ar    1  LIG1       -0.0323
     33 C           8.5174    1.5489   -2.4041 C.ar    1  LIG1        0.0514
     34 C           8.4602    2.8965   -2.8464 C.ar    1  LIG1        0.0913
     35 N           7.3161    3.5865   -2.8498 N.ar    1  LIG1       -0.2364
     36 H           7.3284   -0.0815   -1.6637 H       1  LIG1        0.0638
     37 C           4.9934    3.8181   -2.5466 C.1     1  LIG1       -0.0491
     38 C           4.0186    4.5255   -2.6503 C.1     1  LIG1       -0.1124
     39 H           3.1600    5.1514   -2.7288 H       1  LIG1        0.1232
     40 C           9.7371    0.8241   -2.2670 C.1     1  LIG1       -0.0675
     41 C          10.7468    0.1781   -2.1020 C.1     1  LIG1       -0.1138
     42 H          11.6451   -0.3774   -1.9616 H       1  LIG1        0.1232
     43 C          10.5084    3.1976   -4.3144 C.ar    1  LIG1        0.1261
     44 C          11.6292    3.9467   -4.6897 C.ar    1  LIG1       -0.0184
     45 C           9.6687    3.6529   -3.2795 C.ar    1  LIG1        0.0441
     46 C          11.9157    5.1511   -4.0609 C.ar    1  LIG1       -0.0429
     47 H          12.2705    3.5857   -5.4908 H       1  LIG1        0.0655
     48 C           9.9515    4.8826   -2.6821 C.ar    1  LIG1       -0.0336
     49 C          11.0737    5.6445   -3.0478 C.ar    1  LIG1        0.0255
     50 H           9.2834    5.2507   -1.9119 H       1  LIG1        0.0637
     51 H          12.7876    5.7245   -4.3570 H       1  LIG1        0.0631
     52 O          10.1676    2.0421   -4.9508 O.3     1  LIG1       -0.5061
     53 H          10.8490    1.8216   -5.5992 H       1  LIG1        0.2922
     54 C          11.3534    6.8896   -2.4056 C.1     1  LIG1       -0.0696
     55 C          11.5945    7.9445   -1.8635 C.1     1  LIG1       -0.1139
     56 H          11.8014    8.8731   -1.3845 H       1  LIG1        0.1232
@<TRIPOS>BOND
     1    53    52    1
     2    47    44    1
     3    52    43    1
     4    44    43   ar
     5    44    46   ar
     6    51    46    1
     7    43    45   ar
     8    46    49   ar
     9    29    28    1
    10    28    20    1
    11    45    34    1
    12    45    48   ar
    13    49    48   ar
    14    49    54    1
    15    35    34   ar
    16    35    30   ar
    17    34    33   ar
    18    15    13    1
    19    39    38    1
    20    48    50    1
    21    38    37    3
    22    37    30    1
    23    30    31   ar
    24    54    55    3
    25    33    40    1
    26    33    32   ar
    27    23    19    1
    28    40    41    3
    29    20    19   ar
    30    20    21   ar
    31    14    13    1
    32    41    42    1
    33    31    32   ar
    34    31    21    1
    35    32    36    1
    36    55    56    1
    37    13    16    1
    38    13     7    1
    39    19    18   ar
    40    21    22   ar
    41     7     6   ar
    42     7     4   ar
    43    18     4    1
    44    18    17   ar
    45     8     6    1
    46    22    17   ar
    47     6     3   ar
    48     4     2   ar
    49    17    24    1
    50    26    24    1
    51     3     9    1
    52     3     1   ar
    53     2     5    1
    54     2     1   ar
    55    24    27    1
    56    24    25    1
    57     1    10    1
    58    10    11    3
    59    11    12    1
