@<TRIPOS>MOLECULE
mol_data/opt/cam/geoms/mol2/4el.out
 18 18 0 0 0
SMALL
GASTEIGER

@<TRIPOS>ATOM
      1 C           0.0578   -0.0274    0.0003 C.ar    1  LIG1        0.0249
      2 C           1.4522   -0.0808   -0.0000 C.ar    1  LIG1       -0.0429
      3 C          -0.5630    1.2313    0.0002 C.ar    1  LIG1       -0.0429
      4 C           2.2174    1.0791   -0.0005 C.ar    1  LIG1       -0.0188
      5 H           1.9445   -1.0469    0.0001 H       1  LIG1        0.0631
      6 C           0.1885    2.3887   -0.0002 C.ar    1  LIG1       -0.0188
      7 C           1.5848    2.3212   -0.0006 C.ar    1  LIG1        0.1202
      8 H          -0.2803    3.3661   -0.0003 H       1  LIG1        0.0654
      9 H           3.2969    1.0017   -0.0007 H       1  LIG1        0.0654
     10 H          -1.6458    1.2878    0.0004 H       1  LIG1        0.0631
     11 C          -0.7217   -1.2278    0.0008 C.1     1  LIG1       -0.0697
     12 C          -1.3787   -2.2371    0.0011 C.1     1  LIG1       -0.1139
     13 H          -1.9601   -3.1299    0.0016 H       1  LIG1        0.1232
     14 O           2.2320    3.5137   -0.0010 O.3     1  LIG1       -0.4951
     15 C           3.6442    3.5074   -0.0013 C.3     1  LIG1        0.0788
     16 H           3.9521    4.5526   -0.0017 H       1  LIG1        0.0660
     17 H           4.0454    3.0143    0.8915 H       1  LIG1        0.0660
     18 H           4.0449    3.0139   -0.8942 H       1  LIG1        0.0660
@<TRIPOS>BOND
     1    18    15    1
     2    16    15    1
     3    15    14    1
     4    15    17    1
     5    14     7    1
     6     9     4    1
     7     7     4   ar
     8     7     6   ar
     9     4     2   ar
    10     8     6    1
    11     6     3   ar
    12     2     5    1
    13     2     1   ar
    14     3     1   ar
    15     3    10    1
    16     1    11    1
    17    11    12    3
    18    12    13    1
