@<TRIPOS>MOLECULE
mol_data/opt/cam/geoms/mol2/4el12lh6ff-4ld.out
 57 60 0 0 0
SMALL
GASTEIGER

@<TRIPOS>ATOM
      1 C           1.0171   -0.7570    0.3415 C.ar    1  LIG1        0.0256
      2 C           1.1999    0.0027   -0.8229 C.ar    1  LIG1       -0.0320
      3 C           1.6852   -0.3638    1.5121 C.ar    1  LIG1       -0.0428
      4 C           2.0319    1.1329   -0.8585 C.ar    1  LIG1        0.0637
      5 H           0.6704   -0.2799   -1.7239 H       1  LIG1        0.0638
      6 C           2.5033    0.7603    1.5099 C.ar    1  LIG1       -0.0181
      7 C           2.6856    1.5179    0.3473 C.ar    1  LIG1        0.1309
      8 H           3.0031    1.0484    2.4259 H       1  LIG1        0.0655
      9 H           1.5574   -0.9387    2.4229 H       1  LIG1        0.0631
     10 C           0.1639   -1.9037    0.3333 C.1     1  LIG1       -0.0696
     11 C          -0.5562   -2.8765    0.3300 C.1     1  LIG1       -0.1139
     12 H          -1.1931   -3.7303    0.3278 H       1  LIG1        0.1232
     13 O           3.4732    2.6283    0.3094 O.3     1  LIG1       -0.4944
     14 C           4.1504    3.0516    1.4892 C.3     1  LIG1        0.0788
     15 H           4.6930    3.9520    1.2005 H       1  LIG1        0.0660
     16 H           3.4440    3.2926    2.2920 H       1  LIG1        0.0660
     17 H           4.8570    2.2900    1.8393 H       1  LIG1        0.0660
     18 C           2.1759    1.8507   -2.1180 C.ar    1  LIG1        0.1825
     19 C           1.7016    1.6329   -3.3972 C.ar    1  LIG1        0.1871
     20 C           2.1190    2.7222   -4.2250 C.ar    1  LIG1        0.1141
     21 C           2.8640    3.5567   -3.4159 C.ar    1  LIG1        0.1652
     22 O           2.8825    3.0187   -2.1442 O.2     1  LIG1       -0.4488
     23 O           0.9200    0.6031   -3.8522 O.3     1  LIG1       -0.4896
     24 C           1.6664   -0.4521   -4.4856 C.3     1  LIG1        0.0791
     25 H           0.9310   -1.1727   -4.8474 H       1  LIG1        0.0660
     26 H           2.2531   -0.0667   -5.3267 H       1  LIG1        0.0660
     27 H           2.3366   -0.9384   -3.7683 H       1  LIG1        0.0660
     28 N           1.8072    2.8221   -5.5807 N.pl3   1  LIG1       -0.3522
     29 H           0.9865    2.2692   -5.8054 H       1  LIG1        0.1425
     30 H           1.6856    3.7754   -5.9019 H       1  LIG1        0.1425
     31 C           4.0449    5.6173   -2.5322 C.ar    1  LIG1        0.2241
     32 C           3.5840    4.7961   -3.6113 C.ar    1  LIG1        0.0840
     33 C           3.8685    5.2662   -4.8971 C.ar    1  LIG1       -0.0022
     34 C           4.5153    6.4857   -5.1081 C.ar    1  LIG1        0.1437
     35 C           4.9058    7.2312   -3.9771 C.ar    1  LIG1        0.1196
     36 N           4.6607    6.7645   -2.7357 N.ar    1  LIG1       -0.2086
     37 H           3.6145    4.6802   -5.7730 H       1  LIG1        0.0663
     38 O           3.8794    5.2946   -1.2272 O.3     1  LIG1       -0.4919
     39 H           3.4908    4.4065   -1.1436 H       1  LIG1        0.2938
     40 O           4.6652    6.8821   -6.4029 O.3     1  LIG1       -0.5046
     41 H           5.4788    7.4151   -6.4629 H       1  LIG1        0.2922
     42 C           6.4900    9.0533   -4.9081 C.ar    1  LIG1        0.1294
     43 C           7.0024   10.3536   -4.8355 C.ar    1  LIG1       -0.0181
     44 C           5.5047    8.5990   -4.0015 C.ar    1  LIG1        0.0469
     45 C           6.5602   11.2277   -3.8508 C.ar    1  LIG1       -0.0409
     46 H           7.7546   10.6880   -5.5385 H       1  LIG1        0.0655
     47 C           5.0945    9.4940   -3.0054 C.ar    1  LIG1       -0.0315
     48 C           5.6022   10.7967   -2.9218 C.ar    1  LIG1        0.0526
     49 H           4.3722    9.1439   -2.2783 H       1  LIG1        0.0638
     50 H           6.9571   12.2353   -3.7967 H       1  LIG1        0.0631
     51 O           6.9336    8.1457   -5.8420 O.3     1  LIG1       -0.4944
     52 C           8.0381    8.4820   -6.6825 C.3     1  LIG1        0.0788
     53 H           8.2420    7.5876   -7.2715 H       1  LIG1        0.0660
     54 H           7.7946    9.3138   -7.3527 H       1  LIG1        0.0660
     55 H           8.9181    8.7353   -6.0828 H       1  LIG1        0.0660
     56 N           4.7792   12.4179   -1.0675 N.1     1  LIG1       -0.1909
     57 C           5.1449   11.6866   -1.8954 C.1     1  LIG1        0.0992
@<TRIPOS>BOND
     1    54    52    1
     2    53    52    1
     3    52    55    1
     4    52    51    1
     5    41    40    1
     6    40    34    1
     7    30    28    1
     8    51    42    1
     9    29    28    1
    10    37    33    1
    11    28    20    1
    12    46    43    1
    13    26    24    1
    14    34    33   ar
    15    34    35   ar
    16    42    43   ar
    17    42    44   ar
    18    33    32   ar
    19    25    24    1
    20    43    45   ar
    21    24    23    1
    22    24    27    1
    23    20    21   ar
    24    20    19   ar
    25    44    35    1
    26    44    47   ar
    27    35    36   ar
    28    23    19    1
    29    45    50    1
    30    45    48   ar
    31    32    21    1
    32    32    31   ar
    33    21    22   ar
    34    19    18   ar
    35    47    48   ar
    36    47    49    1
    37    48    57    1
    38    36    31   ar
    39    31    38    1
    40    22    18   ar
    41    18     4    1
    42    57    56    3
    43     5     2    1
    44    38    39    1
    45     4     2   ar
    46     4     7   ar
    47     2     1   ar
    48    13     7    1
    49    13    14    1
    50    12    11    1
    51    11    10    3
    52    10     1    1
    53     1     3   ar
    54     7     6   ar
    55    15    14    1
    56    14    17    1
    57    14    16    1
    58     6     3   ar
    59     6     8    1
    60     3     9    1
