@<TRIPOS>MOLECULE
mol_data/opt/cam/geoms/mol2/4fa13ee-13de-12hh-.out
 47 50 0 0 0
SMALL
GASTEIGER

@<TRIPOS>ATOM
      1 C          -0.0334   -0.0023   -0.7325 C.ar    1  LIG1        0.1175
      2 C           1.3294   -0.0441   -0.4640 C.ar    1  LIG1       -0.0110
      3 C          -0.7088    1.2162   -0.7779 C.ar    1  LIG1       -0.0201
      4 C           2.0351    1.1375   -0.2232 C.ar    1  LIG1        0.0030
      5 H           1.8506   -0.9952   -0.4410 H       1  LIG1        0.0661
      6 C          -0.0066    2.3868   -0.5397 C.ar    1  LIG1       -0.0577
      7 C           1.3540    2.3584   -0.2592 C.ar    1  LIG1       -0.0524
      8 H          -0.5299    3.3371   -0.5619 H       1  LIG1        0.0619
      9 H          -1.7707    1.2208   -0.9941 H       1  LIG1        0.0654
     10 O          -0.7585   -1.1260   -0.9719 O.3     1  LIG1       -0.5067
     11 H          -0.1840   -1.8981   -0.9062 H       1  LIG1        0.2921
     12 H           1.8751    3.2825   -0.0322 H       1  LIG1        0.0624
     13 C           3.4742    1.0986    0.0431 C.ar    1  LIG1        0.0639
     14 C           4.2911    0.1257    0.5994 C.ar    1  LIG1        0.0659
     15 C           5.6340    0.6354    0.6027 C.ar    1  LIG1        0.0673
     16 C           5.5912    1.8966    0.0380 C.ar    1  LIG1        0.0814
     17 N           4.2772    2.1654   -0.2671 N.ar    1  LIG1       -0.3510
     18 H           3.9838    2.9203   -0.8674 H       1  LIG1        0.1660
     19 C           3.9004   -1.1315    1.1312 C.1     1  LIG1       -0.0663
     20 C           3.5939   -2.2036    1.5862 C.1     1  LIG1       -0.1138
     21 H           3.3349   -3.1490    2.0038 H       1  LIG1        0.1232
     22 C           6.7750   -0.0140    1.1387 C.1     1  LIG1       -0.0662
     23 C           7.7417   -0.5639    1.5974 C.1     1  LIG1       -0.1138
     24 H           8.6083   -1.0528    1.9785 H       1  LIG1        0.1232
     25 C           6.6243    2.8836   -0.1937 C.ar    1  LIG1        0.0834
     26 C           7.9067    2.7880   -0.6984 C.ar    1  LIG1        0.0945
     27 C           8.4684    4.1112   -0.7360 C.ar    1  LIG1        0.0710
     28 C           7.4986    4.9744   -0.2438 C.ar    1  LIG1        0.1013
     29 N           6.4008    4.2127    0.0602 N.ar    1  LIG1       -0.3485
     30 H           5.5940    4.5892    0.5336 H       1  LIG1        0.1661
     31 N           9.0856    0.6843   -1.6056 N.1     1  LIG1       -0.1908
     32 C           8.5457    1.6181   -1.1864 C.1     1  LIG1        0.1026
     33 C           9.7494    4.4270   -1.2542 C.1     1  LIG1       -0.0661
     34 C          10.8423    4.6482   -1.7132 C.1     1  LIG1       -0.1138
     35 H          11.8050    4.8193   -2.1377 H       1  LIG1        0.1232
     36 C           7.4426    6.3929   -0.0047 C.ar    1  LIG1        0.1745
     37 C           8.3441    7.4209    0.0722 C.ar    1  LIG1        0.0934
     38 C           7.5833    8.5948    0.4064 C.ar    1  LIG1        0.0845
     39 C           6.2912    8.2018    0.5146 C.ar    1  LIG1        0.1151
     40 O           6.1768    6.8695    0.2646 O.2     1  LIG1       -0.4576
     41 H           5.3776    8.7297    0.7359 H       1  LIG1        0.1049
     42 N           9.7221    7.4537   -0.0350 N.pl3   1  LIG1       -0.3536
     43 H          10.1415    6.6313   -0.4507 H       1  LIG1        0.1425
     44 H          10.0493    8.3086   -0.4685 H       1  LIG1        0.1425
     45 N           8.1814    9.8568    0.5166 N.pl3   1  LIG1       -0.3541
     46 H           7.5253   10.5916    0.7464 H       1  LIG1        0.1425
     47 H           8.9383    9.8541    1.1924 H       1  LIG1        0.1425
@<TRIPOS>BOND
     1    35    34    1
     2    34    33    3
     3    31    32    3
     4    33    27    1
     5    32    26    1
     6     9     3    1
     7    10    11    1
     8    10     1    1
     9    18    17    1
    10     3     1   ar
    11     3     6   ar
    12    27    26   ar
    13    27    28   ar
    14     1     2   ar
    15    26    25   ar
    16     8     6    1
    17     6     7   ar
    18    44    42    1
    19     2     5    1
    20     2     4   ar
    21    43    42    1
    22    17    16   ar
    23    17    13   ar
    24     7     4   ar
    25     7    12    1
    26    28    36    1
    27    28    29   ar
    28     4    13    1
    29    25    16    1
    30    25    29   ar
    31    42    37    1
    32    36    37   ar
    33    36    40   ar
    34    16    15   ar
    35    13    14   ar
    36    29    30    1
    37    37    38   ar
    38    40    39   ar
    39    38    39   ar
    40    38    45    1
    41    39    41    1
    42    45    46    1
    43    45    47    1
    44    14    15   ar
    45    14    19    1
    46    15    22    1
    47    19    20    3
    48    22    23    3
    49    20    21    1
    50    23    24    1
