@<TRIPOS>MOLECULE
mol_data/opt/cam/geoms/mol2/4fa4fa4fa.out
 35 37 0 0 0
SMALL
GASTEIGER

@<TRIPOS>ATOM
      1 C          -0.1851    0.3830    0.6097 C.ar    1  LIG1        0.1174
      2 C           1.2007    0.2879    0.6526 C.ar    1  LIG1       -0.0124
      3 C          -0.8050    1.3232   -0.2092 C.ar    1  LIG1       -0.0201
      4 C           1.9951    1.1333   -0.1260 C.ar    1  LIG1       -0.0110
      5 H           1.6710   -0.4526    1.2908 H       1  LIG1        0.0660
      6 C          -0.0184    2.1596   -0.9858 C.ar    1  LIG1       -0.0577
      7 C           1.3683    2.0711   -0.9509 C.ar    1  LIG1       -0.0537
      8 H          -0.4936    2.8880   -1.6352 H       1  LIG1        0.0619
      9 H          -1.8874    1.3758   -0.2259 H       1  LIG1        0.0654
     10 O          -0.9890   -0.4228    1.3594 O.3     1  LIG1       -0.5067
     11 H          -0.4389   -1.0354    1.8613 H       1  LIG1        0.2921
     12 H           1.9686    2.7162   -1.5824 H       1  LIG1        0.0624
     13 C           4.1997   -0.1238   -0.0238 C.ar    1  LIG1        0.1251
     14 C           5.5887   -0.1280    0.0136 C.ar    1  LIG1       -0.0117
     15 C           3.4776    1.0793   -0.0610 C.ar    1  LIG1        0.0237
     16 C           6.3182    1.0607    0.0182 C.ar    1  LIG1       -0.0109
     17 H           6.1136   -1.0774    0.0295 H       1  LIG1        0.0660
     18 C           4.2235    2.2594   -0.0563 C.ar    1  LIG1       -0.0500
     19 C           5.6091    2.2630   -0.0185 C.ar    1  LIG1       -0.0531
     20 H           3.6908    3.2043   -0.0719 H       1  LIG1        0.0625
     21 O           3.5048   -1.2991   -0.0302 O.3     1  LIG1       -0.5061
     22 H           4.1336   -2.0282   -0.0847 H       1  LIG1        0.2922
     23 H           6.1448    3.2055   -0.0334 H       1  LIG1        0.0624
     24 C           8.6115    0.1814   -0.6171 C.ar    1  LIG1        0.1245
     25 C           9.9987    0.2454   -0.5211 C.ar    1  LIG1       -0.0196
     26 C           7.8003    1.0705    0.1068 C.ar    1  LIG1        0.0237
     27 C          10.6067    1.1882    0.2960 C.ar    1  LIG1       -0.0583
     28 H          10.6036   -0.4508   -1.0973 H       1  LIG1        0.0654
     29 C           8.4426    2.0043    0.9238 C.ar    1  LIG1       -0.0505
     30 C           9.8256    2.0733    1.0260 C.ar    1  LIG1       -0.0610
     31 H           7.8286    2.6823    1.5070 H       1  LIG1        0.0625
     32 H          11.6891    1.2237    0.3613 H       1  LIG1        0.0619
     33 O           8.0072   -0.7384   -1.4237 O.3     1  LIG1       -0.5062
     34 H           8.6861   -1.2259   -1.9047 H       1  LIG1        0.2922
     35 H          10.2867    2.8087    1.6758 H       1  LIG1        0.0618
@<TRIPOS>BOND
     1    34    33    1
     2     8     6    1
     3    12     7    1
     4    33    24    1
     5    28    25    1
     6     6     7   ar
     7     6     3   ar
     8     7     4   ar
     9    24    25   ar
    10    24    26   ar
    11    25    27   ar
    12     9     3    1
    13     3     1   ar
    14     4    15    1
    15     4     2   ar
    16    22    21    1
    17    20    18    1
    18    15    18   ar
    19    15    13   ar
    20    18    19   ar
    21    23    19    1
    22    21    13    1
    23    13    14   ar
    24    19    16   ar
    25    14    16   ar
    26    14    17    1
    27    16    26    1
    28    26    29   ar
    29    27    32    1
    30    27    30   ar
    31     1     2   ar
    32     1    10    1
    33     2     5    1
    34    29    30   ar
    35    29    31    1
    36    30    35    1
    37    10    11    1
