@<TRIPOS>MOLECULE
mol_data/opt/cam/geoms/mol2/4fa4fa-4fa-4fa.out
 46 49 0 0 0
SMALL
GASTEIGER

@<TRIPOS>ATOM
      1 C          -0.2449    0.4828    0.7432 C.ar    1  LIG1        0.1174
      2 C           1.1453    0.4582    0.7624 C.ar    1  LIG1       -0.0124
      3 C          -0.9221    1.2590   -0.1969 C.ar    1  LIG1       -0.0201
      4 C           1.8831    1.2001   -0.1641 C.ar    1  LIG1       -0.0110
      5 H           1.6675   -0.1299    1.5127 H       1  LIG1        0.0660
      6 C          -0.1938    1.9962   -1.1146 C.ar    1  LIG1       -0.0577
      7 C           1.1990    1.9733   -1.1084 C.ar    1  LIG1       -0.0537
      8 H          -0.7165    2.5914   -1.8563 H       1  LIG1        0.0619
      9 H          -2.0058    1.2657   -0.1886 H       1  LIG1        0.0654
     10 O          -0.9980   -0.2229    1.6262 O.3     1  LIG1       -0.5067
     11 H          -0.4210   -0.7138    2.2231 H       1  LIG1        0.2921
     12 H           1.7543    2.5184   -1.8648 H       1  LIG1        0.0624
     13 C           4.1345    2.3269   -0.1298 C.ar    1  LIG1        0.1251
     14 C           5.5260    2.2652   -0.1005 C.ar    1  LIG1       -0.0117
     15 C           3.3672    1.1522   -0.1383 C.ar    1  LIG1        0.0237
     16 C           6.1932    1.0386   -0.0741 C.ar    1  LIG1       -0.0109
     17 H           6.0737    3.2011   -0.1381 H       1  LIG1        0.0660
     18 C           4.0477   -0.0670   -0.1039 C.ar    1  LIG1       -0.0500
     19 C           5.4303   -0.1346   -0.0709 C.ar    1  LIG1       -0.0531
     20 H           3.4656   -0.9833   -0.1155 H       1  LIG1        0.0625
     21 O           3.5818    3.5663   -0.1412 O.3     1  LIG1       -0.5061
     22 H           2.6189    3.4855   -0.0907 H       1  LIG1        0.2922
     23 H           5.9287   -1.0966   -0.0342 H       1  LIG1        0.0624
     24 C           8.4383    1.7372    0.8376 C.ar    1  LIG1        0.1251
     25 C           9.8262    1.6483    0.8388 C.ar    1  LIG1       -0.0117
     26 C           7.6755    0.9721   -0.0570 C.ar    1  LIG1        0.0237
     27 C          10.4975    0.8016   -0.0407 C.ar    1  LIG1       -0.0109
     28 H          10.3694    2.2398    1.5670 H       1  LIG1        0.0660
     29 C           8.3613    0.1140   -0.9212 C.ar    1  LIG1       -0.0500
     30 C           9.7420    0.0227   -0.9242 C.ar    1  LIG1       -0.0531
     31 H           7.7846   -0.4771   -1.6257 H       1  LIG1        0.0625
     32 O           7.8822    2.5753    1.7540 O.3     1  LIG1       -0.5061
     33 H           6.9210    2.4746    1.7338 H       1  LIG1        0.2922
     34 H          10.2397   -0.6470   -1.6131 H       1  LIG1        0.0624
     35 C          12.7210   -0.4111   -0.1375 C.ar    1  LIG1        0.1245
     36 C          14.1128   -0.3871   -0.1194 C.ar    1  LIG1       -0.0196
     37 C          11.9827    0.7798   -0.0433 C.ar    1  LIG1        0.0237
     38 C          14.7963    0.8160   -0.0100 C.ar    1  LIG1       -0.0583
     39 H          14.6611   -1.3238   -0.1875 H       1  LIG1        0.0654
     40 C          12.6993    1.9737    0.0643 C.ar    1  LIG1       -0.0505
     41 C          14.0876    2.0058    0.0817 C.ar    1  LIG1       -0.0610
     42 H          12.1410    2.9024    0.1183 H       1  LIG1        0.0625
     43 H          15.8813    0.8177    0.0002 H       1  LIG1        0.0619
     44 O          12.0407   -1.5888   -0.2319 O.3     1  LIG1       -0.5062
     45 H          12.6740   -2.3158   -0.2436 H       1  LIG1        0.2922
     46 H          14.6087    2.9534    0.1599 H       1  LIG1        0.0618
@<TRIPOS>BOND
     1    12     7    1
     2     8     6    1
     3    31    29    1
     4    34    30    1
     5     6     7   ar
     6     6     3   ar
     7     7     4   ar
     8    30    29   ar
     9    30    27   ar
    10    29    26   ar
    11    45    44    1
    12    44    35    1
    13     3     9    1
    14     3     1   ar
    15    39    36    1
    16     4    15    1
    17     4     2   ar
    18    21    13    1
    19    21    22    1
    20    15    13   ar
    21    15    18   ar
    22    17    14    1
    23    35    36   ar
    24    35    37   ar
    25    13    14   ar
    26    36    38   ar
    27    20    18    1
    28    18    19   ar
    29    14    16   ar
    30    16    19   ar
    31    16    26    1
    32    19    23    1
    33    26    24   ar
    34    37    27    1
    35    37    40   ar
    36    27    25   ar
    37    38    43    1
    38    38    41   ar
    39    40    41   ar
    40    40    42    1
    41    41    46    1
    42     1     2   ar
    43     1    10    1
    44     2     5    1
    45    24    25   ar
    46    24    32    1
    47    25    28    1
    48    10    11    1
    49    33    32    1
