@<TRIPOS>MOLECULE
mol_data/opt/cam/geoms/mol2/4fa4fa.out
 24 25 0 0 0
SMALL
GASTEIGER

@<TRIPOS>ATOM
      1 C          -0.0431    0.1464    0.3528 C.ar    1  LIG1        0.1174
      2 C           1.3451    0.0858    0.3822 C.ar    1  LIG1       -0.0124
      3 C          -0.6917    1.2922   -0.1003 C.ar    1  LIG1       -0.0201
      4 C           2.1120    1.1730   -0.0433 C.ar    1  LIG1       -0.0110
      5 H           1.8382   -0.8149    0.7323 H       1  LIG1        0.0660
      6 C           0.0680    2.3700   -0.5267 C.ar    1  LIG1       -0.0577
      7 C           1.4570    2.3185   -0.5021 C.ar    1  LIG1       -0.0537
      8 H          -0.4296    3.2631   -0.8911 H       1  LIG1        0.0619
      9 H          -1.7753    1.3133   -0.1150 H       1  LIG1        0.0654
     10 O          -0.8216   -0.8935    0.7644 O.3     1  LIG1       -0.5067
     11 H          -0.2533   -1.6241    1.0348 H       1  LIG1        0.2921
     12 H           2.0375    3.1612   -0.8603 H       1  LIG1        0.0624
     13 C           4.3546    0.0320   -0.3701 C.ar    1  LIG1        0.1245
     14 C           5.7452    0.0625   -0.3148 C.ar    1  LIG1       -0.0196
     15 C           3.5964    1.1471    0.0219 C.ar    1  LIG1        0.0237
     16 C           6.4088    1.1963    0.1330 C.ar    1  LIG1       -0.0583
     17 H           6.3087   -0.8125   -0.6302 H       1  LIG1        0.0654
     18 C           4.2935    2.2707    0.4717 C.ar    1  LIG1       -0.0505
     19 C           5.6804    2.3085    0.5313 C.ar    1  LIG1       -0.0610
     20 H           3.7196    3.1314    0.7987 H       1  LIG1        0.0625
     21 H           7.4930    1.2033    0.1721 H       1  LIG1        0.0619
     22 O           3.6955   -1.0766   -0.8157 O.3     1  LIG1       -0.5062
     23 H           4.3434   -1.7278   -1.1091 H       1  LIG1        0.2922
     24 H           6.1852    3.1979    0.8921 H       1  LIG1        0.0618
@<TRIPOS>BOND
     1    23    22    1
     2     8     6    1
     3    12     7    1
     4    22    13    1
     5    17    14    1
     6     6     7   ar
     7     6     3   ar
     8     7     4   ar
     9    13    14   ar
    10    13    15   ar
    11    14    16   ar
    12     9     3    1
    13     3     1   ar
    14     4    15    1
    15     4     2   ar
    16    15    18   ar
    17    16    21    1
    18    16    19   ar
    19     1     2   ar
    20     1    10    1
    21     2     5    1
    22    18    19   ar
    23    18    20    1
    24    19    24    1
    25    10    11    1
