@<TRIPOS>MOLECULE
mol_data/opt/cam/geoms/mol2/4fa4fa-4fa4fa-.out
 46 49 0 0 0
SMALL
GASTEIGER

@<TRIPOS>ATOM
      1 C          -0.2656    0.2373    0.3786 C.ar    1  LIG1        0.1174
      2 C           1.1236    0.1875    0.4084 C.ar    1  LIG1       -0.0124
      3 C          -0.9191    1.3309   -0.1884 C.ar    1  LIG1       -0.0201
      4 C           1.8856    1.2245   -0.1373 C.ar    1  LIG1       -0.0110
      5 H           1.6270   -0.6565    0.8728 H       1  LIG1        0.0660
      6 C          -0.1671    2.3605   -0.7280 C.ar    1  LIG1       -0.0577
      7 C           1.2249    2.3175   -0.7090 C.ar    1  LIG1       -0.0537
      8 H          -0.6707    3.2079   -1.1818 H       1  LIG1        0.0619
      9 H          -2.0026    1.3491   -0.1952 H       1  LIG1        0.0654
     10 O          -1.0405   -0.7501    0.8991 O.3     1  LIG1       -0.5067
     11 H          -0.4769   -1.4435    1.2622 H       1  LIG1        0.2921
     12 H           1.7988    3.1103   -1.1775 H       1  LIG1        0.0624
     13 C           4.1470    2.2169    0.3554 C.ar    1  LIG1        0.1251
     14 C           5.5342    2.1220    0.3807 C.ar    1  LIG1       -0.0117
     15 C           3.3681    1.1473   -0.1104 C.ar    1  LIG1        0.0237
     16 C           6.1876    0.9698   -0.0519 C.ar    1  LIG1       -0.0109
     17 H           6.0908    2.9645    0.7751 H       1  LIG1        0.0660
     18 C           4.0359   -0.0075   -0.5254 C.ar    1  LIG1       -0.0500
     19 C           5.4162   -0.1069   -0.5030 C.ar    1  LIG1       -0.0531
     20 H           3.4461   -0.8382   -0.9004 H       1  LIG1        0.0625
     21 O           3.6066    3.3745    0.8211 O.3     1  LIG1       -0.5061
     22 H           2.6438    3.2856    0.8470 H       1  LIG1        0.2922
     23 H           5.9002   -1.0136   -0.8410 H       1  LIG1        0.0624
     24 C           8.4090   -0.1900    0.3494 C.ar    1  LIG1        0.1251
     25 C           9.7990   -0.1731    0.3434 C.ar    1  LIG1       -0.0117
     26 C           7.6715    0.9337   -0.0623 C.ar    1  LIG1        0.0237
     27 C          10.5124    0.9486   -0.0807 C.ar    1  LIG1       -0.0109
     28 H          10.3431   -1.0462    0.6952 H       1  LIG1        0.0660
     29 C           8.3984    2.0473   -0.4817 C.ar    1  LIG1       -0.0500
     30 C           9.7873    2.0693   -0.4974 C.ar    1  LIG1       -0.0531
     31 H           7.8509    2.9149   -0.8343 H       1  LIG1        0.0625
     32 O           7.7267   -1.2864    0.7785 O.3     1  LIG1       -0.5061
     33 H           8.3568   -1.9564    1.0688 H       1  LIG1        0.2922
     34 H          10.3076    2.9403   -0.8821 H       1  LIG1        0.0624
     35 C          12.7421    1.9682    0.4856 C.ar    1  LIG1        0.1245
     36 C          14.1343    1.9334    0.4663 C.ar    1  LIG1       -0.0196
     37 C          11.9968    0.9295   -0.0957 C.ar    1  LIG1        0.0237
     38 C          14.7968    0.8699   -0.1254 C.ar    1  LIG1       -0.0583
     39 H          14.6732    2.7515    0.9306 H       1  LIG1        0.0654
     40 C          12.6912   -0.1362   -0.6743 C.ar    1  LIG1       -0.0505
     41 C          14.0772   -0.1749   -0.6973 C.ar    1  LIG1       -0.0610
     42 H          12.1186   -0.9358   -1.1341 H       1  LIG1        0.0625
     43 H          15.8819    0.8559   -0.1370 H       1  LIG1        0.0619
     44 O          12.1638    3.0331    1.1009 O.3     1  LIG1       -0.5062
     45 H          11.2064    2.8996    1.1331 H       1  LIG1        0.2922
     46 H          14.5915   -1.0080   -1.1635 H       1  LIG1        0.0618
@<TRIPOS>BOND
     1     8     6    1
     2    12     7    1
     3    46    41    1
     4    42    40    1
     5    20    18    1
     6    34    30    1
     7    23    19    1
     8    31    29    1
     9     6     7   ar
    10     6     3   ar
    11     7     4   ar
    12    41    40   ar
    13    41    38   ar
    14    40    37   ar
    15    18    19   ar
    16    18    15   ar
    17    19    16   ar
    18    30    29   ar
    19    30    27   ar
    20    29    26   ar
    21     9     3    1
    22     3     1   ar
    23     4    15    1
    24     4     2   ar
    25    43    38    1
    26    38    36   ar
    27    15    13   ar
    28    37    27    1
    29    37    35   ar
    30    27    25   ar
    31    26    16    1
    32    26    24   ar
    33    16    14   ar
    34    25    24   ar
    35    25    28    1
    36    24    32    1
    37    13    14   ar
    38    13    21    1
    39     1     2   ar
    40     1    10    1
    41    14    17    1
    42     2     5    1
    43    36    35   ar
    44    36    39    1
    45    35    44    1
    46    32    33    1
    47    21    22    1
    48    10    11    1
    49    44    45    1
