@<TRIPOS>MOLECULE
mol_data/opt/cam/geoms/mol2/4fa4fa-4fa4fa.out
 46 49 0 0 0
SMALL
GASTEIGER

@<TRIPOS>ATOM
      1 C          -0.2813    0.2793    0.3355 C.ar    1  LIG1        0.1174
      2 C           1.1068    0.2111    0.3738 C.ar    1  LIG1       -0.0124
      3 C          -0.9172    1.4006   -0.1959 C.ar    1  LIG1       -0.0201
      4 C           1.8864    1.2572   -0.1281 C.ar    1  LIG1       -0.0110
      5 H           1.5963   -0.6553    0.8110 H       1  LIG1        0.0660
      6 C          -0.1481    2.4395   -0.6922 C.ar    1  LIG1       -0.0577
      7 C           1.2430    2.3782   -0.6647 C.ar    1  LIG1       -0.0537
      8 H          -0.6377    3.3091   -1.1187 H       1  LIG1        0.0619
      9 H          -2.0004    1.4327   -0.2100 H       1  LIG1        0.0654
     10 O          -1.0720   -0.7173    0.8145 O.3     1  LIG1       -0.5067
     11 H          -0.5185   -1.4296    1.1558 H       1  LIG1        0.2921
     12 H           1.8303    3.1802   -1.0997 H       1  LIG1        0.0624
     13 C           4.1576    2.2030    0.4115 C.ar    1  LIG1        0.1251
     14 C           5.5430    2.0878    0.4446 C.ar    1  LIG1       -0.0117
     15 C           3.3673    1.1598   -0.0929 C.ar    1  LIG1        0.0237
     16 C           6.1852    0.9411   -0.0189 C.ar    1  LIG1       -0.0109
     17 H           6.1082    2.9093    0.8697 H       1  LIG1        0.0660
     18 C           4.0231    0.0092   -0.5386 C.ar    1  LIG1       -0.0500
     19 C           5.4015   -0.1098   -0.5092 C.ar    1  LIG1       -0.0531
     20 H           3.4249   -0.8014   -0.9435 H       1  LIG1        0.0625
     21 O           3.6289    3.3537    0.9099 O.3     1  LIG1       -0.5061
     22 H           2.6653    3.2743    0.9306 H       1  LIG1        0.2922
     23 H           5.8762   -1.0123   -0.8704 H       1  LIG1        0.0624
     24 C           8.3871   -0.2648    0.3493 C.ar    1  LIG1        0.1251
     25 C           9.7766   -0.2715    0.3524 C.ar    1  LIG1       -0.0117
     26 C           7.6682    0.8839   -0.0167 C.ar    1  LIG1        0.0237
     27 C          10.5087    0.8586   -0.0110 C.ar    1  LIG1       -0.0109
     28 H          10.2994   -1.1769    0.6428 H       1  LIG1        0.0660
     29 C           8.4161    2.0043   -0.3830 C.ar    1  LIG1       -0.0500
     30 C           9.8022    2.0036   -0.3851 C.ar    1  LIG1       -0.0531
     31 H           7.8853    2.8955   -0.7008 H       1  LIG1        0.0625
     32 O           7.6880   -1.3746    0.7247 O.3     1  LIG1       -0.5061
     33 H           8.3144   -2.0657    0.9696 H       1  LIG1        0.2922
     34 H          10.3398    2.8884   -0.7070 H       1  LIG1        0.0624
     35 C          12.7798   -0.1950   -0.4226 C.ar    1  LIG1        0.1245
     36 C          14.1694   -0.1207   -0.3891 C.ar    1  LIG1       -0.0196
     37 C          11.9928    0.8773    0.0283 C.ar    1  LIG1        0.0237
     38 C          14.8039    1.0148    0.0946 C.ar    1  LIG1       -0.0583
     39 H          14.7549   -0.9630   -0.7502 H       1  LIG1        0.0654
     40 C          12.6616    2.0039    0.5134 C.ar    1  LIG1       -0.0505
     41 C          14.0472    2.0849    0.5514 C.ar    1  LIG1       -0.0610
     42 H          12.0668    2.8309    0.8865 H       1  LIG1        0.0625
     43 H          15.8879    1.0560    0.1159 H       1  LIG1        0.0619
     44 O          12.1498   -1.3057   -0.9037 O.3     1  LIG1       -0.5062
     45 H          12.8134   -1.9206   -1.2375 H       1  LIG1        0.2922
     46 H          14.5293    2.9747    0.9408 H       1  LIG1        0.0618
@<TRIPOS>BOND
     1    45    44    1
     2     8     6    1
     3    12     7    1
     4    20    18    1
     5    44    35    1
     6    23    19    1
     7    39    36    1
     8    34    30    1
     9    31    29    1
    10     6     7   ar
    11     6     3   ar
    12     7     4   ar
    13    18    19   ar
    14    18    15   ar
    15    19    16   ar
    16    35    36   ar
    17    35    37   ar
    18    36    38   ar
    19    30    29   ar
    20    30    27   ar
    21    29    26   ar
    22     9     3    1
    23     3     1   ar
    24     4    15    1
    25     4     2   ar
    26    15    13   ar
    27    16    26    1
    28    16    14   ar
    29    26    24   ar
    30    27    37    1
    31    27    25   ar
    32    37    40   ar
    33    38    43    1
    34    38    41   ar
    35     1     2   ar
    36     1    10    1
    37    24    25   ar
    38    24    32    1
    39    25    28    1
    40     2     5    1
    41    13    14   ar
    42    13    21    1
    43    14    17    1
    44    40    41   ar
    45    40    42    1
    46    41    46    1
    47    32    33    1
    48    10    11    1
    49    21    22    1
