@<TRIPOS>MOLECULE
mol_data/opt/cam/geoms/mol2/4fa4fa4fa4fa.out
 46 49 0 0 0
SMALL
GASTEIGER

@<TRIPOS>ATOM
      1 C          -0.3058    0.7352    0.7925 C.ar    1  LIG1        0.1174
      2 C           1.0774    0.6144    0.8519 C.ar    1  LIG1       -0.0124
      3 C          -0.9163    1.3579   -0.2929 C.ar    1  LIG1       -0.0201
      4 C           1.8791    1.1145   -0.1772 C.ar    1  LIG1       -0.0110
      5 H           1.5395    0.1216    1.7006 H       1  LIG1        0.0660
      6 C          -0.1227    1.8505   -1.3171 C.ar    1  LIG1       -0.0577
      7 C           1.2613    1.7331   -1.2676 C.ar    1  LIG1       -0.0537
      8 H          -0.5905    2.3277   -2.1725 H       1  LIG1        0.0619
      9 H          -1.9970    1.4375   -0.3160 H       1  LIG1        0.0654
     10 O          -1.1158    0.2619    1.7815 O.3     1  LIG1       -0.5067
     11 H          -0.5718   -0.1602    2.4566 H       1  LIG1        0.2921
     12 H           1.8662    2.1022   -2.0881 H       1  LIG1        0.0624
     13 C           4.0500   -0.1023    0.3317 C.ar    1  LIG1        0.1251
     14 C           5.4388   -0.1402    0.3521 C.ar    1  LIG1       -0.0117
     15 C           3.3605    1.0365   -0.1131 C.ar    1  LIG1        0.0237
     16 C           6.2014    0.9508   -0.0646 C.ar    1  LIG1       -0.0109
     17 H           5.9376   -1.0424    0.6901 H       1  LIG1        0.0660
     18 C           4.1389    2.1192   -0.5271 C.ar    1  LIG1       -0.0500
     19 C           5.5243    2.0891   -0.5086 C.ar    1  LIG1       -0.0531
     20 H           3.6324    3.0173   -0.8644 H       1  LIG1        0.0625
     21 O           3.3235   -1.1833    0.7423 O.3     1  LIG1       -0.5061
     22 H           3.9317   -1.9060    0.9367 H       1  LIG1        0.2922
     23 H           6.0850    2.9492   -0.8569 H       1  LIG1        0.0624
     24 C           8.4576   -0.1746   -0.3651 C.ar    1  LIG1        0.1251
     25 C           9.8455   -0.1314   -0.3191 C.ar    1  LIG1       -0.0117
     26 C           7.6836    0.9396   -0.0040 C.ar    1  LIG1        0.0237
     27 C          10.5227    1.0169    0.0906 C.ar    1  LIG1       -0.0109
     28 H          10.4113   -1.0075   -0.6184 H       1  LIG1        0.0660
     29 C           8.3777    2.0804    0.4042 C.ar    1  LIG1       -0.0500
     30 C           9.7619    2.1300    0.4541 C.ar    1  LIG1       -0.0531
     31 H           7.8051    2.9522    0.7021 H       1  LIG1        0.0625
     32 O           7.8143   -1.3088   -0.7707 O.3     1  LIG1       -0.5061
     33 H           8.4735   -1.9489   -1.0636 H       1  LIG1        0.2922
     34 H          10.2563    3.0443    0.7622 H       1  LIG1        0.0624
     35 C          12.8465    0.5061   -0.7880 C.ar    1  LIG1        0.1245
     36 C          14.2302    0.5957   -0.6668 C.ar    1  LIG1       -0.0196
     37 C          12.0034    1.0607    0.1887 C.ar    1  LIG1        0.0237
     38 C          14.8030    1.2318    0.4257 C.ar    1  LIG1       -0.0583
     39 H          14.8603    0.1636   -1.4407 H       1  LIG1        0.0654
     40 C          12.6106    1.6901    1.2783 C.ar    1  LIG1       -0.0505
     41 C          13.9900    1.7814    1.4073 C.ar    1  LIG1       -0.0610
     42 H          11.9723    2.1031    2.0521 H       1  LIG1        0.0625
     43 H          15.8833    1.2912    0.5065 H       1  LIG1        0.0619
     44 O          12.2759   -0.1124   -1.8621 O.3     1  LIG1       -0.5062
     45 H          12.9708   -0.3751   -2.4769 H       1  LIG1        0.2922
     46 H          14.4239    2.2730    2.2709 H       1  LIG1        0.0618
@<TRIPOS>BOND
     1    45    44    1
     2     8     6    1
     3    12     7    1
     4    44    35    1
     5    39    36    1
     6     6     7   ar
     7     6     3   ar
     8     7     4   ar
     9    33    32    1
    10    20    18    1
    11    23    19    1
    12    35    36   ar
    13    35    37   ar
    14    32    24    1
    15    36    38   ar
    16    28    25    1
    17    18    19   ar
    18    18    15   ar
    19    19    16   ar
    20    24    25   ar
    21    24    26   ar
    22    25    27   ar
    23     9     3    1
    24     3     1   ar
    25     4    15    1
    26     4     2   ar
    27    15    13   ar
    28    16    26    1
    29    16    14   ar
    30    26    29   ar
    31    27    37    1
    32    27    30   ar
    33    37    40   ar
    34    13    14   ar
    35    13    21    1
    36    14    17    1
    37    29    30   ar
    38    29    31    1
    39    38    43    1
    40    38    41   ar
    41    30    34    1
    42    21    22    1
    43     1     2   ar
    44     1    10    1
    45     2     5    1
    46    40    41   ar
    47    40    42    1
    48    41    46    1
    49    10    11    1
