@<TRIPOS>MOLECULE
mol_data/opt/cam/geoms/mol2/4fa4fa4fa-4fa-.out
 46 49 0 0 0
SMALL
GASTEIGER

@<TRIPOS>ATOM
      1 C          -0.2699    0.0407    0.0092 C.ar    1  LIG1        0.1174
      2 C           1.1181   -0.0149    0.0538 C.ar    1  LIG1       -0.0124
      3 C          -0.9242    1.2614   -0.1385 C.ar    1  LIG1       -0.0201
      4 C           1.8775    1.1530   -0.0489 C.ar    1  LIG1       -0.0110
      5 H           1.6155   -0.9715    0.1736 H       1  LIG1        0.0660
      6 C          -0.1716    2.4208   -0.2358 C.ar    1  LIG1       -0.0577
      7 C           1.2171    2.3756   -0.1920 C.ar    1  LIG1       -0.0537
      8 H          -0.6746    3.3767   -0.3410 H       1  LIG1        0.0619
      9 H          -2.0074    1.2777   -0.1682 H       1  LIG1        0.0654
     10 O          -1.0429   -1.0765    0.1007 O.3     1  LIG1       -0.5067
     11 H          -0.4743   -1.8467    0.2157 H       1  LIG1        0.2921
     12 H           1.7912    3.2938   -0.2467 H       1  LIG1        0.0624
     13 C           4.1086    0.3065    0.8244 C.ar    1  LIG1        0.1251
     14 C           5.4984    0.3247    0.8041 C.ar    1  LIG1       -0.0117
     15 C           3.3621    1.1135   -0.0520 C.ar    1  LIG1        0.0237
     16 C           6.2031    1.1305   -0.0910 C.ar    1  LIG1       -0.0109
     17 H           6.0484   -0.2888    1.5136 H       1  LIG1        0.0660
     18 C           4.0813    1.9112   -0.9414 C.ar    1  LIG1       -0.0500
     19 C           5.4701    1.9302   -0.9730 C.ar    1  LIG1       -0.0531
     20 H           3.5274    2.5163   -1.6512 H       1  LIG1        0.0625
     21 O           3.4354   -0.4784    1.7094 O.3     1  LIG1       -0.5061
     22 H           4.0697   -0.9227    2.2843 H       1  LIG1        0.2922
     23 H           5.9830    2.5274   -1.7199 H       1  LIG1        0.0624
     24 C           8.4278    2.3066   -0.0602 C.ar    1  LIG1        0.1251
     25 C           9.8207    2.2761   -0.0663 C.ar    1  LIG1       -0.0117
     26 C           7.6869    1.1156   -0.1018 C.ar    1  LIG1        0.0237
     27 C          10.5146    1.0653   -0.1088 C.ar    1  LIG1       -0.0109
     28 H          10.3468    3.2251   -0.0739 H       1  LIG1        0.0660
     29 C           8.3949   -0.0880   -0.1362 C.ar    1  LIG1       -0.0500
     30 C           9.7791   -0.1245   -0.1384 C.ar    1  LIG1       -0.0531
     31 H           7.8332   -1.0163   -0.1749 H       1  LIG1        0.0625
     32 O           7.8475    3.5317   -0.0044 O.3     1  LIG1       -0.5061
     33 H           6.8889    3.4268    0.0739 H       1  LIG1        0.2922
     34 H          10.2999   -1.0752   -0.1562 H       1  LIG1        0.0624
     35 C          12.7587    1.7576    0.8047 C.ar    1  LIG1        0.1245
     36 C          14.1502    1.7068    0.7729 C.ar    1  LIG1       -0.0196
     37 C          11.9994    1.0335   -0.1285 C.ar    1  LIG1        0.0237
     38 C          14.7982    0.9378   -0.1803 C.ar    1  LIG1       -0.0583
     39 H          14.7000    2.2759    1.5140 H       1  LIG1        0.0654
     40 C          12.6790    0.2563   -1.0702 C.ar    1  LIG1       -0.0505
     41 C          14.0641    0.2041   -1.1074 C.ar    1  LIG1       -0.0610
     42 H          12.0954   -0.2988   -1.7980 H       1  LIG1        0.0625
     43 H          15.8829    0.9091   -0.1970 H       1  LIG1        0.0619
     44 O          12.1966    2.5181    1.7813 O.3     1  LIG1       -0.5062
     45 H          11.2365    2.4062    1.7594 H       1  LIG1        0.2922
     46 H          14.5667   -0.3982   -1.8561 H       1  LIG1        0.0618
@<TRIPOS>BOND
     1    46    41    1
     2    42    40    1
     3    23    19    1
     4    20    18    1
     5    41    40   ar
     6    41    38   ar
     7    40    37   ar
     8    19    18   ar
     9    19    16   ar
    10    18    15   ar
    11     8     6    1
    12    12     7    1
    13     6     7   ar
    14     6     3   ar
    15    43    38    1
    16     7     4   ar
    17    38    36   ar
    18    31    29    1
    19     9     3    1
    20    34    30    1
    21     3     1   ar
    22    30    29   ar
    23    30    27   ar
    24    29    26   ar
    25    37    27    1
    26    37    35   ar
    27    27    25   ar
    28    26    16    1
    29    26    24   ar
    30    16    14   ar
    31    28    25    1
    32    25    24   ar
    33    24    32    1
    34    15     4    1
    35    15    13   ar
    36     4     2   ar
    37    32    33    1
    38     1     2   ar
    39     1    10    1
    40     2     5    1
    41    10    11    1
    42    36    35   ar
    43    36    39    1
    44    14    13   ar
    45    14    17    1
    46    35    44    1
    47    13    21    1
    48    21    22    1
    49    45    44    1
