@<TRIPOS>MOLECULE
mol_data/opt/cam/geoms/mol2/4fa4fa4fa4fa-.out
 46 49 0 0 0
SMALL
GASTEIGER

@<TRIPOS>ATOM
      1 C          -0.2841    0.6984    0.8354 C.ar    1  LIG1        0.1174
      2 C           1.1019    0.6058    0.8774 C.ar    1  LIG1       -0.0124
      3 C          -0.9218    1.2797   -0.2575 C.ar    1  LIG1       -0.0201
      4 C           1.8783    1.0936   -0.1767 C.ar    1  LIG1       -0.0110
      5 H           1.5857    0.1455    1.7323 H       1  LIG1        0.0660
      6 C          -0.1532    1.7599   -1.3061 C.ar    1  LIG1       -0.0577
      7 C           1.2335    1.6709   -1.2739 C.ar    1  LIG1       -0.0537
      8 H          -0.6426    2.2047   -2.1667 H       1  LIG1        0.0619
      9 H          -2.0041    1.3378   -0.2666 H       1  LIG1        0.0654
     10 O          -1.0708    0.2370    1.8478 O.3     1  LIG1       -0.5067
     11 H          -0.5105   -0.1555    2.5274 H       1  LIG1        0.2921
     12 H           1.8192    2.0296   -2.1128 H       1  LIG1        0.0624
     13 C           4.0796   -0.0697    0.3258 C.ar    1  LIG1        0.1251
     14 C           5.4691   -0.0803    0.3251 C.ar    1  LIG1       -0.0117
     15 C           3.3617    1.0462   -0.1328 C.ar    1  LIG1        0.0237
     16 C           6.2024    1.0166   -0.1271 C.ar    1  LIG1       -0.0109
     17 H           5.9904   -0.9652    0.6749 H       1  LIG1        0.0660
     18 C           4.1117    2.1348   -0.5815 C.ar    1  LIG1       -0.0500
     19 C           5.4978    2.1321   -0.5841 C.ar    1  LIG1       -0.0531
     20 H           3.5823    3.0153   -0.9297 H       1  LIG1        0.0625
     21 O           3.3797   -1.1538    0.7701 O.3     1  LIG1       -0.5061
     22 H           4.0021   -1.8624    0.9718 H       1  LIG1        0.2922
     23 H           6.0358    2.9955   -0.9592 H       1  LIG1        0.0624
     24 C           8.4755   -0.0671   -0.4582 C.ar    1  LIG1        0.1251
     25 C           9.8633    0.0049   -0.4282 C.ar    1  LIG1       -0.0117
     26 C           7.6858    1.0362   -0.0904 C.ar    1  LIG1        0.0237
     27 C          10.5245    1.1708   -0.0402 C.ar    1  LIG1       -0.0109
     28 H          10.4473   -0.8700   -0.7030 H       1  LIG1        0.0660
     29 C           8.3617    2.1918    0.3013 C.ar    1  LIG1       -0.0500
     30 C           9.7480    2.2732    0.3293 C.ar    1  LIG1       -0.0531
     31 H           7.7752    3.0543    0.5993 H       1  LIG1        0.0625
     32 O           7.8462   -1.2114   -0.8451 O.3     1  LIG1       -0.5061
     33 H           8.5076   -1.8555   -1.1243 H       1  LIG1        0.2922
     34 H          10.2270    3.2074    0.6037 H       1  LIG1        0.0624
     35 C          12.7130    1.6841    1.0909 C.ar    1  LIG1        0.1245
     36 C          14.1052    1.7233    1.0826 C.ar    1  LIG1       -0.0196
     37 C          12.0082    1.2227   -0.0326 C.ar    1  LIG1        0.0237
     38 C          14.8075    1.3039   -0.0358 C.ar    1  LIG1       -0.0583
     39 H          14.6125    2.0807    1.9714 H       1  LIG1        0.0654
     40 C          12.7424    0.7944   -1.1418 C.ar    1  LIG1       -0.0505
     41 C          14.1285    0.8330   -1.1556 C.ar    1  LIG1       -0.0610
     42 H          12.2008    0.4469   -2.0162 H       1  LIG1        0.0625
     43 H          15.8920    1.3425   -0.0315 H       1  LIG1        0.0619
     44 O          12.0951    2.0931    2.2303 O.3     1  LIG1       -0.5062
     45 H          11.1445    1.9332    2.1518 H       1  LIG1        0.2922
     46 H          14.6740    0.5061   -2.0339 H       1  LIG1        0.0618
@<TRIPOS>BOND
     1     8     6    1
     2    12     7    1
     3    46    41    1
     4    42    40    1
     5     6     7   ar
     6     6     3   ar
     7     7     4   ar
     8    41    40   ar
     9    41    38   ar
    10    40    37   ar
    11    33    32    1
    12    23    19    1
    13    20    18    1
    14    32    24    1
    15    28    25    1
    16    19    18   ar
    17    19    16   ar
    18    18    15   ar
    19    24    25   ar
    20    24    26   ar
    21    25    27   ar
    22     9     3    1
    23     3     1   ar
    24     4    15    1
    25     4     2   ar
    26    15    13   ar
    27    16    26    1
    28    16    14   ar
    29    26    29   ar
    30    27    37    1
    31    27    30   ar
    32    38    43    1
    33    38    36   ar
    34    37    35   ar
    35    29    30   ar
    36    29    31    1
    37    14    13   ar
    38    14    17    1
    39    13    21    1
    40    30    34    1
    41    21    22    1
    42     1     2   ar
    43     1    10    1
    44     2     5    1
    45    36    35   ar
    46    36    39    1
    47    35    44    1
    48    10    11    1
    49    45    44    1
