@<TRIPOS>MOLECULE
mol_data/opt/cam/geoms/mol2/4fa4fa4fa-4fa.out
 46 49 0 0 0
SMALL
GASTEIGER

@<TRIPOS>ATOM
      1 C          -0.2878    0.1915   -0.3936 C.ar    1  LIG1        0.1174
      2 C           1.0986    0.0972   -0.3734 C.ar    1  LIG1       -0.0124
      3 C          -0.9215    1.3778   -0.0324 C.ar    1  LIG1       -0.0201
      4 C           1.8781    1.1913    0.0101 C.ar    1  LIG1       -0.0110
      5 H           1.5797   -0.8342   -0.6526 H       1  LIG1        0.0660
      6 C          -0.1494    2.4623    0.3525 C.ar    1  LIG1       -0.0577
      7 C           1.2379    2.3776    0.3767 C.ar    1  LIG1       -0.0537
      8 H          -0.6359    3.3872    0.6453 H       1  LIG1        0.0619
      9 H          -2.0041    1.4245   -0.0547 H       1  LIG1        0.0654
     10 O          -1.0789   -0.8527   -0.7666 O.3     1  LIG1       -0.5067
     11 H          -0.5223   -1.6123   -0.9737 H       1  LIG1        0.2921
     12 H           1.8270    3.2276    0.7025 H       1  LIG1        0.0624
     13 C           4.0872    0.0206    0.4645 C.ar    1  LIG1        0.1251
     14 C           5.4771    0.0208    0.4589 C.ar    1  LIG1       -0.0117
     15 C           3.3618    1.1292   -0.0053 C.ar    1  LIG1        0.0237
     16 C           6.2046    1.1096   -0.0240 C.ar    1  LIG1       -0.0109
     17 H           6.0108   -0.8386    0.8571 H       1  LIG1        0.0660
     18 C           4.1027    2.2085   -0.4865 C.ar    1  LIG1       -0.0500
     19 C           5.4915    2.2134   -0.5028 C.ar    1  LIG1       -0.0531
     20 H           3.5655    3.0615   -0.8872 H       1  LIG1        0.0625
     21 O           3.3936   -1.0473    0.9477 O.3     1  LIG1       -0.5061
     22 H           4.0177   -1.6979    1.2908 H       1  LIG1        0.2922
     23 H           6.0215    3.0557   -0.9351 H       1  LIG1        0.0624
     24 C           8.4497    2.1376    0.4665 C.ar    1  LIG1        0.1251
     25 C           9.8391    2.0800    0.4539 C.ar    1  LIG1       -0.0117
     26 C           7.6873    1.0723   -0.0350 C.ar    1  LIG1        0.0237
     27 C          10.5122    0.9700   -0.0521 C.ar    1  LIG1       -0.0109
     28 H          10.3835    2.9161    0.8777 H       1  LIG1        0.0660
     29 C           8.3754   -0.0415   -0.5241 C.ar    1  LIG1       -0.0500
     30 C           9.7578   -0.1033   -0.5393 C.ar    1  LIG1       -0.0531
     31 H           7.7989   -0.8680   -0.9282 H       1  LIG1        0.0625
     32 O           7.8907    3.2551    1.0046 O.3     1  LIG1       -0.5061
     33 H           6.9332    3.1327    1.0622 H       1  LIG1        0.2922
     34 H          10.2575   -0.9782   -0.9335 H       1  LIG1        0.0624
     35 C          12.7668   -0.1471    0.2513 C.ar    1  LIG1        0.1245
     36 C          14.1572   -0.0943    0.2103 C.ar    1  LIG1       -0.0196
     37 C          11.9968    0.9742   -0.0979 C.ar    1  LIG1        0.0237
     38 C          14.8078    1.0682   -0.1792 C.ar    1  LIG1       -0.0583
     39 H          14.7307   -0.9744    0.4917 H       1  LIG1        0.0654
     40 C          12.6807    2.1282   -0.4866 C.ar    1  LIG1       -0.0505
     41 C          14.0673    2.1880   -0.5315 C.ar    1  LIG1       -0.0610
     42 H          12.0973    2.9954   -0.7777 H       1  LIG1        0.0625
     43 H          15.8922    1.0922   -0.2082 H       1  LIG1        0.0619
     44 O          12.1187   -1.2804    0.6447 O.3     1  LIG1       -0.5062
     45 H          12.7726   -1.9437    0.8942 H       1  LIG1        0.2922
     46 H          14.5625    3.1003   -0.8450 H       1  LIG1        0.0618
@<TRIPOS>BOND
     1    11    10    1
     2    23    19    1
     3    34    30    1
     4    31    29    1
     5    20    18    1
     6    46    41    1
     7    42    40    1
     8    10     1    1
     9     5     2    1
    10    30    29   ar
    11    30    27   ar
    12    41    40   ar
    13    41    38   ar
    14    29    26   ar
    15    19    18   ar
    16    19    16   ar
    17    40    37   ar
    18    18    15   ar
    19     1     2   ar
    20     1     3   ar
    21     2     4   ar
    22    43    38    1
    23    38    36   ar
    24    37    27    1
    25    37    35   ar
    26     9     3    1
    27    27    25   ar
    28    26    16    1
    29    26    24   ar
    30     3     6   ar
    31    16    14   ar
    32    15     4    1
    33    15    13   ar
    34     4     7   ar
    35    36    35   ar
    36    36    39    1
    37    35    44    1
    38     6     7   ar
    39     6     8    1
    40     7    12    1
    41    25    24   ar
    42    25    28    1
    43    14    13   ar
    44    14    17    1
    45    13    21    1
    46    24    32    1
    47    44    45    1
    48    21    22    1
    49    32    33    1
