@<TRIPOS>MOLECULE
mol_data/opt/cam/geoms/mol2/4fa4fa-4fa-4fa-.out
 46 49 0 0 0
SMALL
GASTEIGER

@<TRIPOS>ATOM
      1 C          -0.2351    0.1548    0.4135 C.ar    1  LIG1        0.1174
      2 C           1.1554    0.1381    0.4211 C.ar    1  LIG1       -0.0124
      3 C          -0.9227    1.2632   -0.0803 C.ar    1  LIG1       -0.0201
      4 C           1.8823    1.2244   -0.0738 C.ar    1  LIG1       -0.0110
      5 H           1.6861   -0.7184    0.8288 H       1  LIG1        0.0660
      6 C          -0.2049    2.3410   -0.5694 C.ar    1  LIG1       -0.0577
      7 C           1.1881    2.3321   -0.5718 C.ar    1  LIG1       -0.0537
      8 H          -0.7359    3.2001   -0.9661 H       1  LIG1        0.0619
      9 H          -2.0063    1.2545   -0.0713 H       1  LIG1        0.0654
     10 O          -0.9788   -0.8785    0.8855 O.3     1  LIG1       -0.5067
     11 H          -0.3964   -1.5793    1.2017 H       1  LIG1        0.2921
     12 H           1.7349    3.1652   -1.0013 H       1  LIG1        0.0624
     13 C           4.1219    2.2423    0.4595 C.ar    1  LIG1        0.1251
     14 C           5.5140    2.1875    0.4636 C.ar    1  LIG1       -0.0117
     15 C           3.3668    1.1846   -0.0703 C.ar    1  LIG1        0.0237
     16 C           6.1928    1.0832   -0.0564 C.ar    1  LIG1       -0.0109
     17 H           6.0493    3.0059    0.9339 H       1  LIG1        0.0660
     18 C           4.0595    0.0805   -0.5716 C.ar    1  LIG1       -0.0500
     19 C           5.4433    0.0229   -0.5768 C.ar    1  LIG1       -0.0531
     20 H           3.4869   -0.7385   -0.9959 H       1  LIG1        0.0625
     21 O           3.5566    3.3448    1.0108 O.3     1  LIG1       -0.5061
     22 H           2.5957    3.2322    1.0339 H       1  LIG1        0.2922
     23 H           5.9515   -0.8339   -1.0047 H       1  LIG1        0.0624
     24 C           8.4554    2.0933   -0.5189 C.ar    1  LIG1        0.1251
     25 C           9.8464    2.0136   -0.5115 C.ar    1  LIG1       -0.0117
     26 C           7.6757    1.0248   -0.0495 C.ar    1  LIG1        0.0237
     27 C          10.5008    0.8735   -0.0407 C.ar    1  LIG1       -0.0109
     28 H          10.4014    2.8447   -0.9339 H       1  LIG1        0.0660
     29 C           8.3445   -0.1156    0.4018 C.ar    1  LIG1       -0.0500
     30 C           9.7267   -0.1978    0.4179 C.ar    1  LIG1       -0.0531
     31 H           7.7533   -0.9449    0.7773 H       1  LIG1        0.0625
     32 O           7.9177    3.2329   -1.0217 O.3     1  LIG1       -0.5061
     33 H           6.9560    3.1395   -1.0678 H       1  LIG1        0.2922
     34 H          10.2156   -1.0844    0.8057 H       1  LIG1        0.0624
     35 C          12.7732    1.8158    0.5052 C.ar    1  LIG1        0.1245
     36 C          14.1623    1.7118    0.5053 C.ar    1  LIG1       -0.0196
     37 C          11.9834    0.7886   -0.0364 C.ar    1  LIG1        0.0237
     38 C          14.7777    0.5906   -0.0276 C.ar    1  LIG1       -0.0583
     39 H          14.7358    2.5239    0.9375 H       1  LIG1        0.0654
     40 C          12.6306   -0.3361   -0.5549 C.ar    1  LIG1       -0.0505
     41 C          14.0131   -0.4436   -0.5590 C.ar    1  LIG1       -0.0610
     42 H          12.0236   -1.1289   -0.9809 H       1  LIG1        0.0625
     43 H          15.8609    0.5230   -0.0247 H       1  LIG1        0.0619
     44 O          12.2442    2.9364    1.0633 O.3     1  LIG1       -0.5062
     45 H          11.2808    2.8567    1.0858 H       1  LIG1        0.2922
     46 H          14.4900   -1.3226   -0.9782 H       1  LIG1        0.0618
@<TRIPOS>BOND
     1    33    32    1
     2    32    24    1
     3    23    19    1
     4    12     7    1
     5    20    18    1
     6    42    40    1
     7    46    41    1
     8     8     6    1
     9    28    25    1
    10    19    18   ar
    11    19    16   ar
    12     7     6   ar
    13     7     4   ar
    14    18    15   ar
    15     6     3   ar
    16    41    40   ar
    17    41    38   ar
    18    40    37   ar
    19    24    25   ar
    20    24    26   ar
    21    25    27   ar
    22     3     9    1
    23     3     1   ar
    24     4    15    1
    25     4     2   ar
    26    15    13   ar
    27    16    26    1
    28    16    14   ar
    29    26    29   ar
    30    27    37    1
    31    27    30   ar
    32    37    35   ar
    33    38    43    1
    34    38    36   ar
    35    29    30   ar
    36    29    31    1
    37     1     2   ar
    38     1    10    1
    39    30    34    1
    40     2     5    1
    41    13    14   ar
    42    13    21    1
    43    14    17    1
    44    35    36   ar
    45    35    44    1
    46    36    39    1
    47    10    11    1
    48    21    22    1
    49    44    45    1
