@<TRIPOS>MOLECULE
mol_data/opt/cam/geoms/mol2/4fa4fa-.out
 24 25 0 0 0
SMALL
GASTEIGER

@<TRIPOS>ATOM
      1 C          -0.0077    0.1570    0.3826 C.ar    1  LIG1        0.1174
      2 C           1.3827    0.1387    0.3875 C.ar    1  LIG1       -0.0124
      3 C          -0.6954    1.2645   -0.1119 C.ar    1  LIG1       -0.0201
      4 C           2.1112    1.2220   -0.1112 C.ar    1  LIG1       -0.0110
      5 H           1.9132   -0.7177    0.7958 H       1  LIG1        0.0660
      6 C           0.0236    2.3402   -0.6047 C.ar    1  LIG1       -0.0577
      7 C           1.4164    2.3292   -0.6102 C.ar    1  LIG1       -0.0537
      8 H          -0.5069    3.1995   -1.0022 H       1  LIG1        0.0619
      9 H          -1.7790    1.2574   -0.1008 H       1  LIG1        0.0654
     10 O          -0.7509   -0.8761    0.8590 O.3     1  LIG1       -0.5067
     11 H          -0.1657   -1.5755    1.1728 H       1  LIG1        0.2921
     12 H           1.9644    3.1607   -1.0411 H       1  LIG1        0.0624
     13 C           4.3521    2.2348    0.4243 C.ar    1  LIG1        0.1245
     14 C           5.7437    2.1774    0.4234 C.ar    1  LIG1       -0.0196
     15 C           3.5965    1.1793   -0.1111 C.ar    1  LIG1        0.0237
     16 C           6.3953    1.0747   -0.1055 C.ar    1  LIG1       -0.0583
     17 H           6.2907    3.0098    0.8514 H       1  LIG1        0.0654
     18 C           4.2794    0.0750   -0.6270 C.ar    1  LIG1       -0.0505
     19 C           5.6650    0.0137   -0.6323 C.ar    1  LIG1       -0.0610
     20 H           3.6989   -0.7385   -1.0510 H       1  LIG1        0.0625
     21 H           7.4801    1.0430   -0.1037 H       1  LIG1        0.0619
     22 O           3.7842    3.3389    0.9773 O.3     1  LIG1       -0.5062
     23 H           2.8239    3.2250    0.9967 H       1  LIG1        0.2922
     24 H           6.1706   -0.8501   -1.0494 H       1  LIG1        0.0618
@<TRIPOS>BOND
     1    20    18    1
     2    24    19    1
     3    12     7    1
     4     8     6    1
     5    19    18   ar
     6    19    16   ar
     7    18    15   ar
     8     7     6   ar
     9     7     4   ar
    10     6     3   ar
    11     3     9    1
    12     3     1   ar
    13     4    15    1
    14     4     2   ar
    15    15    13   ar
    16    16    21    1
    17    16    14   ar
    18     1     2   ar
    19     1    10    1
    20     2     5    1
    21    14    13   ar
    22    14    17    1
    23    13    22    1
    24    10    11    1
    25    22    23    1
