@<TRIPOS>MOLECULE
mol_data/opt/cam/geoms/mol2/4fa4fa-4fa.out
 35 37 0 0 0
SMALL
GASTEIGER

@<TRIPOS>ATOM
      1 C          -0.1456    0.1608    0.2202 C.ar    1  LIG1        0.1174
      2 C           1.2438    0.1180    0.2488 C.ar    1  LIG1       -0.0124
      3 C          -0.8067    1.3278   -0.1612 C.ar    1  LIG1       -0.0201
      4 C           1.9993    1.2368   -0.1137 C.ar    1  LIG1       -0.0110
      5 H           1.7528   -0.7870    0.5701 H       1  LIG1        0.0660
      6 C          -0.0614    2.4385   -0.5188 C.ar    1  LIG1       -0.0577
      7 C           1.3308    2.4040   -0.5000 C.ar    1  LIG1       -0.0537
      8 H          -0.5705    3.3454   -0.8287 H       1  LIG1        0.0619
      9 H          -1.8903    1.3382   -0.1708 H       1  LIG1        0.0654
     10 O          -0.9136   -0.9059    0.5662 O.3     1  LIG1       -0.5067
     11 H          -0.3443   -1.6450    0.8107 H       1  LIG1        0.2921
     12 H           1.8996    3.2681   -0.8273 H       1  LIG1        0.0624
     13 C           4.2509    2.1519    0.5462 C.ar    1  LIG1        0.1251
     14 C           5.6387    2.0642    0.5632 C.ar    1  LIG1       -0.0117
     15 C           3.4821    1.1677   -0.0921 C.ar    1  LIG1        0.0237
     16 C           6.3037    1.0037   -0.0490 C.ar    1  LIG1       -0.0109
     17 H           6.1874    2.8344    1.0931 H       1  LIG1        0.0660
     18 C           4.1612    0.1013   -0.6873 C.ar    1  LIG1       -0.0500
     19 C           5.5421    0.0104   -0.6747 C.ar    1  LIG1       -0.0531
     20 H           3.5795   -0.6613   -1.1960 H       1  LIG1        0.0625
     21 O           3.6988    3.2141    1.1928 O.3     1  LIG1       -0.5061
     22 H           2.7372    3.1119    1.2020 H       1  LIG1        0.2922
     23 H           6.0350   -0.8252   -1.1536 H       1  LIG1        0.0624
     24 C           8.5275   -0.1914    0.1774 C.ar    1  LIG1        0.1245
     25 C           9.9194   -0.1650    0.1782 C.ar    1  LIG1       -0.0196
     26 C           7.7888    0.9799   -0.0563 C.ar    1  LIG1        0.0237
     27 C          10.6026    1.0206   -0.0543 C.ar    1  LIG1       -0.0583
     28 H          10.4679   -1.0847    0.3680 H       1  LIG1        0.0654
     29 C           8.5053    2.1560   -0.2884 C.ar    1  LIG1       -0.0505
     30 C           9.8936    2.1901   -0.2904 C.ar    1  LIG1       -0.0610
     31 H           7.9467    3.0642   -0.4895 H       1  LIG1        0.0625
     32 H          11.6877    1.0237   -0.0525 H       1  LIG1        0.0619
     33 O           7.8475   -1.3486    0.4176 O.3     1  LIG1       -0.5062
     34 H           8.4816   -2.0508    0.6038 H       1  LIG1        0.2922
     35 H          10.4144    3.1218   -0.4811 H       1  LIG1        0.0618
@<TRIPOS>BOND
     1    20    18    1
     2    23    19    1
     3     8     6    1
     4    12     7    1
     5    18    19   ar
     6    18    15   ar
     7    19    16   ar
     8     6     7   ar
     9     6     3   ar
    10     7     4   ar
    11    31    29    1
    12    35    30    1
    13    30    29   ar
    14    30    27   ar
    15    29    26   ar
    16     9     3    1
    17     3     1   ar
    18     4    15    1
    19     4     2   ar
    20    15    13   ar
    21    26    16    1
    22    26    24   ar
    23    27    32    1
    24    27    25   ar
    25    16    14   ar
    26    24    25   ar
    27    24    33    1
    28    25    28    1
    29     1     2   ar
    30     1    10    1
    31     2     5    1
    32    33    34    1
    33    13    14   ar
    34    13    21    1
    35    14    17    1
    36    10    11    1
    37    21    22    1
