@<TRIPOS>MOLECULE
mol_data/opt/cam/geoms/mol2/4fd12ei6ff6ii-.out
 52 55 0 0 0
SMALL
GASTEIGER

@<TRIPOS>ATOM
      1 C          -0.0217   -0.3966    0.4744 C.ar    1  LIG1        0.1176
      2 C           1.3509   -0.2266    0.3478 C.ar    1  LIG1       -0.0082
      3 C          -0.8853    0.6922    0.3522 C.ar    1  LIG1       -0.0189
      4 C           1.9060    1.0292    0.0868 C.ar    1  LIG1        0.0393
      5 H           2.0048   -1.0835    0.4563 H       1  LIG1        0.0661
      6 C          -0.3520    1.9379    0.1012 C.ar    1  LIG1       -0.0402
      7 C           1.0293    2.1293   -0.0369 C.ar    1  LIG1        0.0627
      8 H          -1.0056    2.7971    0.0036 H       1  LIG1        0.0632
      9 H          -1.9523    0.5398    0.4584 H       1  LIG1        0.0654
     10 O          -0.5780   -1.6030    0.7263 O.3     1  LIG1       -0.5067
     11 H           0.1112   -2.2752    0.7912 H       1  LIG1        0.2921
     12 N           1.7677    4.5634   -0.5149 N.1     1  LIG1       -0.1908
     13 C           1.4680    3.4644   -0.3071 C.1     1  LIG1        0.0999
     14 C           3.3535    1.1465   -0.0425 C.ar    1  LIG1        0.1526
     15 C           4.3760    0.2318   -0.1495 C.ar    1  LIG1        0.0739
     16 C           5.6037    0.9740   -0.2389 C.ar    1  LIG1        0.0115
     17 C           5.2484    2.2919   -0.1942 C.ar    1  LIG1        0.1450
     18 O           3.8908    2.3911   -0.0693 O.2     1  LIG1       -0.4531
     19 C           4.3123   -1.1871   -0.1752 C.1     1  LIG1       -0.0656
     20 C           4.3239   -2.3916   -0.2012 C.1     1  LIG1       -0.1138
     21 H           4.3360   -3.4571   -0.2351 H       1  LIG1        0.1232
     22 C           6.9642    0.3628   -0.3229 C.3     1  LIG1       -0.0349
     23 H           7.7104    0.9858    0.1739 H       1  LIG1        0.0279
     24 H           7.2842    0.2201   -1.3603 H       1  LIG1        0.0279
     25 H           6.9629   -0.6204    0.1520 H       1  LIG1        0.0279
     26 C           5.6222    4.7269    0.4047 C.ar    1  LIG1        0.2240
     27 C           6.0203    3.5287   -0.2393 C.ar    1  LIG1        0.0823
     28 C           7.2452    3.5498   -0.9021 C.ar    1  LIG1       -0.0022
     29 C           8.0536    4.6746   -0.8548 C.ar    1  LIG1        0.1437
     30 C           7.6081    5.7785   -0.1207 C.ar    1  LIG1        0.1178
     31 N           6.4086    5.7838    0.4633 N.ar    1  LIG1       -0.2087
     32 H           7.5841    2.6965   -1.4759 H       1  LIG1        0.0663
     33 O           4.4464    4.8711    1.0419 O.3     1  LIG1       -0.4919
     34 H           3.7642    4.3018    0.6595 H       1  LIG1        0.2938
     35 O           9.2364    4.6395   -1.5300 O.3     1  LIG1       -0.5046
     36 H           9.6231    5.5253   -1.5254 H       1  LIG1        0.2922
     37 C           7.9762    8.2847   -0.2798 C.ar    1  LIG1        0.0475
     38 C           8.4557    6.9931    0.0251 C.ar    1  LIG1        0.0253
     39 C           9.7625    6.8705    0.4902 C.ar    1  LIG1       -0.0464
     40 C          10.5701    7.9940    0.6558 C.ar    1  LIG1       -0.0317
     41 C           9.9932    9.2131    0.3258 C.ar    1  LIG1        0.0308
     42 N           8.7484    9.3598   -0.1272 N.ar    1  LIG1       -0.2592
     43 H          10.1471    5.8864    0.7487 H       1  LIG1        0.0628
     44 H          10.5706   10.1303    0.4322 H       1  LIG1        0.0832
     45 C           6.5867    8.5270   -0.7972 C.3     1  LIG1       -0.0217
     46 H           5.8428    8.2950   -0.0325 H       1  LIG1        0.0293
     47 H           6.3612    7.8874   -1.6553 H       1  LIG1        0.0293
     48 H           6.4995    9.5722   -1.0919 H       1  LIG1        0.0293
     49 C          11.9780    7.8953    1.1734 C.3     1  LIG1       -0.0383
     50 H          12.4537    8.8778    1.2059 H       1  LIG1        0.0278
     51 H          12.5931    7.2469    0.5421 H       1  LIG1        0.0278
     52 H          12.0012    7.4799    2.1854 H       1  LIG1        0.0278
@<TRIPOS>BOND
     1    47    45    1
     2    35    36    1
     3    35    29    1
     4    32    28    1
     5    24    22    1
     6    48    45    1
     7    28    29   ar
     8    28    27   ar
     9    29    30   ar
    10    45    37    1
    11    45    46    1
    12    12    13    3
    13    22    16    1
    14    22    25    1
    15    22    23    1
    16    13     7    1
    17    37    42   ar
    18    37    38   ar
    19    27    17    1
    20    27    26   ar
    21    16    17   ar
    22    16    15   ar
    23    21    20    1
    24    20    19    3
    25    17    18   ar
    26    19    15    1
    27    15    14   ar
    28    42    41   ar
    29    30    38    1
    30    30    31   ar
    31    18    14   ar
    32    14     4    1
    33     7     4   ar
    34     7     6   ar
    35     8     6    1
    36    38    39   ar
    37     4     2   ar
    38     6     3   ar
    39    41    44    1
    40    41    40   ar
    41     2     5    1
    42     2     1   ar
    43     3     9    1
    44     3     1   ar
    45    26    31   ar
    46    26    33    1
    47     1    10    1
    48    39    40   ar
    49    39    43    1
    50    51    49    1
    51    40    49    1
    52    34    33    1
    53    10    11    1
    54    49    50    1
    55    49    52    1
