@<TRIPOS>MOLECULE
mol_data/opt/cam/geoms/mol2/4fd12id-13lh-4lf-.out
 54 57 0 0 0
SMALL
GASTEIGER

@<TRIPOS>ATOM
      1 C          -0.2596    0.3336    0.8569 C.ar    1  LIG1        0.1176
      2 C           1.1199    0.1955    0.7575 C.ar    1  LIG1       -0.0083
      3 C          -0.8756    1.5428    0.5307 C.ar    1  LIG1       -0.0189
      4 C           1.9282    1.2477    0.3166 C.ar    1  LIG1        0.0384
      5 H           1.5786   -0.7396    1.0557 H       1  LIG1        0.0661
      6 C          -0.0918    2.5951    0.1106 C.ar    1  LIG1       -0.0402
      7 C           1.3002    2.4735   -0.0064 C.ar    1  LIG1        0.0626
      8 H          -0.5526    3.5434   -0.1420 H       1  LIG1        0.0632
      9 H          -1.9509    1.6328    0.6213 H       1  LIG1        0.0654
     10 O          -1.0582   -0.6701    1.2814 O.3     1  LIG1       -0.5067
     11 H          -0.5308   -1.4527    1.4829 H       1  LIG1        0.2921
     12 N           2.4919    4.6123   -0.8493 N.1     1  LIG1       -0.1908
     13 C           2.0020    3.6330   -0.4714 C.1     1  LIG1        0.0999
     14 C           3.3646    1.0513    0.2105 C.ar    1  LIG1        0.1413
     15 C           4.1833   -0.0387    0.1170 C.ar    1  LIG1        0.0134
     16 C           5.5189    0.4826    0.0016 C.ar    1  LIG1        0.1025
     17 C           5.4247    1.8598    0.0237 C.ar    1  LIG1        0.1730
     18 O           4.1239    2.1906    0.1593 O.2     1  LIG1       -0.4516
     19 C           3.8440   -1.4942    0.0880 C.3     1  LIG1       -0.0349
     20 H           4.6696   -2.0633   -0.3432 H       1  LIG1        0.0279
     21 H           2.9495   -1.6859   -0.5092 H       1  LIG1        0.0279
     22 H           3.6723   -1.8893    1.0949 H       1  LIG1        0.0279
     23 N           7.5521   -1.0635   -0.3184 N.1     1  LIG1       -0.1907
     24 C           6.6699   -0.3289   -0.1639 C.1     1  LIG1        0.1033
     25 C           6.3080    2.9755   -0.0906 C.ar    1  LIG1        0.1279
     26 C           7.6911    3.1007   -0.1273 C.ar    1  LIG1        0.1695
     27 C           8.0146    4.4766   -0.2010 C.ar    1  LIG1        0.0933
     28 C           6.8014    5.1775   -0.2228 C.ar    1  LIG1        0.0752
     29 N           5.7953    4.2413   -0.1449 N.ar    1  LIG1       -0.3472
     30 H           4.8098    4.4528   -0.0866 H       1  LIG1        0.1662
     31 O           8.5903    2.0788   -0.0790 O.3     1  LIG1       -0.4910
     32 C           9.0870    1.6628   -1.3474 C.3     1  LIG1        0.0790
     33 H           9.7176    0.7937   -1.1645 H       1  LIG1        0.0660
     34 H           8.2706    1.3748   -2.0165 H       1  LIG1        0.0660
     35 H           9.6746    2.4547   -1.8280 H       1  LIG1        0.0660
     36 N           9.3119    4.9539   -0.1936 N.pl3   1  LIG1       -0.3535
     37 H          10.0069    4.3382   -0.5824 H       1  LIG1        0.1425
     38 H           9.4246    5.9374   -0.3856 H       1  LIG1        0.1425
     39 C           7.2359    7.6771   -0.0565 C.ar    1  LIG1        0.1295
     40 C           6.7928    8.9789   -0.2594 C.ar    1  LIG1       -0.0159
     41 C           6.4301    6.5844   -0.4080 C.ar    1  LIG1        0.0453
     42 C           5.5398    9.2418   -0.7883 C.ar    1  LIG1       -0.0167
     43 H           7.4591    9.7884    0.0189 H       1  LIG1        0.0655
     44 C           5.1706    6.8677   -0.9579 C.ar    1  LIG1       -0.0075
     45 C           4.7192    8.1685   -1.1258 C.ar    1  LIG1        0.1177
     46 H           4.5255    6.0597   -1.2839 H       1  LIG1        0.0662
     47 H           5.1860   10.2546   -0.9400 H       1  LIG1        0.0655
     48 O           8.4968    7.5021    0.4812 O.3     1  LIG1       -0.4944
     49 C           8.5045    7.2464    1.8820 C.3     1  LIG1        0.0788
     50 H           9.5472    7.1148    2.1710 H       1  LIG1        0.0660
     51 H           8.0719    8.0918    2.4285 H       1  LIG1        0.0660
     52 H           7.9496    6.3340    2.1207 H       1  LIG1        0.0660
     53 O           3.4867    8.4350   -1.6359 O.3     1  LIG1       -0.5067
     54 H           3.0028    7.6044   -1.7325 H       1  LIG1        0.2921
@<TRIPOS>BOND
     1    34    32    1
     2    35    32    1
     3    54    53    1
     4    53    45    1
     5    32    33    1
     6    32    31    1
     7    46    44    1
     8    45    44   ar
     9    45    42   ar
    10    44    41   ar
    11    47    42    1
    12    12    13    3
    13    42    40   ar
    14    37    36    1
    15    21    19    1
    16    13     7    1
    17    41    28    1
    18    41    39   ar
    19    38    36    1
    20    20    19    1
    21    23    24    3
    22    40    39   ar
    23    40    43    1
    24    28    27   ar
    25    28    29   ar
    26    27    36    1
    27    27    26   ar
    28    24    16    1
    29    29    25   ar
    30    29    30    1
    31     8     6    1
    32    26    25   ar
    33    26    31    1
    34    25    17    1
    35    39    48    1
    36     7     6   ar
    37     7     4   ar
    38    16    17   ar
    39    16    15   ar
    40    17    18   ar
    41    19    15    1
    42    19    22    1
    43     6     3   ar
    44    15    14   ar
    45    18    14   ar
    46    14     4    1
    47     4     2   ar
    48    48    49    1
    49     3     9    1
    50     3     1   ar
    51     2     1   ar
    52     2     5    1
    53     1    10    1
    54    10    11    1
    55    49    52    1
    56    49    50    1
    57    49    51    1
