@<TRIPOS>MOLECULE
mol_data/opt/cam/geoms/mol2/4fd4af4da6ei-13hl13ef13ia-6li-.out
 102 109 0 0 0
SMALL
GASTEIGER

@<TRIPOS>ATOM
      1 C          -0.7837   -0.0541   -0.2241 C.ar    1  LIG1        0.1175
      2 C           0.6058    0.0249   -0.2307 C.ar    1  LIG1       -0.0112
      3 C          -1.5176    0.5672    0.7864 C.ar    1  LIG1       -0.0189
      4 C           1.2977    0.7184    0.7604 C.ar    1  LIG1        0.0030
      5 H           1.1702   -0.4829   -1.0074 H       1  LIG1        0.0660
      6 C          -0.8470    1.2581    1.7741 C.ar    1  LIG1       -0.0403
      7 C           0.5517    1.3439    1.7771 C.ar    1  LIG1        0.0597
      8 H          -1.4034    1.7523    2.5624 H       1  LIG1        0.0632
      9 H          -2.5983    0.4941    0.7772 H       1  LIG1        0.0654
     10 O          -1.4763   -0.7286   -1.1695 O.3     1  LIG1       -0.5067
     11 H          -0.8672   -1.1180   -1.8088 H       1  LIG1        0.2921
     12 N           1.6405    2.7127    3.6884 N.1     1  LIG1       -0.1909
     13 C           1.1740    2.1029    2.8221 C.1     1  LIG1        0.0998
     14 C           3.4164    1.0273   -0.5213 C.ar    1  LIG1       -0.0532
     15 C           4.8004    1.0476   -0.5914 C.ar    1  LIG1       -0.0499
     16 C           2.7798    0.7734    0.6943 C.ar    1  LIG1       -0.0131
     17 C           5.5984    0.8233    0.5302 C.ar    1  LIG1        0.0248
     18 H           5.2793    1.2586   -1.5408 H       1  LIG1        0.0625
     19 C           3.5629    0.5473    1.8247 C.ar    1  LIG1       -0.0118
     20 C           4.9504    0.5815    1.7511 C.ar    1  LIG1        0.1251
     21 H           3.0930    0.3306    2.7786 H       1  LIG1        0.0660
     22 H           2.8288    1.2349   -1.4081 H       1  LIG1        0.0624
     23 O           5.7203    0.3595    2.8490 O.3     1  LIG1       -0.5061
     24 H           5.1525    0.2529    3.6217 H       1  LIG1        0.2922
     25 C           7.7774    0.1205   -0.5378 C.ar    1  LIG1        0.0601
     26 C           9.1693    0.1967   -0.6337 C.ar    1  LIG1       -0.0360
     27 C           7.0788    0.8569    0.4346 C.ar    1  LIG1        0.0030
     28 C           9.9066    1.0014    0.2291 C.ar    1  LIG1       -0.0140
     29 H           9.6734   -0.3780   -1.4026 H       1  LIG1        0.0637
     30 C           7.8333    1.6498    1.3013 C.ar    1  LIG1       -0.0521
     31 C           9.2122    1.7255    1.2032 C.ar    1  LIG1       -0.0533
     32 H           7.3203    2.2109    2.0725 H       1  LIG1        0.0624
     33 N           6.5884   -1.4708   -2.2056 N.1     1  LIG1       -0.1908
     34 C           7.0968   -0.7549   -1.4523 C.1     1  LIG1        0.0998
     35 H           9.7611    2.3519    1.8958 H       1  LIG1        0.0624
     36 C          12.1509    2.2061    0.1299 C.ar    1  LIG1        0.1216
     37 C          11.3849    1.0279    0.1252 C.ar    1  LIG1        0.0163
     38 C          12.0974   -0.1677    0.0361 C.ar    1  LIG1       -0.0464
     39 C          13.4801   -0.2046   -0.0708 C.ar    1  LIG1       -0.0223
     40 C          14.1378    1.0424   -0.1545 C.ar    1  LIG1        0.0933
     41 N          13.4777    2.1997   -0.0153 N.ar    1  LIG1       -0.2360
     42 H          11.5525   -1.1048    0.1062 H       1  LIG1        0.0628
     43 C          11.5513    3.5095    0.2493 C.1     1  LIG1       -0.0492
     44 C          11.0727    4.6093    0.3428 C.1     1  LIG1       -0.1124
     45 H          10.6474    5.5836    0.4205 H       1  LIG1        0.1232
     46 C          14.2133   -1.5113    0.0342 C.3     1  LIG1       -0.0376
     47 H          14.9204   -1.4762    0.8690 H       1  LIG1        0.0278
     48 H          14.8108   -1.7496   -0.8476 H       1  LIG1        0.0278
     49 H          13.5114   -2.3278    0.2151 H       1  LIG1        0.0278
     50 C          15.5811    1.1935   -0.3186 C.ar    1  LIG1        0.0903
     51 C          16.5575    0.5199   -1.0396 C.ar    1  LIG1        0.0947
     52 C          17.7855    1.1925   -0.8127 C.ar    1  LIG1        0.1679
     53 C          17.5433    2.2833    0.0036 C.ar    1  LIG1        0.1088
     54 N          16.2002    2.2798    0.2635 N.ar    1  LIG1       -0.3474
     55 H          15.7094    2.9093    0.8780 H       1  LIG1        0.1662
     56 N          16.4355   -0.5603   -1.9276 N.pl3   1  LIG1       -0.3534
     57 H          15.5983   -0.4985   -2.4945 H       1  LIG1        0.1425
     58 H          17.2432   -0.5846   -2.5412 H       1  LIG1        0.1425
     59 O          18.9537    0.8663   -1.4383 O.3     1  LIG1       -0.4911
     60 C          19.5982   -0.2871   -0.8996 C.3     1  LIG1        0.0790
     61 H          20.4959   -0.4472   -1.4983 H       1  LIG1        0.0660
     62 H          19.8797   -0.1187    0.1420 H       1  LIG1        0.0660
     63 H          18.9519   -1.1700   -0.9676 H       1  LIG1        0.0660
     64 C          18.3814    3.3821    0.4479 C.ar    1  LIG1        0.0863
     65 C          19.6301    3.4301    1.0618 C.ar    1  LIG1        0.0935
     66 C          19.9188    4.8072    1.2830 C.ar    1  LIG1        0.1595
     67 C          18.8627    5.5628    0.8284 C.ar    1  LIG1        0.1069
     68 N          17.9350    4.6669    0.3237 N.ar    1  LIG1       -0.3479
     69 H          17.0711    4.9253   -0.1251 H       1  LIG1        0.1661
     70 C          20.4581    2.3484    1.4572 C.1     1  LIG1       -0.0638
     71 C          21.1867    1.4631    1.8274 C.1     1  LIG1       -0.1137
     72 H          21.8394    0.6892    2.1584 H       1  LIG1        0.1232
     73 O          21.0631    5.2513    1.8567 O.3     1  LIG1       -0.5034
     74 H          21.0810    6.2146    1.7761 H       1  LIG1        0.2923
     75 C          18.6984    7.0061    0.8045 C.ar    1  LIG1        0.0699
     76 C          18.8285    7.9460    1.8168 C.ar    1  LIG1       -0.0231
     77 C          18.5777    9.2104    1.2321 C.ar    1  LIG1       -0.0327
     78 C          18.2933    9.0245   -0.1093 C.ar    1  LIG1        0.0523
     79 N          18.3710    7.6779   -0.3469 N.ar    1  LIG1       -0.3526
     80 H          18.2884    7.2859   -1.2725 H       1  LIG1        0.1660
     81 C          19.1146    7.6721    3.2623 C.3     1  LIG1       -0.0376
     82 H          18.2775    7.9804    3.8965 H       1  LIG1        0.0278
     83 H          19.9964    8.2192    3.6115 H       1  LIG1        0.0278
     84 H          19.2899    6.6091    3.4394 H       1  LIG1        0.0278
     85 H          18.5925   10.1561    1.7550 H       1  LIG1        0.0642
     86 C          17.7358    9.6825   -2.5026 C.ar    1  LIG1        0.2238
     87 C          17.9697   10.0055   -1.1444 C.ar    1  LIG1        0.0600
     88 C          17.8781   11.3578   -0.8367 C.ar    1  LIG1       -0.0432
     89 C          17.5779   12.3181   -1.8041 C.ar    1  LIG1       -0.0315
     90 C          17.3742   11.8551   -3.0928 C.ar    1  LIG1        0.0343
     91 N          17.4516   10.5645   -3.4331 N.ar    1  LIG1       -0.2205
     92 H          18.0452   11.6745    0.1880 H       1  LIG1        0.0629
     93 H          17.1370   12.5473   -3.8975 H       1  LIG1        0.0833
     94 O          17.8110    8.3737   -2.8657 O.3     1  LIG1       -0.4792
     95 C          17.5864    8.0701   -4.2396 C.3     1  LIG1        0.0804
     96 H          17.6949    6.9888   -4.3210 H       1  LIG1        0.0660
     97 H          16.5856    8.3779   -4.5484 H       1  LIG1        0.0660
     98 H          18.3165    8.5750   -4.8751 H       1  LIG1        0.0660
     99 C          17.4812   13.7791   -1.4621 C.3     1  LIG1       -0.0383
    100 H          17.2391   14.3739   -2.3456 H       1  LIG1        0.0278
    101 H          18.4235   14.1571   -1.0542 H       1  LIG1        0.0278
    102 H          16.7050   13.9637   -0.7134 H       1  LIG1        0.0278
@<TRIPOS>BOND
     1    98    95    1
     2    97    95    1
     3    96    95    1
     4    95    94    1
     5    93    90    1
     6    91    90   ar
     7    91    86   ar
     8    90    89   ar
     9    94    86    1
    10    58    56    1
    11    86    87   ar
    12    57    56    1
    13   100    99    1
    14    33    34    3
    15    56    51    1
    16    11    10    1
    17    89    99    1
    18    89    88   ar
    19    18    15    1
    20    61    60    1
    21    99   101    1
    22    99   102    1
    23    34    25    1
    24    59    60    1
    25    59    52    1
    26    22    14    1
    27    29    26    1
    28    80    79    1
    29    10     1    1
    30    87    88   ar
    31    87    78    1
    32    51    52   ar
    33    51    50   ar
    34     5     2    1
    35    63    60    1
    36    60    62    1
    37    48    46    1
    38    88    92    1
    39    52    53   ar
    40    26    25   ar
    41    26    28   ar
    42    15    14   ar
    43    15    17   ar
    44    25    27   ar
    45    14    16   ar
    46    79    78   ar
    47    79    75   ar
    48    50    40    1
    49    50    54   ar
    50     2     1   ar
    51     2     4   ar
    52     1     3   ar
    53    40    39   ar
    54    40    41   ar
    55    69    68    1
    56    78    77   ar
    57    39    46    1
    58    39    38   ar
    59    41    36   ar
    60    53    54   ar
    61    53    64    1
    62    46    49    1
    63    46    47    1
    64    38    42    1
    65    38    37   ar
    66    37    36   ar
    67    37    28    1
    68    36    43    1
    69    28    31   ar
    70    43    44    3
    71    54    55    1
    72    68    64   ar
    73    68    67   ar
    74    44    45    1
    75    27    17    1
    76    27    30   ar
    77    64    65   ar
    78    17    20   ar
    79    16     4    1
    80    16    19   ar
    81     4     7   ar
    82     9     3    1
    83     3     6   ar
    84    75    67    1
    85    75    76   ar
    86    67    66   ar
    87    65    66   ar
    88    65    70    1
    89    31    30   ar
    90    31    35    1
    91    77    85    1
    92    77    76   ar
    93    66    73    1
    94    30    32    1
    95    70    71    3
    96    20    19   ar
    97    20    23    1
    98     6     7   ar
    99     6     8    1
   100    74    73    1
   101     7    13    1
   102    76    81    1
   103    19    21    1
   104    71    72    1
   105    13    12    3
   106    23    24    1
   107    81    84    1
   108    81    83    1
   109    81    82    1
