@<TRIPOS>MOLECULE
mol_data/opt/cam/geoms/mol2/4fd4ih12ei-13il-.out
 56 59 0 0 0
SMALL
GASTEIGER

@<TRIPOS>ATOM
      1 C          -0.1415    0.2800   -1.0757 C.ar    1  LIG1        0.1175
      2 C           1.2444    0.2746   -0.9482 C.ar    1  LIG1       -0.0112
      3 C          -0.9091    1.2006   -0.3622 C.ar    1  LIG1       -0.0189
      4 C           1.8958    1.1800   -0.1146 C.ar    1  LIG1        0.0032
      5 H           1.8367   -0.4351   -1.5191 H       1  LIG1        0.0660
      6 C          -0.2769    2.1036    0.4675 C.ar    1  LIG1       -0.0403
      7 C           1.1182    2.1065    0.6007 C.ar    1  LIG1        0.0597
      8 H          -0.8602    2.8229    1.0311 H       1  LIG1        0.0632
      9 H          -1.9866    1.1893   -0.4738 H       1  LIG1        0.0654
     10 O          -0.7998   -0.5834   -1.8849 O.3     1  LIG1       -0.5067
     11 H          -0.1681   -1.1669   -2.3223 H       1  LIG1        0.2921
     12 N           2.1544    3.8465    2.2169 N.1     1  LIG1       -0.1909
     13 C           1.7173    3.0594    1.4899 C.1     1  LIG1        0.0998
     14 C           4.0719    0.0489    0.4948 C.ar    1  LIG1       -0.0419
     15 C           5.4552    0.1136    0.5207 C.ar    1  LIG1       -0.0458
     16 C           3.3823    1.1612   -0.0210 C.ar    1  LIG1       -0.0119
     17 C           6.1926    1.2112    0.0565 C.ar    1  LIG1        0.0394
     18 H           6.0010   -0.7283    0.9290 H       1  LIG1        0.0628
     19 C           4.0888    2.2690   -0.4623 C.ar    1  LIG1       -0.0323
     20 C           5.4880    2.3351   -0.4356 C.ar    1  LIG1        0.0360
     21 H           3.5425    3.1269   -0.8429 H       1  LIG1        0.0642
     22 C           3.3638   -1.1639    1.0447 C.3     1  LIG1       -0.0391
     23 H           4.0524   -1.7669    1.6401 H       1  LIG1        0.0278
     24 H           2.9659   -1.8100    0.2552 H       1  LIG1        0.0278
     25 H           2.5218   -0.8867    1.6842 H       1  LIG1        0.0278
     26 N           6.0988    3.4936   -0.8618 N.pl3   1  LIG1       -0.3574
     27 H           7.0896    3.4802   -1.0328 H       1  LIG1        0.1423
     28 H           5.5534    4.1031   -1.4484 H       1  LIG1        0.1423
     29 C           7.6490    1.1392    0.0956 C.ar    1  LIG1        0.1531
     30 C           8.5513    0.1044    0.1905 C.ar    1  LIG1        0.0740
     31 C           9.8708    0.6866    0.2219 C.ar    1  LIG1        0.0128
     32 C           9.6910    2.0286    0.1107 C.ar    1  LIG1        0.1562
     33 O           8.3460    2.3079    0.0399 O.2     1  LIG1       -0.4518
     34 C           8.3032   -1.2925    0.2508 C.1     1  LIG1       -0.0656
     35 C           8.1533   -2.4870    0.3053 C.1     1  LIG1       -0.1138
     36 H           8.0106   -3.5421    0.3451 H       1  LIG1        0.1232
     37 C          11.1462   -0.0663    0.4056 C.3     1  LIG1       -0.0349
     38 H          11.9388    0.5953    0.7587 H       1  LIG1        0.0279
     39 H          11.4835   -0.5319   -0.5257 H       1  LIG1        0.0279
     40 H          11.0107   -0.8681    1.1356 H       1  LIG1        0.0279
     41 C          10.5636    3.1822    0.0828 C.ar    1  LIG1        0.0889
     42 C          11.7933    3.3952   -0.5151 C.ar    1  LIG1        0.0195
     43 C          12.1408    4.7437   -0.2229 C.ar    1  LIG1        0.1409
     44 C          11.1345    5.3116    0.5194 C.ar    1  LIG1        0.0447
     45 N          10.1783    4.3524    0.6965 N.ar    1  LIG1       -0.3550
     46 H           9.3115    4.4648    1.1959 H       1  LIG1        0.1655
     47 H          11.0291    6.3128    0.9057 H       1  LIG1        0.0844
     48 C          12.5761    2.4701   -1.3910 C.3     1  LIG1       -0.0341
     49 H          13.3278    1.8953   -0.8391 H       1  LIG1        0.0279
     50 H          13.1050    3.0459   -2.1550 H       1  LIG1        0.0279
     51 H          11.9215    1.7538   -1.8934 H       1  LIG1        0.0279
     52 O          13.2579    5.3918   -0.6753 O.3     1  LIG1       -0.4933
     53 C          14.4299    5.1097    0.0697 C.3     1  LIG1        0.0789
     54 H          15.2414    5.6779   -0.3879 H       1  LIG1        0.0660
     55 H          14.3175    5.4157    1.1167 H       1  LIG1        0.0660
     56 H          14.6805    4.0424    0.0423 H       1  LIG1        0.0660
@<TRIPOS>BOND
     1    11    10    1
     2    50    48    1
     3    51    48    1
     4    10     1    1
     5     5     2    1
     6    28    26    1
     7    48    49    1
     8    48    42    1
     9     1     2   ar
    10     1     3   ar
    11    27    26    1
    12     2     4   ar
    13    26    20    1
    14    21    19    1
    15    52    43    1
    16    52    53    1
    17    39    37    1
    18    42    43   ar
    19    42    41   ar
    20     9     3    1
    21    19    20   ar
    22    19    16   ar
    23    20    17   ar
    24    54    53    1
    25     3     6   ar
    26    43    44   ar
    27     4    16    1
    28     4     7   ar
    29    16    14   ar
    30    33    29   ar
    31    33    32   ar
    32    56    53    1
    33    17    29    1
    34    17    15   ar
    35    53    55    1
    36    41    32    1
    37    41    45   ar
    38    29    30   ar
    39    32    31   ar
    40    30    31   ar
    41    30    34    1
    42    31    37    1
    43    34    35    3
    44    24    22    1
    45    35    36    1
    46    37    38    1
    47    37    40    1
    48     6     7   ar
    49     6     8    1
    50    14    15   ar
    51    14    22    1
    52    44    45   ar
    53    44    47    1
    54    15    18    1
    55     7    13    1
    56    45    46    1
    57    22    23    1
    58    22    25    1
    59    13    12    3
