@<TRIPOS>MOLECULE
mol_data/opt/cam/geoms/mol2/4fd6ee-6hl4il.out
 59 62 0 0 0
SMALL
GASTEIGER

@<TRIPOS>ATOM
      1 C          -0.1932    0.6745    1.1262 C.ar    1  LIG1        0.1175
      2 C           1.2061    0.6736    1.1149 C.ar    1  LIG1       -0.0112
      3 C          -0.9032    1.2867    0.0859 C.ar    1  LIG1       -0.0189
      4 C           1.9187    1.2831    0.0789 C.ar    1  LIG1        0.0056
      5 H           1.7544    0.2101    1.9313 H       1  LIG1        0.0660
      6 C          -0.2073    1.8846   -0.9526 C.ar    1  LIG1       -0.0403
      7 C           1.1994    1.8913   -0.9748 C.ar    1  LIG1        0.0598
      8 H          -0.7477    2.3511   -1.7692 H       1  LIG1        0.0632
      9 H          -1.9870    1.2793    0.1096 H       1  LIG1        0.0654
     10 O          -0.9172    0.0998    2.1219 O.3     1  LIG1       -0.5067
     11 H          -0.3209   -0.2778    2.7826 H       1  LIG1        0.2921
     12 N           2.3904    2.9539   -3.0213 N.1     1  LIG1       -0.1909
     13 C           1.8730    2.4818   -2.0920 C.1     1  LIG1        0.0998
     14 C           4.2051    2.3966    0.2798 C.ar    1  LIG1        0.1216
     15 C           3.4066    1.2441    0.0997 C.ar    1  LIG1        0.0185
     16 C           4.0825    0.0305    0.0072 C.ar    1  LIG1       -0.0338
     17 C           5.4833   -0.0375    0.0385 C.ar    1  LIG1        0.0514
     18 C           6.2099    1.1899    0.1374 C.ar    1  LIG1        0.0911
     19 N           5.5452    2.3477    0.2887 N.ar    1  LIG1       -0.2365
     20 H           3.5182   -0.8916   -0.0866 H       1  LIG1        0.0637
     21 C           3.6175    3.6852    0.5002 C.1     1  LIG1       -0.0492
     22 C           3.1309    4.7730    0.7040 C.1     1  LIG1       -0.1124
     23 H           2.7035    5.7358    0.8664 H       1  LIG1        0.1232
     24 C           6.0778   -1.3350    0.0355 C.1     1  LIG1       -0.0675
     25 C           6.4949   -2.4718    0.0522 C.1     1  LIG1       -0.1138
     26 H           6.8866   -3.4624    0.0806 H       1  LIG1        0.1232
     27 C           8.4218    2.2709    0.8010 C.ar    1  LIG1        0.1264
     28 C           7.6838    1.2732    0.0972 C.ar    1  LIG1        0.0446
     29 C           8.4306    0.3786   -0.6862 C.ar    1  LIG1       -0.0053
     30 C           9.8183    0.4325   -0.7162 C.ar    1  LIG1        0.1467
     31 C          10.4659    1.3993    0.0849 C.ar    1  LIG1        0.1150
     32 N           9.7662    2.2921    0.7885 N.ar    1  LIG1       -0.2281
     33 H           7.9058   -0.3464   -1.2915 H       1  LIG1        0.0662
     34 N           7.8293    3.2306    1.5815 N.pl3   1  LIG1       -0.3426
     35 H           8.4667    3.9534    1.8828 H       1  LIG1        0.1437
     36 H           6.8934    3.5026    1.3096 H       1  LIG1        0.1437
     37 O          10.6085   -0.3692   -1.4997 O.3     1  LIG1       -0.4929
     38 C           9.9653   -1.2686   -2.3871 C.3     1  LIG1        0.0789
     39 H          10.7630   -1.7808   -2.9269 H       1  LIG1        0.0660
     40 H           9.3584   -2.0099   -1.8502 H       1  LIG1        0.0660
     41 H           9.3256   -0.7393   -3.1055 H       1  LIG1        0.0660
     42 C          12.8092    0.5075    0.5746 C.ar    1  LIG1       -0.0409
     43 C          14.1802    0.7696    0.5983 C.ar    1  LIG1       -0.0548
     44 C          11.9533    1.5420    0.1283 C.ar    1  LIG1        0.0104
     45 C          14.7220    1.9943    0.1996 C.ar    1  LIG1       -0.0197
     46 H          14.8551   -0.0068    0.9501 H       1  LIG1        0.0622
     47 C          12.4838    2.7776   -0.2447 C.ar    1  LIG1       -0.0104
     48 C          13.8627    3.0107   -0.2229 C.ar    1  LIG1        0.1207
     49 H          11.8247    3.5792   -0.5586 H       1  LIG1        0.0661
     50 H          15.7950    2.1406    0.2355 H       1  LIG1        0.0654
     51 C          12.2893   -0.8267    1.0553 C.3     1  LIG1       -0.0391
     52 H          13.0679   -1.3709    1.5973 H       1  LIG1        0.0278
     53 H          11.9565   -1.4486    0.2185 H       1  LIG1        0.0278
     54 H          11.4337   -0.7076    1.7284 H       1  LIG1        0.0278
     55 O          14.2614    4.2562   -0.6279 O.3     1  LIG1       -0.4951
     56 C          15.6482    4.5459   -0.6163 C.3     1  LIG1        0.0788
     57 H          15.7459    5.5733   -0.9706 H       1  LIG1        0.0660
     58 H          16.0717    4.4725    0.3942 H       1  LIG1        0.0660
     59 H          16.2094    3.8802   -1.2855 H       1  LIG1        0.0660
@<TRIPOS>BOND
     1    41    38    1
     2    12    13    3
     3    39    38    1
     4    38    40    1
     5    38    37    1
     6    13     7    1
     7     8     6    1
     8    37    30    1
     9    33    29    1
    10    59    56    1
    11     7     6   ar
    12     7     4   ar
    13    57    56    1
    14     6     3   ar
    15    30    29   ar
    16    30    31   ar
    17    29    28   ar
    18    55    56    1
    19    55    48    1
    20    56    58    1
    21    49    47    1
    22    47    48   ar
    23    47    44   ar
    24    48    45   ar
    25    20    16    1
    26    16    17   ar
    27    16    15   ar
    28    24    17    1
    29    24    25    3
    30    17    18   ar
    31    25    26    1
    32     4    15    1
    33     4     2   ar
    34    31    44    1
    35    31    32   ar
    36     3     9    1
    37     3     1   ar
    38    28    18    1
    39    28    27   ar
    40    15    14   ar
    41    44    42   ar
    42    18    19   ar
    43    45    50    1
    44    45    43   ar
    45    53    51    1
    46    14    19   ar
    47    14    21    1
    48    21    22    3
    49    42    43   ar
    50    42    51    1
    51    43    46    1
    52    22    23    1
    53    32    27   ar
    54    27    34    1
    55    51    52    1
    56    51    54    1
    57     2     1   ar
    58     2     5    1
    59     1    10    1
    60    36    34    1
    61    34    35    1
    62    10    11    1
