@<TRIPOS>MOLECULE
mol_data/opt/cam/geoms/mol2/4fd6hl12il6lh-.out
 58 61 0 0 0
SMALL
GASTEIGER

@<TRIPOS>ATOM
      1 C          -0.3232    1.1145   -0.8819 C.ar    1  LIG1        0.1175
      2 C           1.0697    1.1186   -0.8534 C.ar    1  LIG1       -0.0111
      3 C          -1.0484    1.2129    0.3048 C.ar    1  LIG1       -0.0189
      4 C           1.7655    1.2148    0.3498 C.ar    1  LIG1        0.0063
      5 H           1.6322    1.0573   -1.7811 H       1  LIG1        0.0660
      6 C          -0.3707    1.3043    1.5047 C.ar    1  LIG1       -0.0403
      7 C           1.0290    1.3046    1.5444 C.ar    1  LIG1        0.0598
      8 H          -0.9228    1.3686    2.4354 H       1  LIG1        0.0632
      9 H          -2.1309    1.2121    0.2633 H       1  LIG1        0.0654
     10 O          -1.0261    1.0250   -2.0354 O.3     1  LIG1       -0.5067
     11 H          -0.4208    0.9679   -2.7845 H       1  LIG1        0.2921
     12 N           2.1648    1.3575    3.8719 N.1     1  LIG1       -0.1909
     13 C           1.6823    1.3461    2.8207 C.1     1  LIG1        0.0998
     14 C           4.0027    2.3470    0.6889 C.ar    1  LIG1        0.1250
     15 C           3.2511    1.2090    0.3398 C.ar    1  LIG1        0.0265
     16 C           3.9499    0.0774   -0.0662 C.ar    1  LIG1       -0.0067
     17 C           5.3389    0.0752   -0.0809 C.ar    1  LIG1        0.1497
     18 C           6.0017    1.2441    0.3270 C.ar    1  LIG1        0.1499
     19 N           5.3316    2.3423    0.6763 N.ar    1  LIG1       -0.2250
     20 H           3.3892   -0.8010   -0.3618 H       1  LIG1        0.0662
     21 N           3.4026    3.5204    1.0926 N.pl3   1  LIG1       -0.3426
     22 H           4.0354    4.3043    1.1395 H       1  LIG1        0.1437
     23 H           2.4776    3.7222    0.7495 H       1  LIG1        0.1437
     24 O           6.1036   -0.9747   -0.4963 O.3     1  LIG1       -0.4928
     25 C           5.4430   -2.1481   -0.9113 C.3     1  LIG1        0.0789
     26 H           6.2239   -2.8527   -1.1972 H       1  LIG1        0.0660
     27 H           4.8439   -2.5854   -0.1034 H       1  LIG1        0.0660
     28 H           4.7946   -1.9637   -1.7768 H       1  LIG1        0.0660
     29 C           7.4642    1.3384    0.3571 C.ar    1  LIG1        0.1640
     30 C           8.4611    0.4980    0.7683 C.ar    1  LIG1        0.0393
     31 C           9.6608    1.2540    0.6074 C.ar    1  LIG1        0.1693
     32 C           9.3268    2.4865    0.1143 C.ar    1  LIG1        0.1825
     33 O           7.9810    2.5368   -0.0284 O.2     1  LIG1       -0.4489
     34 C           8.3886   -0.8732    1.3552 C.3     1  LIG1       -0.0325
     35 H           9.2414   -1.0295    2.0206 H       1  LIG1        0.0280
     36 H           8.4084   -1.6469    0.5825 H       1  LIG1        0.0280
     37 H           7.4714   -1.0137    1.9297 H       1  LIG1        0.0280
     38 O          10.9166    0.8277    0.9411 O.3     1  LIG1       -0.4910
     39 C          11.5184   -0.0057   -0.0401 C.3     1  LIG1        0.0790
     40 H          12.4955   -0.2964    0.3485 H       1  LIG1        0.0660
     41 H          10.9204   -0.9059   -0.2198 H       1  LIG1        0.0660
     42 H          11.6451    0.5311   -0.9868 H       1  LIG1        0.0660
     43 C           9.7891    4.6145   -1.1810 C.ar    1  LIG1        0.2256
     44 C          10.1434    3.6513   -0.2079 C.ar    1  LIG1        0.0841
     45 C          11.3555    3.8390    0.4437 C.ar    1  LIG1       -0.0236
     46 C          12.1708    4.9335    0.1418 C.ar    1  LIG1        0.0438
     47 C          11.7046    5.8152   -0.8237 C.ar    1  LIG1        0.0520
     48 N          10.5443    5.6539   -1.4657 N.ar    1  LIG1       -0.2189
     49 H          11.6621    3.1206    1.1962 H       1  LIG1        0.0645
     50 H          12.2888    6.6928   -1.0952 H       1  LIG1        0.0849
     51 O           8.6321    4.4375   -1.8533 O.3     1  LIG1       -0.4792
     52 C           8.3002    5.4205   -2.8187 C.3     1  LIG1        0.0804
     53 H           7.3446    5.1057   -3.2384 H       1  LIG1        0.0660
     54 H           8.2052    6.4094   -2.3624 H       1  LIG1        0.0660
     55 H           9.0582    5.4798   -3.6046 H       1  LIG1        0.0660
     56 N          13.3650    5.1620    0.8331 N.pl3   1  LIG1       -0.3568
     57 H          13.8085    4.3254    1.1842 H       1  LIG1        0.1424
     58 H          14.0256    5.7448    0.3388 H       1  LIG1        0.1424
@<TRIPOS>BOND
     1    55    52    1
     2    53    52    1
     3    52    54    1
     4    52    51    1
     5    11    10    1
     6    10     1    1
     7    51    43    1
     8     5     2    1
     9    28    25    1
    10    48    43   ar
    11    48    47   ar
    12    26    25    1
    13    43    44   ar
    14    50    47    1
    15    42    39    1
    16    25    24    1
    17    25    27    1
    18     1     2   ar
    19     1     3   ar
    20     2     4   ar
    21    47    46   ar
    22    24    17    1
    23    20    16    1
    24    41    39    1
    25    44    32    1
    26    44    45   ar
    27    17    16   ar
    28    17    18   ar
    29    16    15   ar
    30    39    40    1
    31    39    38    1
    32    33    32   ar
    33    33    29   ar
    34    32    31   ar
    35    46    45   ar
    36    46    56    1
    37     9     3    1
    38     3     6   ar
    39    18    29    1
    40    18    19   ar
    41    58    56    1
    42    15     4    1
    43    15    14   ar
    44     4     7   ar
    45    29    30   ar
    46    45    49    1
    47    36    34    1
    48    31    30   ar
    49    31    38    1
    50    19    14   ar
    51    14    21    1
    52    23    21    1
    53    30    34    1
    54    56    57    1
    55    21    22    1
    56    34    37    1
    57    34    35    1
    58     6     7   ar
    59     6     8    1
    60     7    13    1
    61    13    12    3
