@<TRIPOS>MOLECULE
mol_data/opt/cam/geoms/mol2/4fe.out
 15 15 0 0 0
SMALL
GASTEIGER

@<TRIPOS>ATOM
      1 C           0.0865    0.0268    0.0004 C.ar    1  LIG1        0.1169
      2 C           1.4795    0.0106    0.0000 C.ar    1  LIG1       -0.0190
      3 C          -0.5957    1.2426    0.0003 C.ar    1  LIG1       -0.0190
      4 C           2.1853    1.2037   -0.0005 C.ar    1  LIG1       -0.0429
      5 H           2.0123   -0.9368    0.0001 H       1  LIG1        0.0654
      6 C           0.1142    2.4293   -0.0002 C.ar    1  LIG1       -0.0429
      7 C           1.5158    2.4309   -0.0006 C.ar    1  LIG1        0.0249
      8 H          -0.4150    3.3756   -0.0003 H       1  LIG1        0.0631
      9 H           3.2695    1.1904   -0.0008 H       1  LIG1        0.0631
     10 H          -1.6795    1.2334    0.0006 H       1  LIG1        0.0654
     11 O          -0.6594   -1.1084    0.0009 O.3     1  LIG1       -0.5068
     12 H          -0.0765   -1.8767    0.0009 H       1  LIG1        0.2921
     13 C           2.2460    3.6618   -0.0011 C.1     1  LIG1       -0.0697
     14 C           2.8605    4.6975   -0.0015 C.1     1  LIG1       -0.1139
     15 H           3.4034    5.6142   -0.0019 H       1  LIG1        0.1232
@<TRIPOS>BOND
     1    15    14    1
     2    14    13    3
     3    13     7    1
     4     9     4    1
     5     7     4   ar
     6     7     6   ar
     7     4     2   ar
     8     8     6    1
     9     6     3   ar
    10     2     5    1
    11     2     1   ar
    12     3     1   ar
    13     3    10    1
    14     1    11    1
    15    11    12    1
