@<TRIPOS>MOLECULE
mol_data/opt/cam/geoms/mol2/4fe12ll13if-6aa.out
 51 54 0 0 0
SMALL
GASTEIGER

@<TRIPOS>ATOM
      1 C          -0.3194    0.2368   -0.5504 C.ar    1  LIG1        0.1176
      2 C           1.0573    0.1942   -0.3986 C.ar    1  LIG1       -0.0082
      3 C          -0.9867    1.4610   -0.5667 C.ar    1  LIG1       -0.0190
      4 C           1.8110    1.3667   -0.2550 C.ar    1  LIG1        0.0399
      5 H           1.5744   -0.7592   -0.3963 H       1  LIG1        0.0661
      6 C          -0.2522    2.6199   -0.4322 C.ar    1  LIG1       -0.0422
      7 C           1.1440    2.6124   -0.2753 C.ar    1  LIG1        0.0357
      8 H          -0.7564    3.5795   -0.4465 H       1  LIG1        0.0631
      9 H          -2.0630    1.4802   -0.6881 H       1  LIG1        0.0654
     10 O          -1.0682   -0.8867   -0.6924 O.3     1  LIG1       -0.5067
     11 H          -0.4905   -1.6592   -0.6800 H       1  LIG1        0.2921
     12 C           1.7635    3.8999   -0.1495 C.1     1  LIG1       -0.0689
     13 C           2.1336    5.0448   -0.0605 C.1     1  LIG1       -0.1139
     14 H           2.4401    6.0644    0.0083 H       1  LIG1        0.1232
     15 C           3.2490    1.2277   -0.0917 C.ar    1  LIG1        0.1823
     16 C           4.0865    0.1536    0.0587 C.ar    1  LIG1        0.2086
     17 C           5.4204    0.6617    0.1514 C.ar    1  LIG1        0.2100
     18 C           5.3280    2.0231    0.0554 C.ar    1  LIG1        0.1973
     19 O           4.0149    2.3532   -0.0943 O.2     1  LIG1       -0.4457
     20 O           3.7418   -1.1638    0.0938 O.3     1  LIG1       -0.4884
     21 C           4.0384   -1.8027    1.3380 C.3     1  LIG1        0.0791
     22 H           3.7769   -2.8539    1.2150 H       1  LIG1        0.0660
     23 H           5.0999   -1.7096    1.5804 H       1  LIG1        0.0660
     24 H           3.4407   -1.3667    2.1451 H       1  LIG1        0.0660
     25 O           6.5386   -0.0896    0.3511 O.3     1  LIG1       -0.4884
     26 C           6.8937   -0.8982   -0.7704 C.3     1  LIG1        0.0791
     27 H           7.7627   -1.4830   -0.4678 H       1  LIG1        0.0660
     28 H           6.0735   -1.5684   -1.0443 H       1  LIG1        0.0660
     29 H           7.1555   -0.2725   -1.6299 H       1  LIG1        0.0660
     30 C           6.2137    3.1607    0.0993 C.ar    1  LIG1        0.0929
     31 C           7.5955    3.3104    0.0982 C.ar    1  LIG1        0.0200
     32 C           7.8244    4.7039    0.1062 C.ar    1  LIG1        0.1456
     33 C           6.6126    5.3754    0.1145 C.ar    1  LIG1        0.0907
     34 N           5.6411    4.4051    0.1315 N.ar    1  LIG1       -0.3485
     35 H           4.6451    4.5539    0.0402 H       1  LIG1        0.1661
     36 C           8.6727    2.2741    0.0844 C.3     1  LIG1       -0.0341
     37 H           9.5892    2.6939    0.5046 H       1  LIG1        0.0279
     38 H           8.9068    1.9483   -0.9360 H       1  LIG1        0.0279
     39 H           8.3883    1.3909    0.6559 H       1  LIG1        0.0279
     40 O           9.0789    5.2500    0.1191 O.3     1  LIG1       -0.5044
     41 H           9.0559    6.0717    0.6242 H       1  LIG1        0.2922
     42 C           5.1517    7.2862    0.7638 C.ar    1  LIG1        0.0368
     43 C           6.3165    6.7992    0.1532 C.ar    1  LIG1        0.0200
     44 C           7.1722    7.7486   -0.4166 C.ar    1  LIG1       -0.0496
     45 C           6.8295    9.0904   -0.3578 C.ar    1  LIG1       -0.0430
     46 C           5.6340    9.4522    0.2512 C.ar    1  LIG1        0.0276
     47 N           4.8035    8.5673    0.8046 N.ar    1  LIG1       -0.2626
     48 H           8.0762    7.4272   -0.9238 H       1  LIG1        0.0625
     49 H           5.3302   10.4948    0.2995 H       1  LIG1        0.0829
     50 H           4.4757    6.5917    1.2590 H       1  LIG1        0.0836
     51 H           7.4708    9.8478   -0.7953 H       1  LIG1        0.0633
@<TRIPOS>BOND
     1    29    26    1
     2    28    26    1
     3    38    36    1
     4    48    44    1
     5    51    45    1
     6    26    27    1
     7    26    25    1
     8    10    11    1
     9    10     1    1
    10     9     3    1
    11     3     1   ar
    12     3     6   ar
    13     1     2   ar
    14     8     6    1
    15     6     7   ar
    16    44    45   ar
    17    44    43   ar
    18     2     5    1
    19     2     4   ar
    20    45    46   ar
    21     7     4   ar
    22     7    12    1
    23     4    15    1
    24    12    13    3
    25    19    15   ar
    26    19    18   ar
    27    15    16   ar
    28    13    14    1
    29    35    34    1
    30    18    30    1
    31    18    17   ar
    32    16    20    1
    33    16    17   ar
    34    36    31    1
    35    36    37    1
    36    36    39    1
    37    20    21    1
    38    31    30   ar
    39    31    32   ar
    40    30    34   ar
    41    32    33   ar
    42    32    40    1
    43    33    34   ar
    44    33    43    1
    45    40    41    1
    46    17    25    1
    47    43    42   ar
    48    46    49    1
    49    46    47   ar
    50    42    47   ar
    51    42    50    1
    52    22    21    1
    53    21    23    1
    54    21    24    1
