@<TRIPOS>MOLECULE
mol_data/opt/cam/geoms/mol2/4fe4fe4fe4fe.out
 54 57 0 0 0
SMALL
GASTEIGER

@<TRIPOS>ATOM
      1 C          -0.0461    0.9806    1.7062 C.ar    1  LIG1        0.1175
      2 C           1.3315    0.9655    1.5282 C.ar    1  LIG1       -0.0112
      3 C          -0.8842    1.3027    0.6411 C.ar    1  LIG1       -0.0190
      4 C           1.9055    1.2653    0.2937 C.ar    1  LIG1        0.0045
      5 H           1.9789    0.7080    2.3606 H       1  LIG1        0.0660
      6 C          -0.3266    1.5954   -0.5875 C.ar    1  LIG1       -0.0423
      7 C           1.0614    1.5815   -0.7887 C.ar    1  LIG1        0.0327
      8 H          -0.9681    1.8375   -1.4273 H       1  LIG1        0.0631
      9 H          -1.9567    1.3122    0.7952 H       1  LIG1        0.0654
     10 O          -0.6285    0.6952    2.9003 O.3     1  LIG1       -0.5067
     11 H           0.0555    0.4772    3.5443 H       1  LIG1        0.2921
     12 C           1.5621    1.8627   -2.1009 C.1     1  LIG1       -0.0690
     13 C           1.9358    2.1004   -3.2208 C.1     1  LIG1       -0.1139
     14 H           2.2854    2.3090   -4.2053 H       1  LIG1        0.1232
     15 C           4.1709    0.1855    0.5741 C.ar    1  LIG1        0.1252
     16 C           5.5538    0.2255    0.4536 C.ar    1  LIG1       -0.0106
     17 C           3.3860    1.2724    0.1619 C.ar    1  LIG1        0.0260
     18 C           6.2149    1.3323   -0.0708 C.ar    1  LIG1        0.0045
     19 H           6.1374   -0.6342    0.7679 H       1  LIG1        0.0661
     20 C           4.0497    2.3731   -0.3651 C.ar    1  LIG1       -0.0345
     21 C           5.4416    2.4309   -0.4923 C.ar    1  LIG1        0.0333
     22 H           3.4684    3.2238   -0.6987 H       1  LIG1        0.0637
     23 O           3.5427   -0.9040    1.0952 O.3     1  LIG1       -0.5061
     24 H           4.1975   -1.5928    1.2601 H       1  LIG1        0.2922
     25 C           6.0202    3.6046   -1.0756 C.1     1  LIG1       -0.0690
     26 C           6.4634    4.6071   -1.5741 C.1     1  LIG1       -0.1139
     27 H           6.8707    5.4881   -2.0133 H       1  LIG1        0.1232
     28 C           8.4157    0.2762   -0.7151 C.ar    1  LIG1        0.1252
     29 C           9.8039    0.2983   -0.7516 C.ar    1  LIG1       -0.0106
     30 C           7.6989    1.3358   -0.1390 C.ar    1  LIG1        0.0260
     31 C          10.5366    1.3559   -0.2218 C.ar    1  LIG1        0.0045
     32 H          10.3340   -0.5285   -1.2142 H       1  LIG1        0.0661
     33 C           8.4349    2.3913    0.3850 C.ar    1  LIG1       -0.0345
     34 C           9.8329    2.4284    0.3582 C.ar    1  LIG1        0.0333
     35 H           7.9083    3.2264    0.8296 H       1  LIG1        0.0637
     36 O           7.7167   -0.7708   -1.2326 O.3     1  LIG1       -0.5061
     37 H           8.3322   -1.3762   -1.6629 H       1  LIG1        0.2922
     38 C          10.4916    3.5777    0.9040 C.1     1  LIG1       -0.0690
     39 C          11.0043    4.5627    1.3698 C.1     1  LIG1       -0.1139
     40 H          11.4707    5.4290    1.7785 H       1  LIG1        0.1232
     41 C          12.7253    1.0598   -1.4393 C.ar    1  LIG1        0.1246
     42 C          14.1174    1.0124   -1.4409 C.ar    1  LIG1       -0.0184
     43 C          12.0220    1.3096   -0.2504 C.ar    1  LIG1        0.0260
     44 C          14.8291    1.2032   -0.2696 C.ar    1  LIG1       -0.0429
     45 H          14.6445    0.8240   -2.3727 H       1  LIG1        0.0654
     46 C          12.7580    1.4972    0.9157 C.ar    1  LIG1       -0.0351
     47 C          14.1548    1.4462    0.9298 C.ar    1  LIG1        0.0255
     48 H          12.2315    1.6892    1.8425 H       1  LIG1        0.0637
     49 H          15.9123    1.1630   -0.2773 H       1  LIG1        0.0631
     50 O          12.0104    0.8706   -2.5815 O.3     1  LIG1       -0.5062
     51 H          12.6190    0.7825   -3.3245 H       1  LIG1        0.2922
     52 C          14.8784    1.6369    2.1501 C.1     1  LIG1       -0.0696
     53 C          15.4903    1.7958    3.1749 C.1     1  LIG1       -0.1139
     54 H          16.0289    1.9375    4.0832 H       1  LIG1        0.1232
@<TRIPOS>BOND
     1    14    13    1
     2    51    50    1
     3    13    12    3
     4    50    41    1
     5    45    42    1
     6    12     7    1
     7    27    26    1
     8    37    36    1
     9    26    25    3
    10    42    41   ar
    11    42    44   ar
    12    41    43   ar
    13     8     6    1
    14    36    28    1
    15    32    29    1
    16    25    21    1
    17     7     6   ar
    18     7     4   ar
    19    29    28   ar
    20    29    31   ar
    21    28    30   ar
    22    22    20    1
    23     6     3   ar
    24    21    20   ar
    25    21    18   ar
    26    20    17   ar
    27    49    44    1
    28    44    47   ar
    29    43    31    1
    30    43    46   ar
    31    31    34   ar
    32    30    18    1
    33    30    33   ar
    34    18    16   ar
    35    17     4    1
    36    17    15   ar
    37     4     2   ar
    38    34    33   ar
    39    34    38    1
    40    33    35    1
    41    16    15   ar
    42    16    19    1
    43    15    23    1
    44     3     9    1
    45     3     1   ar
    46    38    39    3
    47    46    47   ar
    48    46    48    1
    49    47    52    1
    50    23    24    1
    51    39    40    1
    52     2     1   ar
    53     2     5    1
    54     1    10    1
    55    52    53    3
    56    10    11    1
    57    53    54    1
