@<TRIPOS>MOLECULE
mol_data/opt/cam/geoms/mol2/4fe4fe4fe4fe-.out
 54 57 0 0 0
SMALL
GASTEIGER

@<TRIPOS>ATOM
      1 C          -0.2116    0.1621    0.5716 C.ar    1  LIG1        0.1175
      2 C           1.1774    0.1721    0.5561 C.ar    1  LIG1       -0.0112
      3 C          -0.9236    1.2246    0.0191 C.ar    1  LIG1       -0.0190
      4 C           1.8866    1.2312   -0.0081 C.ar    1  LIG1        0.0045
      5 H           1.7267   -0.6612    0.9829 H       1  LIG1        0.0660
      6 C          -0.2309    2.2756   -0.5477 C.ar    1  LIG1       -0.0423
      7 C           1.1711    2.3028   -0.5765 C.ar    1  LIG1        0.0327
      8 H          -0.7734    3.1035   -0.9900 H       1  LIG1        0.0631
      9 H          -2.0068    1.2036    0.0400 H       1  LIG1        0.0654
     10 O          -0.9261   -0.8557    1.1184 O.3     1  LIG1       -0.5067
     11 H          -0.3204   -1.5285    1.4514 H       1  LIG1        0.2921
     12 C           1.8186    3.4114   -1.2118 C.1     1  LIG1       -0.0690
     13 C           2.3175    4.3603   -1.7605 C.1     1  LIG1       -0.1139
     14 H           2.7733    5.1938   -2.2429 H       1  LIG1        0.1232
     15 C           4.1148    0.1173   -0.4229 C.ar    1  LIG1        0.1252
     16 C           5.5027    0.1290   -0.3672 C.ar    1  LIG1       -0.0106
     17 C           3.3724    1.2172    0.0321 C.ar    1  LIG1        0.0260
     18 C           6.2069    1.2142    0.1448 C.ar    1  LIG1        0.0045
     19 H           6.0541   -0.7340   -0.7273 H       1  LIG1        0.0661
     20 C           4.0803    2.2944    0.5498 C.ar    1  LIG1       -0.0345
     21 C           5.4770    2.3194    0.6215 C.ar    1  LIG1        0.0333
     22 H           3.5316    3.1513    0.9201 H       1  LIG1        0.0637
     23 O           3.4407   -0.9509   -0.9281 O.3     1  LIG1       -0.5061
     24 H           4.0768   -1.6033   -1.2445 H       1  LIG1        0.2922
     25 C           6.1071    3.4634    1.2106 C.1     1  LIG1       -0.0690
     26 C           6.5946    4.4408    1.7177 C.1     1  LIG1       -0.1139
     27 H           7.0320    5.3025    2.1666 H       1  LIG1        0.1232
     28 C           8.4166    0.1195    0.6919 C.ar    1  LIG1        0.1252
     29 C           9.8067    0.1303    0.6858 C.ar    1  LIG1       -0.0106
     30 C           7.6922    1.1930    0.1494 C.ar    1  LIG1        0.0260
     31 C          10.5315    1.1837    0.1344 C.ar    1  LIG1        0.0045
     32 H          10.3486   -0.6978    1.1349 H       1  LIG1        0.0661
     33 C           8.4183    2.2393   -0.4041 C.ar    1  LIG1       -0.0345
     34 C           9.8178    2.2579   -0.4321 C.ar    1  LIG1        0.0333
     35 H           7.8836    3.0729   -0.8424 H       1  LIG1        0.0637
     36 O           7.7232   -0.9153    1.2340 O.3     1  LIG1       -0.5061
     37 H           8.3434   -1.5457    1.6198 H       1  LIG1        0.2922
     38 C          10.4853    3.3567   -1.0644 C.1     1  LIG1       -0.0690
     39 C          11.0315    4.2950   -1.5848 C.1     1  LIG1       -0.1139
     40 H          11.5256    5.1181   -2.0474 H       1  LIG1        0.1232
     41 C          12.8016    2.0796    0.8019 C.ar    1  LIG1        0.1246
     42 C          14.1889    1.9414    0.8428 C.ar    1  LIG1       -0.0184
     43 C          12.0175    1.1146    0.1481 C.ar    1  LIG1        0.0260
     44 C          14.8059    0.8609    0.2437 C.ar    1  LIG1       -0.0429
     45 H          14.7618    2.7020    1.3604 H       1  LIG1        0.0654
     46 C          12.6595    0.0293   -0.4447 C.ar    1  LIG1       -0.0351
     47 C          14.0472   -0.1161   -0.4135 C.ar    1  LIG1        0.0255
     48 H          12.0615   -0.7179   -0.9550 H       1  LIG1        0.0637
     49 H          15.8850    0.7625    0.2785 H       1  LIG1        0.0631
     50 O          12.2829    3.1494    1.4462 O.3     1  LIG1       -0.5062
     51 H          11.3386    3.2255    1.2590 H       1  LIG1        0.2922
     52 C          14.6767   -1.2392   -1.0384 C.1     1  LIG1       -0.0696
     53 C          15.2078   -2.1849   -1.5620 C.1     1  LIG1       -0.1139
     54 H          15.6791   -3.0192   -2.0275 H       1  LIG1        0.1232
@<TRIPOS>BOND
     1    14    13    1
     2    40    39    1
     3    54    53    1
     4    13    12    3
     5    39    38    3
     6    53    52    3
     7    24    23    1
     8    12     7    1
     9    38    34    1
    10    52    47    1
    11     8     6    1
    12    48    46    1
    13    23    15    1
    14    35    33    1
    15    19    16    1
    16     7     6   ar
    17     7     4   ar
    18     6     3   ar
    19    46    47   ar
    20    46    43   ar
    21    34    33   ar
    22    34    31   ar
    23    15    16   ar
    24    15    17   ar
    25    47    44   ar
    26    33    30   ar
    27    16    18   ar
    28     4    17    1
    29     4     2   ar
    30     3     9    1
    31     3     1   ar
    32    17    20   ar
    33    31    43    1
    34    31    29   ar
    35    18    30    1
    36    18    21   ar
    37    43    41   ar
    38    30    28   ar
    39    44    49    1
    40    44    42   ar
    41    20    21   ar
    42    20    22    1
    43     2     1   ar
    44     2     5    1
    45     1    10    1
    46    21    25    1
    47    29    28   ar
    48    29    32    1
    49    28    36    1
    50    41    42   ar
    51    41    50    1
    52    42    45    1
    53    10    11    1
    54    25    26    3
    55    36    37    1
    56    51    50    1
    57    26    27    1
