@<TRIPOS>MOLECULE
mol_data/opt/cam/geoms/mol2/4fe4fe4fe-4fe-.out
 54 57 0 0 0
SMALL
GASTEIGER

@<TRIPOS>ATOM
      1 C          -0.1931    0.0536    0.0970 C.ar    1  LIG1        0.1175
      2 C           1.1958    0.0932    0.1026 C.ar    1  LIG1       -0.0112
      3 C          -0.9248    1.2393    0.1142 C.ar    1  LIG1       -0.0190
      4 C           1.8830    1.3055    0.1276 C.ar    1  LIG1        0.0045
      5 H           1.7608   -0.8336    0.0941 H       1  LIG1        0.0660
      6 C          -0.2532    2.4448    0.1452 C.ar    1  LIG1       -0.0423
      7 C           1.1481    2.5062    0.1544 C.ar    1  LIG1        0.0327
      8 H          -0.8119    3.3736    0.1692 H       1  LIG1        0.0631
      9 H          -2.0074    1.1925    0.1083 H       1  LIG1        0.0654
     10 O          -0.8884   -1.1120    0.0688 O.3     1  LIG1       -0.5067
     11 H          -0.2725   -1.8543    0.0732 H       1  LIG1        0.2921
     12 C           1.7754    3.7922    0.2201 C.1     1  LIG1       -0.0690
     13 C           2.2582    4.8939    0.2805 C.1     1  LIG1       -0.1139
     14 H           2.6951    5.8641    0.3378 H       1  LIG1        0.1232
     15 C           4.1290    0.5502    1.0039 C.ar    1  LIG1        0.1252
     16 C           5.5181    0.5639    0.9472 C.ar    1  LIG1       -0.0106
     17 C           3.3690    1.3020    0.0941 C.ar    1  LIG1        0.0260
     18 C           6.2114    1.3048   -0.0074 C.ar    1  LIG1        0.0045
     19 H           6.0836   -0.0059    1.6795 H       1  LIG1        0.0661
     20 C           4.0613    2.0390   -0.8565 C.ar    1  LIG1       -0.0345
     21 C           5.4583    2.0535   -0.9312 C.ar    1  LIG1        0.0333
     22 H           3.5008    2.6231   -1.5760 H       1  LIG1        0.0637
     23 O           3.4702   -0.1751    1.9431 O.3     1  LIG1       -0.5061
     24 H           4.1098   -0.5876    2.5361 H       1  LIG1        0.2922
     25 C           6.0850    2.8278   -1.9593 C.1     1  LIG1       -0.0690
     26 C           6.6140    3.5126   -2.7985 C.1     1  LIG1       -0.1139
     27 H           7.0859    4.0984   -3.5540 H       1  LIG1        0.1232
     28 C           8.5418    2.3482    0.0662 C.ar    1  LIG1        0.1252
     29 C           9.9216    2.1721    0.1710 C.ar    1  LIG1       -0.0106
     30 C           7.6975    1.2272   -0.0124 C.ar    1  LIG1        0.0260
     31 C          10.5143    0.9125    0.1866 C.ar    1  LIG1        0.0045
     32 H          10.5338    3.0671    0.2028 H       1  LIG1        0.0661
     33 C           8.2983   -0.0310   -0.0047 C.ar    1  LIG1       -0.0345
     34 C           9.6776   -0.2192    0.0930 C.ar    1  LIG1        0.0333
     35 H           7.6652   -0.9086   -0.0741 H       1  LIG1        0.0637
     36 O           8.1054    3.6278    0.1012 O.3     1  LIG1       -0.5061
     37 H           7.2881    3.7219   -0.4083 H       1  LIG1        0.2922
     38 C          10.1905   -1.5560    0.1188 C.1     1  LIG1       -0.0690
     39 C          10.5829   -2.6939    0.1432 C.1     1  LIG1       -0.1139
     40 H          10.9502   -3.6940    0.1631 H       1  LIG1        0.1232
     41 C          12.6793    1.4012    1.3588 C.ar    1  LIG1        0.1246
     42 C          14.0679    1.3104    1.4425 C.ar    1  LIG1       -0.0184
     43 C          11.9932    0.8001    0.2912 C.ar    1  LIG1        0.0260
     44 C          14.7813    0.6311    0.4745 C.ar    1  LIG1       -0.0429
     45 H          14.5634    1.7822    2.2830 H       1  LIG1        0.0654
     46 C          12.7301    0.1123   -0.6696 C.ar    1  LIG1       -0.0351
     47 C          14.1206    0.0193   -0.5990 C.ar    1  LIG1        0.0255
     48 H          12.2104   -0.3577   -1.4961 H       1  LIG1        0.0637
     49 H          15.8615    0.5654    0.5409 H       1  LIG1        0.0631
     50 O          12.0497    2.0768    2.3514 O.3     1  LIG1       -0.5062
     51 H          11.0939    2.0392    2.2090 H       1  LIG1        0.2922
     52 C          14.8555   -0.6846   -1.6057 C.1     1  LIG1       -0.0696
     53 C          15.4768   -1.2757   -2.4511 C.1     1  LIG1       -0.1139
     54 H          16.0254   -1.7979   -3.2003 H       1  LIG1        0.1232
@<TRIPOS>BOND
     1    27    26    1
     2    54    53    1
     3    26    25    3
     4    53    52    3
     5    25    21    1
     6    52    47    1
     7    22    20    1
     8    48    46    1
     9    21    20   ar
    10    21    18   ar
    11    20    17   ar
    12    46    47   ar
    13    46    43   ar
    14    47    44   ar
    15    37    36    1
    16    35    33    1
    17    30    18    1
    18    30    33   ar
    19    30    28   ar
    20    18    16   ar
    21    33    34   ar
    22    28    36    1
    23    28    29   ar
    24    10    11    1
    25    10     1    1
    26    34    38    1
    27    34    31   ar
    28    17     4    1
    29    17    15   ar
    30     5     2    1
    31     1     2   ar
    32     1     3   ar
    33     2     4   ar
    34     9     3    1
    35     3     6   ar
    36    38    39    3
    37     4     7   ar
    38    39    40    1
    39     6     7   ar
    40     6     8    1
    41     7    12    1
    42    29    31   ar
    43    29    32    1
    44    31    43    1
    45    12    13    3
    46    13    14    1
    47    43    41   ar
    48    44    49    1
    49    44    42   ar
    50    16    15   ar
    51    16    19    1
    52    15    23    1
    53    41    42   ar
    54    41    50    1
    55    42    45    1
    56    23    24    1
    57    51    50    1
