@<TRIPOS>MOLECULE
mol_data/opt/cam/geoms/mol2/4fe4fe4fe-4fe.out
 54 57 0 0 0
SMALL
GASTEIGER

@<TRIPOS>ATOM
      1 C          -0.0425    1.1231    1.7569 C.ar    1  LIG1        0.1175
      2 C           1.3373    1.1403    1.5949 C.ar    1  LIG1       -0.0112
      3 C          -0.8768    1.2953    0.6544 C.ar    1  LIG1       -0.0190
      4 C           1.9149    1.3255    0.3400 C.ar    1  LIG1        0.0045
      5 H           1.9823    1.0003    2.4566 H       1  LIG1        0.0660
      6 C          -0.3145    1.4737   -0.5936 C.ar    1  LIG1       -0.0423
      7 C           1.0757    1.4908   -0.7787 C.ar    1  LIG1        0.0327
      8 H          -0.9533    1.5988   -1.4606 H       1  LIG1        0.0631
      9 H          -1.9509    1.2810    0.7966 H       1  LIG1        0.0654
     10 O          -0.6311    0.9485    2.9682 O.3     1  LIG1       -0.5067
     11 H           0.0493    0.8281    3.6411 H       1  LIG1        0.2921
     12 C           1.5863    1.6486   -2.1077 C.1     1  LIG1       -0.0690
     13 C           1.9708    1.7794   -3.2415 C.1     1  LIG1       -0.1139
     14 H           2.3250    1.8917   -4.2400 H       1  LIG1        0.1232
     15 C           4.2165    0.3639    0.7428 C.ar    1  LIG1        0.1252
     16 C           5.5995    0.4425    0.6259 C.ar    1  LIG1       -0.0106
     17 C           3.3956    1.3746    0.2190 C.ar    1  LIG1        0.0260
     18 C           6.2297    1.5140   -0.0031 C.ar    1  LIG1        0.0045
     19 H           6.2126   -0.3465    1.0524 H       1  LIG1        0.0661
     20 C           4.0243    2.4430   -0.4054 C.ar    1  LIG1       -0.0345
     21 C           5.4149    2.5348   -0.5282 C.ar    1  LIG1        0.0333
     22 H           3.4167    3.2368   -0.8222 H       1  LIG1        0.0637
     23 O           3.6228   -0.6855    1.3679 O.3     1  LIG1       -0.5061
     24 H           4.2975   -1.3246    1.6271 H       1  LIG1        0.2922
     25 C           5.9720    3.6726   -1.1944 C.1     1  LIG1       -0.0690
     26 C           6.4435    4.6516   -1.7166 C.1     1  LIG1       -0.1139
     27 H           6.8644    5.5030   -2.2007 H       1  LIG1        0.1232
     28 C           8.5489    2.5189    0.3655 C.ar    1  LIG1        0.1252
     29 C           9.9329    2.3547    0.3416 C.ar    1  LIG1       -0.0106
     30 C           7.7142    1.4912   -0.1049 C.ar    1  LIG1        0.0260
     31 C          10.5326    1.2070   -0.1549 C.ar    1  LIG1        0.0045
     32 H          10.5402    3.1712    0.7150 H       1  LIG1        0.0661
     33 C           8.3260    0.3411   -0.6047 C.ar    1  LIG1       -0.0345
     34 C           9.7094    0.1735   -0.6442 C.ar    1  LIG1        0.0333
     35 H           7.6995   -0.4620   -0.9766 H       1  LIG1        0.0637
     36 O           8.0947    3.6729    0.9139 O.3     1  LIG1       -0.5061
     37 H           7.2867    3.9612    0.4656 H       1  LIG1        0.2922
     38 C          10.2457   -1.0604   -1.1339 C.1     1  LIG1       -0.0690
     39 C          10.6618   -2.1185   -1.5301 C.1     1  LIG1       -0.1139
     40 H          11.0390   -3.0509   -1.8809 H       1  LIG1        0.1232
     41 C          12.7619    0.9686   -1.3072 C.ar    1  LIG1        0.1246
     42 C          14.1495    0.8649   -1.2527 C.ar    1  LIG1       -0.0184
     43 C          12.0146    1.0909   -0.1266 C.ar    1  LIG1        0.0260
     44 C          14.8088    0.8930   -0.0352 C.ar    1  LIG1       -0.0429
     45 H          14.7159    0.7723   -2.1758 H       1  LIG1        0.0654
     46 C          12.6950    1.1331    1.0840 C.ar    1  LIG1       -0.0351
     47 C          14.0892    1.0332    1.1539 C.ar    1  LIG1        0.0255
     48 H          12.1254    1.2324    2.0014 H       1  LIG1        0.0637
     49 H          15.8893    0.8121    0.0000 H       1  LIG1        0.0631
     50 O          12.0868    0.9850   -2.4825 O.3     1  LIG1       -0.5062
     51 H          12.6979    0.8169   -3.2089 H       1  LIG1        0.2922
     52 C          14.7605    1.0707    2.4174 C.1     1  LIG1       -0.0696
     53 C          15.3270    1.1032    3.4795 C.1     1  LIG1       -0.1139
     54 H          15.8263    1.1323    4.4202 H       1  LIG1        0.1232
@<TRIPOS>BOND
     1    14    13    1
     2    13    12    3
     3    51    50    1
     4    50    41    1
     5    27    26    1
     6    45    42    1
     7    12     7    1
     8    40    39    1
     9    26    25    3
    10    39    38    3
    11     8     6    1
    12    41    42   ar
    13    41    43   ar
    14    42    44   ar
    15    25    21    1
    16    38    34    1
    17    35    33    1
    18    22    20    1
    19     7     6   ar
    20     7     4   ar
    21    34    33   ar
    22    34    31   ar
    23    33    30   ar
    24     6     3   ar
    25    21    20   ar
    26    21    18   ar
    27    20    17   ar
    28    31    43    1
    29    31    29   ar
    30    43    46   ar
    31    30    18    1
    32    30    28   ar
    33    44    49    1
    34    44    47   ar
    35    18    16   ar
    36    17     4    1
    37    17    15   ar
    38     4     2   ar
    39    29    28   ar
    40    29    32    1
    41    28    36    1
    42    37    36    1
    43    16    15   ar
    44    16    19    1
    45     3     9    1
    46     3     1   ar
    47    15    23    1
    48    46    47   ar
    49    46    48    1
    50    47    52    1
    51    23    24    1
    52     2     1   ar
    53     2     5    1
    54     1    10    1
    55    52    53    3
    56    10    11    1
    57    53    54    1
