@<TRIPOS>MOLECULE
mol_data/opt/cam/geoms/mol2/4fe4fe-4fe-4fe.out
 54 57 0 0 0
SMALL
GASTEIGER

@<TRIPOS>ATOM
      1 C           0.0113    1.3396    1.6970 C.ar    1  LIG1        0.1175
      2 C           1.3799    1.2922    1.4557 C.ar    1  LIG1       -0.0112
      3 C          -0.8773    1.5414    0.6416 C.ar    1  LIG1       -0.0190
      4 C           1.8978    1.4398    0.1683 C.ar    1  LIG1        0.0045
      5 H           2.0679    1.1540    2.2850 H       1  LIG1        0.0660
      6 C          -0.3792    1.6908   -0.6359 C.ar    1  LIG1       -0.0423
      7 C           0.9985    1.6409   -0.8964 C.ar    1  LIG1        0.0327
      8 H          -1.0589    1.8444   -1.4665 H       1  LIG1        0.0631
      9 H          -1.9407    1.5789    0.8453 H       1  LIG1        0.0654
     10 O          -0.5146    1.2043    2.9381 O.3     1  LIG1       -0.5067
     11 H           0.1934    1.0743    3.5805 H       1  LIG1        0.2921
     12 C           1.4530    1.7909   -2.2452 C.1     1  LIG1       -0.0690
     13 C           1.8358    1.9606   -3.3758 C.1     1  LIG1       -0.1139
     14 H           2.1798    2.0856   -4.3771 H       1  LIG1        0.1232
     15 C           4.1650    2.3357   -0.5988 C.ar    1  LIG1        0.1252
     16 C           5.5541    2.2100   -0.6023 C.ar    1  LIG1       -0.0106
     17 C           3.3738    1.3398   -0.0014 C.ar    1  LIG1        0.0260
     18 C           6.2062    1.1140   -0.0438 C.ar    1  LIG1        0.0045
     19 H           6.1208    2.9919   -1.0968 H       1  LIG1        0.0661
     20 C           4.0323    0.2391    0.5456 C.ar    1  LIG1       -0.0345
     21 C           5.4207    0.0989    0.5416 C.ar    1  LIG1        0.0333
     22 H           3.4396   -0.5456    1.0024 H       1  LIG1        0.0637
     23 O           3.6723    3.4721   -1.1438 O.3     1  LIG1       -0.5061
     24 H           2.8038    3.3090   -1.5384 H       1  LIG1        0.2922
     25 C           5.9977   -1.0585    1.1564 C.1     1  LIG1       -0.0690
     26 C           6.4453   -2.0418    1.6876 C.1     1  LIG1       -0.1139
     27 H           6.8609   -2.9071    2.1503 H       1  LIG1        0.1232
     28 C           8.4686    2.0877    0.4406 C.ar    1  LIG1        0.1252
     29 C           9.8582    2.0255    0.3783 C.ar    1  LIG1       -0.0106
     30 C           7.6901    1.0463   -0.0852 C.ar    1  LIG1        0.0260
     31 C          10.5085    0.9469   -0.2034 C.ar    1  LIG1        0.0045
     32 H          10.4262    2.8524    0.7885 H       1  LIG1        0.0661
     33 C           8.3491   -0.0414   -0.6508 C.ar    1  LIG1       -0.0345
     34 C           9.7399   -0.1150   -0.7229 C.ar    1  LIG1        0.0333
     35 H           7.7640   -0.8625   -1.0473 H       1  LIG1        0.0637
     36 O           7.9337    3.1841    1.0324 O.3     1  LIG1       -0.5061
     37 H           6.9705    3.0996    1.0519 H       1  LIG1        0.2922
     38 C          10.3459   -1.2830   -1.2871 C.1     1  LIG1       -0.0690
     39 C          10.8254   -2.2864   -1.7487 C.1     1  LIG1       -0.1139
     40 H          11.2561   -3.1716   -2.1556 H       1  LIG1        0.1232
     41 C          12.7111    0.9206   -1.4277 C.ar    1  LIG1        0.1246
     42 C          14.1036    0.9041   -1.4183 C.ar    1  LIG1       -0.0184
     43 C          11.9952    0.9240   -0.2216 C.ar    1  LIG1        0.0260
     44 C          14.7980    0.9018   -0.2201 C.ar    1  LIG1       -0.0429
     45 H          14.6452    0.9036   -2.3606 H       1  LIG1        0.0654
     46 C          12.7094    0.9365    0.9699 C.ar    1  LIG1       -0.0351
     47 C          14.1088    0.9231    0.9948 C.ar    1  LIG1        0.0255
     48 H          12.1639    0.9423    1.9070 H       1  LIG1        0.0637
     49 H          15.8820    0.8890   -0.2198 H       1  LIG1        0.0631
     50 O          11.9997    0.9625   -2.5807 O.3     1  LIG1       -0.5062
     51 H          12.5973    0.8745   -3.3322 H       1  LIG1        0.2922
     52 C          14.8161    0.9274    2.2390 C.1     1  LIG1       -0.0696
     53 C          15.4129    0.9320    3.2850 C.1     1  LIG1       -0.1139
     54 H          15.9389    0.9357    4.2114 H       1  LIG1        0.1232
@<TRIPOS>BOND
     1    14    13    1
     2    13    12    3
     3    51    50    1
     4    50    41    1
     5    45    42    1
     6    12     7    1
     7    40    39    1
     8    39    38    3
     9    24    23    1
    10     8     6    1
    11    41    42   ar
    12    41    43   ar
    13    42    44   ar
    14    38    34    1
    15    23    15    1
    16    19    16    1
    17    35    33    1
    18     7     6   ar
    19     7     4   ar
    20    34    33   ar
    21    34    31   ar
    22    33    30   ar
    23     6     3   ar
    24    16    15   ar
    25    16    18   ar
    26    15    17   ar
    27    43    31    1
    28    43    46   ar
    29    44    49    1
    30    44    47   ar
    31    31    29   ar
    32    30    18    1
    33    30    28   ar
    34    18    21   ar
    35    17     4    1
    36    17    20   ar
    37     4     2   ar
    38    29    28   ar
    39    29    32    1
    40    28    36    1
    41    21    20   ar
    42    21    25    1
    43    20    22    1
    44     3     9    1
    45     3     1   ar
    46    46    47   ar
    47    46    48    1
    48    47    52    1
    49    36    37    1
    50    25    26    3
    51     2     1   ar
    52     2     5    1
    53    26    27    1
    54     1    10    1
    55    52    53    3
    56    10    11    1
    57    53    54    1
