@<TRIPOS>MOLECULE
mol_data/opt/cam/geoms/mol2/4fe4fe-4fe4fe.out
 54 57 0 0 0
SMALL
GASTEIGER

@<TRIPOS>ATOM
      1 C           0.0308    1.2017    1.6283 C.ar    1  LIG1        0.1175
      2 C           1.3973    1.1959    1.3727 C.ar    1  LIG1       -0.0112
      3 C          -0.8755    1.3643    0.5814 C.ar    1  LIG1       -0.0190
      4 C           1.8978    1.3472    0.0787 C.ar    1  LIG1        0.0045
      5 H           2.0984    1.0886    2.1955 H       1  LIG1        0.0660
      6 C          -0.3956    1.5172   -0.7028 C.ar    1  LIG1       -0.0423
      7 C           0.9802    1.5089   -0.9775 C.ar    1  LIG1        0.0327
      8 H          -1.0884    1.6410   -1.5275 H       1  LIG1        0.0631
      9 H          -1.9374    1.3698    0.7964 H       1  LIG1        0.0654
     10 O          -0.4764    1.0618    2.8776 O.3     1  LIG1       -0.5067
     11 H           0.2444    0.9640    3.5113 H       1  LIG1        0.2921
     12 C           1.4145    1.6602   -2.3328 C.1     1  LIG1       -0.0690
     13 C           1.7782    1.8311   -3.4695 C.1     1  LIG1       -0.1139
     14 H           2.1086    1.9572   -4.4751 H       1  LIG1        0.1232
     15 C           4.1264    2.3097   -0.7166 C.ar    1  LIG1        0.1252
     16 C           5.5177    2.2286   -0.7363 C.ar    1  LIG1       -0.0106
     17 C           3.3744    1.2926   -0.1055 C.ar    1  LIG1        0.0260
     18 C           6.2031    1.1564   -0.1847 C.ar    1  LIG1        0.0045
     19 H           6.0599    3.0342   -1.2180 H       1  LIG1        0.0661
     20 C           4.0719    0.2177    0.4463 C.ar    1  LIG1       -0.0345
     21 C           5.4624    0.1218    0.4207 C.ar    1  LIG1        0.0333
     22 H           3.5095   -0.5788    0.9207 H       1  LIG1        0.0637
     23 O           3.5879    3.4298   -1.2584 O.3     1  LIG1       -0.5061
     24 H           2.7236    3.2327   -1.6451 H       1  LIG1        0.2922
     25 C           6.0928   -0.9970    1.0536 C.1     1  LIG1       -0.0690
     26 C           6.5908   -1.9384    1.6154 C.1     1  LIG1       -0.1139
     27 H           7.0414   -2.7689    2.1073 H       1  LIG1        0.1232
     28 C           8.4044    0.1510   -0.9000 C.ar    1  LIG1        0.1252
     29 C           9.7929    0.1711   -0.9155 C.ar    1  LIG1       -0.0106
     30 C           7.6885    1.1468   -0.2215 C.ar    1  LIG1        0.0260
     31 C          10.5188    1.1743   -0.2787 C.ar    1  LIG1        0.0045
     32 H          10.3288   -0.6046   -1.4536 H       1  LIG1        0.0661
     33 C           8.4130    2.1576    0.3928 C.ar    1  LIG1       -0.0345
     34 C           9.8128    2.1965    0.3824 C.ar    1  LIG1        0.0333
     35 H           7.8764    2.9450    0.9103 H       1  LIG1        0.0637
     36 O           7.6949   -0.8047   -1.5488 O.3     1  LIG1       -0.5061
     37 H           8.3001   -1.4560   -1.9219 H       1  LIG1        0.2922
     38 C          10.4686    3.2938    1.0286 C.1     1  LIG1       -0.0690
     39 C          10.9787    4.2357    1.5788 C.1     1  LIG1       -0.1139
     40 H          11.4437    5.0635    2.0622 H       1  LIG1        0.1232
     41 C          12.7251    1.0000   -1.4886 C.ar    1  LIG1        0.1246
     42 C          14.1171    0.9489   -1.4750 C.ar    1  LIG1       -0.0184
     43 C          12.0049    1.1274   -0.2908 C.ar    1  LIG1        0.0260
     44 C          14.8116    1.0157   -0.2799 C.ar    1  LIG1       -0.0429
     45 H          14.6577    0.8562   -2.4135 H       1  LIG1        0.0654
     46 C          12.7234    1.1922    0.8990 C.ar    1  LIG1       -0.0351
     47 C          14.1199    1.1361    0.9281 C.ar    1  LIG1        0.0255
     48 H          12.1829    1.2887    1.8326 H       1  LIG1        0.0637
     49 H          15.8948    0.9731   -0.2758 H       1  LIG1        0.0631
     50 O          12.0266    0.9330   -2.6544 O.3     1  LIG1       -0.5062
     51 H          12.6461    0.9118   -3.3933 H       1  LIG1        0.2922
     52 C          14.8258    1.1981    2.1719 C.1     1  LIG1       -0.0696
     53 C          15.4229    1.2489    3.2163 C.1     1  LIG1       -0.1139
     54 H          15.9480    1.2944    4.1422 H       1  LIG1        0.1232
@<TRIPOS>BOND
     1    14    13    1
     2    13    12    3
     3    51    50    1
     4    50    41    1
     5    45    42    1
     6    12     7    1
     7    37    36    1
     8    24    23    1
     9    36    28    1
    10     8     6    1
    11    41    42   ar
    12    41    43   ar
    13    42    44   ar
    14    32    29    1
    15    23    15    1
    16    19    16    1
    17     7     6   ar
    18     7     4   ar
    19    29    28   ar
    20    29    31   ar
    21    28    30   ar
    22    16    15   ar
    23    16    18   ar
    24    15    17   ar
    25     6     3   ar
    26    43    31    1
    27    43    46   ar
    28    44    49    1
    29    44    47   ar
    30    31    34   ar
    31    30    18    1
    32    30    33   ar
    33    18    21   ar
    34    17     4    1
    35    17    20   ar
    36     4     2   ar
    37    34    33   ar
    38    34    38    1
    39    33    35    1
    40    21    20   ar
    41    21    25    1
    42    20    22    1
    43     3     9    1
    44     3     1   ar
    45    46    47   ar
    46    46    48    1
    47    47    52    1
    48    38    39    3
    49    25    26    3
    50     2     1   ar
    51     2     5    1
    52    39    40    1
    53    26    27    1
    54     1    10    1
    55    52    53    3
    56    10    11    1
    57    53    54    1
