@<TRIPOS>MOLECULE
mol_data/opt/cam/geoms/mol2/4fe4fe.out
 28 29 0 0 0
SMALL
GASTEIGER

@<TRIPOS>ATOM
      1 C           0.0555    0.1503    0.7105 C.ar    1  LIG1        0.1175
      2 C           1.4384    0.1501    0.5785 C.ar    1  LIG1       -0.0112
      3 C          -0.6861    1.2508    0.2863 C.ar    1  LIG1       -0.0190
      4 C           2.1120    1.2360    0.0222 C.ar    1  LIG1        0.0045
      5 H           2.0101   -0.7127    0.9060 H       1  LIG1        0.0660
      6 C          -0.0292    2.3294   -0.2712 C.ar    1  LIG1       -0.0423
      7 C           1.3658    2.3466   -0.4167 C.ar    1  LIG1        0.0327
      8 H          -0.5956    3.1878   -0.6143 H       1  LIG1        0.0631
      9 H          -1.7639    1.2374    0.3973 H       1  LIG1        0.0654
     10 O          -0.6241   -0.8940    1.2523 O.3     1  LIG1       -0.5067
     11 H          -0.0013   -1.5903    1.4921 H       1  LIG1        0.2921
     12 C           1.9736    3.4874   -1.0339 C.1     1  LIG1       -0.0690
     13 C           2.4399    4.4642   -1.5619 C.1     1  LIG1       -0.1139
     14 H           2.8683    5.3217   -2.0270 H       1  LIG1        0.1232
     15 C           4.2748    0.1375   -0.6689 C.ar    1  LIG1        0.1246
     16 C           5.6664    0.1263   -0.7300 C.ar    1  LIG1       -0.0184
     17 C           3.5966    1.2073   -0.0645 C.ar    1  LIG1        0.0260
     18 C           6.4024    1.1662   -0.1898 C.ar    1  LIG1       -0.0429
     19 H           6.1737   -0.7081   -1.2076 H       1  LIG1        0.0654
     20 C           4.3565    2.2416    0.4728 C.ar    1  LIG1       -0.0351
     21 C           5.7536    2.2409    0.4237 C.ar    1  LIG1        0.0255
     22 H           3.8490    3.0740    0.9446 H       1  LIG1        0.0637
     23 H           7.4852    1.1505   -0.2386 H       1  LIG1        0.0631
     24 O           3.5359   -0.8780   -1.1927 O.3     1  LIG1       -0.5062
     25 H           4.1252   -1.5060   -1.6269 H       1  LIG1        0.2922
     26 C           6.5031    3.3190    0.9938 C.1     1  LIG1       -0.0696
     27 C           7.1368    4.2237    1.4731 C.1     1  LIG1       -0.1139
     28 H           7.6945    5.0258    1.8982 H       1  LIG1        0.1232
@<TRIPOS>BOND
     1    14    13    1
     2    25    24    1
     3    13    12    3
     4    19    16    1
     5    24    15    1
     6    12     7    1
     7    16    15   ar
     8    16    18   ar
     9    15    17   ar
    10     8     6    1
    11     7     6   ar
    12     7     4   ar
    13     6     3   ar
    14    23    18    1
    15    18    21   ar
    16    17     4    1
    17    17    20   ar
    18     4     2   ar
    19     3     9    1
    20     3     1   ar
    21    21    20   ar
    22    21    26    1
    23    20    22    1
    24     2     1   ar
    25     2     5    1
    26     1    10    1
    27    26    27    3
    28    10    11    1
    29    27    28    1
