@<TRIPOS>MOLECULE
mol_data/opt/cam/geoms/mol2/4fe4fe-4fe.out
 41 43 0 0 0
SMALL
GASTEIGER

@<TRIPOS>ATOM
      1 C          -0.0276   -0.0163    0.4896 C.ar    1  LIG1        0.1175
      2 C           1.3588    0.0869    0.4762 C.ar    1  LIG1       -0.0112
      3 C          -0.8138    1.0880    0.1634 C.ar    1  LIG1       -0.0190
      4 C           1.9976    1.2806    0.1376 C.ar    1  LIG1        0.0045
      5 H           1.9658   -0.7714    0.7501 H       1  LIG1        0.0660
      6 C          -0.1963    2.2751   -0.1717 C.ar    1  LIG1       -0.0423
      7 C           1.2014    2.3940   -0.1946 C.ar    1  LIG1        0.0327
      8 H          -0.7948    3.1409   -0.4317 H       1  LIG1        0.0631
      9 H          -1.8929    0.9933    0.1812 H       1  LIG1        0.0654
     10 O          -0.6687   -1.1638    0.8203 O.3     1  LIG1       -0.5067
     11 H          -0.0216   -1.8484    1.0288 H       1  LIG1        0.2921
     12 C           1.7815    3.6493   -0.5636 C.1     1  LIG1       -0.0690
     13 C           2.2652    4.7201   -0.8333 C.1     1  LIG1       -0.1139
     14 H           2.7010    5.6574   -1.0937 H       1  LIG1        0.1232
     15 C           4.2774    2.1823    0.8551 C.ar    1  LIG1        0.1252
     16 C           5.6632    2.0323    0.8733 C.ar    1  LIG1       -0.0106
     17 C           3.4863    1.2879    0.1151 C.ar    1  LIG1        0.0260
     18 C           6.3064    1.0287    0.1648 C.ar    1  LIG1        0.0045
     19 H           6.2345    2.7273    1.4779 H       1  LIG1        0.0661
     20 C           4.1433    0.2938   -0.6108 C.ar    1  LIG1       -0.0345
     21 C           5.5294    0.1466   -0.6122 C.ar    1  LIG1        0.0333
     22 H           3.5519   -0.3884   -1.2113 H       1  LIG1        0.0637
     23 O           3.7776    3.1751    1.6306 O.3     1  LIG1       -0.5061
     24 H           2.9580    3.5187    1.2492 H       1  LIG1        0.2922
     25 C           6.1205   -0.8699   -1.4289 C.1     1  LIG1       -0.0690
     26 C           6.5868   -1.7219   -2.1405 C.1     1  LIG1       -0.1139
     27 H           7.0083   -2.4703   -2.7706 H       1  LIG1        0.1232
     28 C           8.4464   -0.1803    0.7198 C.ar    1  LIG1        0.1246
     29 C           9.8377   -0.2305    0.7514 C.ar    1  LIG1       -0.0184
     30 C           7.7903    0.9471    0.2047 C.ar    1  LIG1        0.0260
     31 C          10.5897    0.8348    0.2851 C.ar    1  LIG1       -0.0429
     32 H          10.3326   -1.1098    1.1554 H       1  LIG1        0.0654
     33 C           8.5616    2.0116   -0.2449 C.ar    1  LIG1       -0.0351
     34 C           9.9604    1.9766   -0.2168 C.ar    1  LIG1        0.0255
     35 H           8.0625    2.8884   -0.6422 H       1  LIG1        0.0637
     36 H          11.6725    0.7893    0.3124 H       1  LIG1        0.0631
     37 O           7.6793   -1.1885    1.2030 O.3     1  LIG1       -0.5062
     38 H           8.2429   -1.9281    1.4581 H       1  LIG1        0.2922
     39 C          10.7275    3.0858   -0.6960 C.1     1  LIG1       -0.0696
     40 C          11.3746    4.0184   -1.0980 C.1     1  LIG1       -0.1139
     41 H          11.9455    4.8441   -1.4547 H       1  LIG1        0.1232
@<TRIPOS>BOND
     1    27    26    1
     2    26    25    3
     3    41    40    1
     4    25    21    1
     5    22    20    1
     6    40    39    3
     7    14    13    1
     8    13    12    3
     9    39    34    1
    10    35    33    1
    11    21    20   ar
    12    21    18   ar
    13    20    17   ar
    14    12     7    1
    15     8     6    1
    16    33    34   ar
    17    33    30   ar
    18    34    31   ar
    19     7     6   ar
    20     7     4   ar
    21     6     3   ar
    22    17     4    1
    23    17    15   ar
    24     4     2   ar
    25     3     9    1
    26     3     1   ar
    27    18    30    1
    28    18    16   ar
    29    30    28   ar
    30    31    36    1
    31    31    29   ar
    32     2     1   ar
    33     2     5    1
    34     1    10    1
    35    28    29   ar
    36    28    37    1
    37    29    32    1
    38    10    11    1
    39    15    16   ar
    40    15    23    1
    41    16    19    1
    42    37    38    1
    43    24    23    1
