@<TRIPOS>MOLECULE
mol_data/opt/cam/geoms/mol2/4fe4fe4fe.out
 41 43 0 0 0
SMALL
GASTEIGER

@<TRIPOS>ATOM
      1 C           0.0185    0.4830    1.3094 C.ar    1  LIG1        0.1175
      2 C           1.3979    0.4829    1.1456 C.ar    1  LIG1       -0.0112
      3 C          -0.7830    1.2650    0.4805 C.ar    1  LIG1       -0.0190
      4 C           2.0096    1.2531    0.1577 C.ar    1  LIG1        0.0045
      5 H           2.0164   -0.1332    1.7906 H       1  LIG1        0.0660
      6 C          -0.1880    2.0271   -0.5049 C.ar    1  LIG1       -0.0423
      7 C           1.2024    2.0375   -0.6891 C.ar    1  LIG1        0.0327
      8 H          -0.8012    2.6322   -1.1631 H       1  LIG1        0.0631
      9 H          -1.8574    1.2564    0.6213 H       1  LIG1        0.0654
     10 O          -0.6006   -0.2564    2.2666 O.3     1  LIG1       -0.5067
     11 H           0.0597   -0.7586    2.7585 H       1  LIG1        0.2921
     12 C           1.7423    2.8280   -1.7546 C.1     1  LIG1       -0.0690
     13 C           2.1494    3.5033   -2.6648 C.1     1  LIG1       -0.1139
     14 H           2.5273    4.0951   -3.4661 H       1  LIG1        0.1232
     15 C           4.2227    0.0552   -0.0469 C.ar    1  LIG1        0.1252
     16 C           5.6086    0.0794   -0.1362 C.ar    1  LIG1       -0.0106
     17 C           3.4918    1.2488    0.0449 C.ar    1  LIG1        0.0260
     18 C           6.3242    1.2727   -0.1346 C.ar    1  LIG1        0.0045
     19 H           6.1501   -0.8579   -0.2186 H       1  LIG1        0.0661
     20 C           4.2103    2.4375    0.0419 C.ar    1  LIG1       -0.0345
     21 C           5.6058    2.4800   -0.0455 C.ar    1  LIG1        0.0333
     22 H           3.6713    3.3747    0.1045 H       1  LIG1        0.0637
     23 O           3.5397   -1.1222   -0.0439 O.3     1  LIG1       -0.5061
     24 H           4.1618   -1.8450   -0.1887 H       1  LIG1        0.2922
     25 C           6.2462    3.7615   -0.0658 C.1     1  LIG1       -0.0690
     26 C           6.7434    4.8580   -0.0836 C.1     1  LIG1       -0.1139
     27 H           7.1965    5.8221   -0.1002 H       1  LIG1        0.1232
     28 C           8.4894    0.5185   -1.1852 C.ar    1  LIG1        0.1246
     29 C           9.8818    0.4951   -1.2143 C.ar    1  LIG1       -0.0184
     30 C           7.8094    1.2403   -0.1917 C.ar    1  LIG1        0.0260
     31 C          10.6169    1.1763   -0.2602 C.ar    1  LIG1       -0.0429
     32 H          10.3906   -0.0642   -1.9954 H       1  LIG1        0.0654
     33 C           8.5685    1.9168    0.7583 C.ar    1  LIG1       -0.0351
     34 C           9.9662    1.8967    0.7448 C.ar    1  LIG1        0.0255
     35 H           8.0601    2.4771    1.5331 H       1  LIG1        0.0637
     36 H          11.7003    1.1523   -0.2871 H       1  LIG1        0.0631
     37 O           7.7517   -0.1492   -2.1134 O.3     1  LIG1       -0.5062
     38 H           8.3439   -0.5375   -2.7681 H       1  LIG1        0.2922
     39 C          10.7144    2.5984    1.7432 C.1     1  LIG1       -0.0696
     40 C          11.3469    3.1865    2.5822 C.1     1  LIG1       -0.1139
     41 H          11.9036    3.7080    3.3261 H       1  LIG1        0.1232
@<TRIPOS>BOND
     1    14    13    1
     2    38    37    1
     3    13    12    3
     4    37    28    1
     5    32    29    1
     6    12     7    1
     7    29    28   ar
     8    29    31   ar
     9    28    30   ar
    10     8     6    1
    11     7     6   ar
    12     7     4   ar
    13     6     3   ar
    14    36    31    1
    15    31    34   ar
    16    19    16    1
    17    30    18    1
    18    30    33   ar
    19    24    23    1
    20    16    18   ar
    21    16    15   ar
    22    18    21   ar
    23    27    26    1
    24    26    25    3
    25    25    21    1
    26    15    23    1
    27    15    17   ar
    28    21    20   ar
    29    20    17   ar
    30    20    22    1
    31    17     4    1
    32     4     2   ar
    33     3     9    1
    34     3     1   ar
    35    34    33   ar
    36    34    39    1
    37    33    35    1
    38     2     1   ar
    39     2     5    1
    40     1    10    1
    41    39    40    3
    42    10    11    1
    43    40    41    1
