@<TRIPOS>MOLECULE
mol_data/opt/cam/geoms/mol2/4fe4fe-.out
 28 29 0 0 0
SMALL
GASTEIGER

@<TRIPOS>ATOM
      1 C          -0.0257    0.2142    0.6369 C.ar    1  LIG1        0.1175
      2 C           1.3643    0.2147    0.6728 C.ar    1  LIG1       -0.0112
      3 C          -0.7087    1.2890    0.0681 C.ar    1  LIG1       -0.0190
      4 C           2.1017    1.2725    0.1406 C.ar    1  LIG1        0.0045
      5 H           1.8952   -0.6148    1.1319 H       1  LIG1        0.0660
      6 C           0.0097    2.3406   -0.4625 C.ar    1  LIG1       -0.0423
      7 C           1.4135    2.3547   -0.4434 C.ar    1  LIG1        0.0327
      8 H          -0.5110    3.1760   -0.9169 H       1  LIG1        0.0631
      9 H          -1.7921    1.2762    0.0517 H       1  LIG1        0.0654
     10 O          -0.7685   -0.7982    1.1473 O.3     1  LIG1       -0.5067
     11 H          -0.1871   -1.4780    1.5086 H       1  LIG1        0.2921
     12 C           2.1081    3.4546   -1.0433 C.1     1  LIG1       -0.0690
     13 C           2.6724    4.3962   -1.5379 C.1     1  LIG1       -0.1139
     14 H           3.1852    5.2213   -1.9761 H       1  LIG1        0.1232
     15 C           4.3549    2.1508    0.8856 C.ar    1  LIG1        0.1246
     16 C           5.7404    2.0108    0.9605 C.ar    1  LIG1       -0.0184
     17 C           3.5877    1.2000    0.1929 C.ar    1  LIG1        0.0260
     18 C           6.3723    0.9422    0.3553 C.ar    1  LIG1       -0.0429
     19 H           6.3000    2.7604    1.5078 H       1  LIG1        0.0654
     20 C           4.2439    0.1265   -0.4054 C.ar    1  LIG1       -0.0351
     21 C           5.6306   -0.0202   -0.3415 C.ar    1  LIG1        0.0255
     22 H           3.6589   -0.6100   -0.9453 H       1  LIG1        0.0637
     23 H           7.4502    0.8422    0.4157 H       1  LIG1        0.0631
     24 O           3.8182    3.2091    1.5351 O.3     1  LIG1       -0.5062
     25 H           2.8797    3.2871    1.3216 H       1  LIG1        0.2922
     26 C           6.2760   -1.1302   -0.9737 C.1     1  LIG1       -0.0696
     27 C           6.8203   -2.0645   -1.5038 C.1     1  LIG1       -0.1139
     28 H           7.3025   -2.8893   -1.9752 H       1  LIG1        0.1232
@<TRIPOS>BOND
     1    14    13    1
     2    28    27    1
     3    13    12    3
     4    27    26    3
     5    12     7    1
     6    26    21    1
     7    22    20    1
     8     8     6    1
     9     6     7   ar
    10     6     3   ar
    11     7     4   ar
    12    20    21   ar
    13    20    17   ar
    14    21    18   ar
    15     9     3    1
    16     3     1   ar
    17     4    17    1
    18     4     2   ar
    19    17    15   ar
    20    18    23    1
    21    18    16   ar
    22     1     2   ar
    23     1    10    1
    24     2     5    1
    25    15    16   ar
    26    15    24    1
    27    16    19    1
    28    10    11    1
    29    25    24    1
