@<TRIPOS>MOLECULE
mol_data/opt/cam/geoms/mol2/4fe4fe-4fe4fe-.out
 54 57 0 0 0
SMALL
GASTEIGER

@<TRIPOS>ATOM
      1 C          -0.0709    1.4744    1.3709 C.ar    1  LIG1        0.1175
      2 C           1.3074    1.3848    1.2122 C.ar    1  LIG1       -0.0112
      3 C          -0.8912    1.6652    0.2597 C.ar    1  LIG1       -0.0190
      4 C           1.9037    1.4782   -0.0462 C.ar    1  LIG1        0.0045
      5 H           1.9425    1.2558    2.0841 H       1  LIG1        0.0660
      6 C          -0.3156    1.7617   -0.9901 C.ar    1  LIG1       -0.0423
      7 C           1.0730    1.6686   -1.1674 C.ar    1  LIG1        0.0327
      8 H          -0.9414    1.9064   -1.8635 H       1  LIG1        0.0631
      9 H          -1.9633    1.7362    0.3993 H       1  LIG1        0.0654
     10 O          -0.6709    1.3917    2.5832 O.3     1  LIG1       -0.5067
     11 H          -0.0036    1.2654    3.2684 H       1  LIG1        0.2921
     12 C           1.6082    1.7647   -2.4913 C.1     1  LIG1       -0.0690
     13 C           2.0585    1.8895   -3.6026 C.1     1  LIG1       -0.1139
     14 H           2.4628    1.9749   -4.5853 H       1  LIG1        0.1232
     15 C           4.2334    2.2948   -0.7012 C.ar    1  LIG1        0.1252
     16 C           5.6161    2.1338   -0.6246 C.ar    1  LIG1       -0.0106
     17 C           3.3838    1.3351   -0.1260 C.ar    1  LIG1        0.0260
     18 C           6.1969    1.0353   -0.0095 C.ar    1  LIG1        0.0045
     19 H           6.2354    2.8971   -1.0815 H       1  LIG1        0.0661
     20 C           3.9778    0.2332    0.4898 C.ar    1  LIG1       -0.0345
     21 C           5.3589    0.0571    0.5611 C.ar    1  LIG1        0.0333
     22 H           3.3388   -0.5201    0.9371 H       1  LIG1        0.0637
     23 O           3.8001    3.4320   -1.2968 O.3     1  LIG1       -0.5061
     24 H           2.9484    3.2808   -1.7296 H       1  LIG1        0.2922
     25 C           5.8818   -1.0826    1.2518 C.1     1  LIG1       -0.0690
     26 C           6.2917   -2.0387    1.8581 C.1     1  LIG1       -0.1139
     27 H           6.6607   -2.8848    2.3901 H       1  LIG1        0.1232
     28 C           8.3769   -0.1092   -0.5647 C.ar    1  LIG1        0.1252
     29 C           9.7625   -0.1766   -0.4786 C.ar    1  LIG1       -0.0106
     30 C           7.6784    0.9374    0.0566 C.ar    1  LIG1        0.0260
     31 C          10.5033    0.7883    0.2011 C.ar    1  LIG1        0.0045
     32 H          10.2879   -1.0024   -0.9507 H       1  LIG1        0.0661
     33 C           8.4175    1.9067    0.7166 C.ar    1  LIG1       -0.0345
     34 C           9.8159    1.8602    0.8026 C.ar    1  LIG1        0.0333
     35 H           7.8953    2.7315    1.1887 H       1  LIG1        0.0637
     36 O           7.6557   -1.0234   -1.2532 O.3     1  LIG1       -0.5061
     37 H           8.2372   -1.7223   -1.5748 H       1  LIG1        0.2922
     38 C          10.5072    2.9168    1.4791 C.1     1  LIG1       -0.0690
     39 C          11.0700    3.8057    2.0646 C.1     1  LIG1       -0.1139
     40 H          11.5803    4.5887    2.5766 H       1  LIG1        0.1232
     41 C          12.6888    0.5211    1.4450 C.ar    1  LIG1        0.1246
     42 C          14.0717    0.3411    1.4320 C.ar    1  LIG1       -0.0184
     43 C          11.9854    0.6585    0.2372 C.ar    1  LIG1        0.0260
     44 C          14.7633    0.2976    0.2374 C.ar    1  LIG1       -0.0429
     45 H          14.5811    0.2334    2.3826 H       1  LIG1        0.0654
     46 C          12.7010    0.6058   -0.9569 C.ar    1  LIG1       -0.0351
     47 C          14.0857    0.4310   -0.9812 C.ar    1  LIG1        0.0255
     48 H          12.1655    0.7150   -1.8937 H       1  LIG1        0.0637
     49 H          15.8387    0.1598    0.2360 H       1  LIG1        0.0631
     50 O          12.0900    0.5174    2.6578 O.3     1  LIG1       -0.5062
     51 H          11.1600    0.7623    2.5687 H       1  LIG1        0.2922
     52 C          14.7932    0.3882   -2.2245 C.1     1  LIG1       -0.0696
     53 C          15.3896    0.3501   -3.2701 C.1     1  LIG1       -0.1139
     54 H          15.9179    0.3191   -4.1947 H       1  LIG1        0.1232
@<TRIPOS>BOND
     1    14    13    1
     2    54    53    1
     3    13    12    3
     4    53    52    3
     5    12     7    1
     6    52    47    1
     7    48    46    1
     8     8     6    1
     9    24    23    1
    10    37    36    1
    11    23    15    1
    12    36    28    1
    13     7     6   ar
    14     7     4   ar
    15    19    16    1
    16     6     3   ar
    17    47    46   ar
    18    47    44   ar
    19    46    43   ar
    20    32    29    1
    21    15    16   ar
    22    15    17   ar
    23    16    18   ar
    24    28    29   ar
    25    28    30   ar
    26    29    31   ar
    27    17     4    1
    28    17    20   ar
    29     4     2   ar
    30    18    30    1
    31    18    21   ar
    32    30    33   ar
    33    31    43    1
    34    31    34   ar
    35    49    44    1
    36    43    41   ar
    37    44    42   ar
    38     3     9    1
    39     3     1   ar
    40    20    21   ar
    41    20    22    1
    42    21    25    1
    43    33    34   ar
    44    33    35    1
    45    34    38    1
    46     2     1   ar
    47     2     5    1
    48    25    26    3
    49     1    10    1
    50    42    41   ar
    51    42    45    1
    52    41    50    1
    53    38    39    3
    54    26    27    1
    55    39    40    1
    56    51    50    1
    57    10    11    1
