@<TRIPOS>MOLECULE
mol_data/opt/cam/geoms/mol2/4fe4fe-4fe-4fe-.out
 54 57 0 0 0
SMALL
GASTEIGER

@<TRIPOS>ATOM
      1 C          -0.2122    0.3195    0.8171 C.ar    1  LIG1        0.1175
      2 C           1.1774    0.3082    0.7615 C.ar    1  LIG1       -0.0112
      3 C          -0.9237    1.3738    0.2441 C.ar    1  LIG1       -0.0190
      4 C           1.8828    1.3339    0.1326 C.ar    1  LIG1        0.0045
      5 H           1.7320   -0.5041    1.2232 H       1  LIG1        0.0660
      6 C          -0.2360    2.3930   -0.3815 C.ar    1  LIG1       -0.0423
      7 C           1.1662    2.3952   -0.4551 C.ar    1  LIG1        0.0327
      8 H          -0.7806    3.2109   -0.8395 H       1  LIG1        0.0631
      9 H          -2.0058    1.3704    0.2995 H       1  LIG1        0.0654
     10 O          -0.9270   -0.6593    1.4213 O.3     1  LIG1       -0.5067
     11 H          -0.3304   -1.3288    1.7771 H       1  LIG1        0.2921
     12 C           1.8276    3.4583   -1.1510 C.1     1  LIG1       -0.0690
     13 C           2.3636    4.3698   -1.7271 C.1     1  LIG1       -0.1139
     14 H           2.8445    5.1717   -2.2390 H       1  LIG1        0.1232
     15 C           4.1853    2.2313    0.6762 C.ar    1  LIG1        0.1252
     16 C           5.5710    2.0835    0.6585 C.ar    1  LIG1       -0.0106
     17 C           3.3679    1.2537    0.0891 C.ar    1  LIG1        0.0260
     18 C           6.1859    0.9815    0.0687 C.ar    1  LIG1        0.0045
     19 H           6.1632    2.8414    1.1604 H       1  LIG1        0.0661
     20 C           3.9865    0.1516   -0.4922 C.ar    1  LIG1       -0.0345
     21 C           5.3739   -0.0065   -0.5267 C.ar    1  LIG1        0.0333
     22 H           3.3679   -0.6084   -0.9568 H       1  LIG1        0.0637
     23 O           3.7062    3.3212    1.3121 O.3     1  LIG1       -0.5061
     24 H           2.7512    3.3888    1.1829 H       1  LIG1        0.2922
     25 C           5.9223   -1.1549   -1.1826 C.1     1  LIG1       -0.0690
     26 C           6.3471   -2.1312   -1.7445 C.1     1  LIG1       -0.1139
     27 H           6.7394   -2.9888   -2.2408 H       1  LIG1        0.1232
     28 C           8.4544    1.9259   -0.4445 C.ar    1  LIG1        0.1252
     29 C           9.8444    1.8348   -0.4201 C.ar    1  LIG1       -0.0106
     30 C           7.6691    0.8865    0.0761 C.ar    1  LIG1        0.0260
     31 C          10.4947    0.7255    0.1155 C.ar    1  LIG1        0.0045
     32 H          10.4127    2.6406   -0.8723 H       1  LIG1        0.0661
     33 C           8.3222   -0.2225    0.6029 C.ar    1  LIG1       -0.0345
     34 C           9.7141   -0.3248    0.6440 C.ar    1  LIG1        0.0333
     35 H           7.7318   -1.0348    1.0098 H       1  LIG1        0.0637
     36 O           7.9274    3.0399   -1.0041 O.3     1  LIG1       -0.5061
     37 H           6.9626    2.9671   -1.0183 H       1  LIG1        0.2922
     38 C          10.3026   -1.4849    1.2428 C.1     1  LIG1       -0.0690
     39 C          10.7620   -2.4718    1.7570 C.1     1  LIG1       -0.1139
     40 H          11.1858   -3.3382    2.2099 H       1  LIG1        0.1232
     41 C          12.7228    1.7110    0.7190 C.ar    1  LIG1        0.1246
     42 C          14.1163    1.6788    0.6988 C.ar    1  LIG1       -0.0184
     43 C          11.9814    0.6830    0.1146 C.ar    1  LIG1        0.0260
     44 C          14.7800    0.6369    0.0813 C.ar    1  LIG1       -0.0429
     45 H          14.6556    2.4866    1.1796 H       1  LIG1        0.0654
     46 C          12.6693   -0.3633   -0.4941 C.ar    1  LIG1       -0.0351
     47 C          14.0639   -0.4034   -0.5254 C.ar    1  LIG1        0.0255
     48 H          12.1067   -1.1638   -0.9597 H       1  LIG1        0.0637
     49 H          15.8639    0.6166    0.0643 H       1  LIG1        0.0631
     50 O          12.1437    2.7615    1.3508 O.3     1  LIG1       -0.5062
     51 H          11.1828    2.6527    1.3365 H       1  LIG1        0.2922
     52 C          14.7474   -1.4848   -1.1677 C.1     1  LIG1       -0.0696
     53 C          15.3260   -2.3926   -1.7076 C.1     1  LIG1       -0.1139
     54 H          15.8367   -3.1955   -2.1865 H       1  LIG1        0.1232
@<TRIPOS>BOND
     1    27    26    1
     2    14    13    1
     3    54    53    1
     4    26    25    3
     5    13    12    3
     6    53    52    3
     7    25    21    1
     8    52    47    1
     9    12     7    1
    10    37    36    1
    11    36    28    1
    12    48    46    1
    13    22    20    1
    14    32    29    1
    15     8     6    1
    16    21    20   ar
    17    21    18   ar
    18    47    46   ar
    19    47    44   ar
    20    46    43   ar
    21    20    17   ar
    22     7     6   ar
    23     7     4   ar
    24    28    29   ar
    25    28    30   ar
    26    29    31   ar
    27     6     3   ar
    28    49    44    1
    29    18    30    1
    30    18    16   ar
    31    30    33   ar
    32    44    42   ar
    33    17     4    1
    34    17    15   ar
    35    43    31    1
    36    43    41   ar
    37    31    34   ar
    38     4     2   ar
    39     3     9    1
    40     3     1   ar
    41    33    34   ar
    42    33    35    1
    43    34    38    1
    44    16    15   ar
    45    16    19    1
    46    15    23    1
    47    42    41   ar
    48    42    45    1
    49    41    50    1
    50     2     1   ar
    51     2     5    1
    52     1    10    1
    53    24    23    1
    54    38    39    3
    55    51    50    1
    56    10    11    1
    57    39    40    1
