@<TRIPOS>MOLECULE
mol_data/opt/cam/geoms/mol2/4ff.out
 14 14 0 0 0
SMALL
GASTEIGER

@<TRIPOS>ATOM
      1 C           0.0922    0.0392    0.0004 C.ar    1  LIG1        0.1171
      2 C           1.4843    0.0399    0.0000 C.ar    1  LIG1       -0.0167
      3 C          -0.5929    1.2488    0.0003 C.ar    1  LIG1       -0.0167
      4 C           2.1864    1.2375   -0.0005 C.ar    1  LIG1       -0.0167
      5 H           2.0278   -0.9017    0.0001 H       1  LIG1        0.0655
      6 C           0.1092    2.4465   -0.0002 C.ar    1  LIG1       -0.0167
      7 C           1.5013    2.4471   -0.0006 C.ar    1  LIG1        0.1171
      8 H          -0.4343    3.3880   -0.0003 H       1  LIG1        0.0655
      9 H           3.2702    1.2487   -0.0008 H       1  LIG1        0.0655
     10 H          -1.6767    1.2376    0.0006 H       1  LIG1        0.0655
     11 O          -0.6488   -1.1092    0.0009 O.3     1  LIG1       -0.5068
     12 H          -0.0555   -1.8688    0.0010 H       1  LIG1        0.2921
     13 O           2.2423    3.5955   -0.0011 O.3     1  LIG1       -0.5068
     14 H           1.6491    4.3551   -0.0011 H       1  LIG1        0.2921
@<TRIPOS>BOND
     1    14    13    1
     2    13     7    1
     3     9     4    1
     4     7     4   ar
     5     7     6   ar
     6     4     2   ar
     7     8     6    1
     8     6     3   ar
     9     2     5    1
    10     2     1   ar
    11     3     1   ar
    12     3    10    1
    13     1    11    1
    14    11    12    1
