@<TRIPOS>MOLECULE
mol_data/opt/cam/geoms/mol2/4ff4ff-4ff-4ff.out
 50 53 0 0 0
SMALL
GASTEIGER

@<TRIPOS>ATOM
      1 C          -0.1695    0.0486   -0.3125 C.ar    1  LIG1        0.1177
      2 C           1.2148    0.1219   -0.2268 C.ar    1  LIG1       -0.0089
      3 C          -0.9306    1.2055   -0.1841 C.ar    1  LIG1       -0.0167
      4 C           1.8810    1.3339   -0.0160 C.ar    1  LIG1        0.0306
      5 H           1.8070   -0.7852   -0.3062 H       1  LIG1        0.0661
      6 C          -0.2911    2.4150    0.0310 C.ar    1  LIG1       -0.0161
      7 C           1.0941    2.4815    0.1125 C.ar    1  LIG1        0.1249
      8 H          -0.8784    3.3243    0.1315 H       1  LIG1        0.0655
      9 H          -2.0103    1.1421   -0.2483 H       1  LIG1        0.0655
     10 O          -0.8334   -1.1243   -0.5112 O.3     1  LIG1       -0.5067
     11 H          -0.1969   -1.8453   -0.5790 H       1  LIG1        0.2921
     12 O           1.7364    3.6874    0.3149 O.3     1  LIG1       -0.5062
     13 H           1.0856    4.3977    0.3596 H       1  LIG1        0.2922
     14 C           4.1124    1.9925    1.0248 C.ar    1  LIG1        0.1255
     15 C           5.4968    1.8517    1.0486 C.ar    1  LIG1       -0.0083
     16 C           3.3678    1.3390    0.0272 C.ar    1  LIG1        0.0306
     17 C           6.1856    1.0839    0.1079 C.ar    1  LIG1        0.0306
     18 H           6.0345    2.3348    1.8581 H       1  LIG1        0.0661
     19 C           4.0617    0.5920   -0.9284 C.ar    1  LIG1       -0.0083
     20 C           5.4419    0.4580   -0.9035 C.ar    1  LIG1        0.1255
     21 H           3.5212    0.1060   -1.7327 H       1  LIG1        0.0661
     22 O           3.5482    2.7184    2.0272 O.3     1  LIG1       -0.5061
     23 H           2.8202    3.2415    1.6497 H       1  LIG1        0.2922
     24 O           6.0169   -0.2822   -1.8900 O.3     1  LIG1       -0.5061
     25 H           6.9773   -0.2633   -1.7741 H       1  LIG1        0.2922
     26 C           8.4787    2.1082    0.0970 C.ar    1  LIG1        0.1255
     27 C           9.8593    1.9745    0.1076 C.ar    1  LIG1       -0.0083
     28 C           7.6665    0.9653    0.1420 C.ar    1  LIG1        0.0306
     29 C          10.4866    0.7271    0.1549 C.ar    1  LIG1        0.0306
     30 H          10.4550    2.8798    0.0784 H       1  LIG1        0.0661
     31 C           8.2915   -0.2814    0.2074 C.ar    1  LIG1       -0.0083
     32 C           9.6760   -0.4196    0.2212 C.ar    1  LIG1        0.1255
     33 H           7.6969   -1.1863    0.2782 H       1  LIG1        0.0661
     34 O           7.9733    3.3701    0.0318 O.3     1  LIG1       -0.5061
     35 H           7.0079    3.3167   -0.0055 H       1  LIG1        0.2922
     36 O          10.1725   -1.6862    0.2458 O.3     1  LIG1       -0.5061
     37 H          10.9418   -1.6975    0.8412 H       1  LIG1        0.2922
     38 C          12.7821   -0.1010    0.8794 C.ar    1  LIG1        0.1249
     39 C          14.1653   -0.0813    0.7516 C.ar    1  LIG1       -0.0161
     40 C          11.9696    0.6768    0.0501 C.ar    1  LIG1        0.0306
     41 C          14.7773    0.7150   -0.2022 C.ar    1  LIG1       -0.0167
     42 H          14.7736   -0.6940    1.4122 H       1  LIG1        0.0655
     43 C          12.6075    1.4693   -0.9102 C.ar    1  LIG1       -0.0089
     44 C          13.9899    1.4959   -1.0415 C.ar    1  LIG1        0.1177
     45 H          11.9925    2.0643   -1.5792 H       1  LIG1        0.0661
     46 H          15.8550    0.7372   -0.3109 H       1  LIG1        0.0655
     47 O          12.1679   -0.8841    1.8362 O.3     1  LIG1       -0.5062
     48 H          12.8361   -1.3403    2.3610 H       1  LIG1        0.2922
     49 O          14.6261    2.2570   -1.9754 O.3     1  LIG1       -0.5067
     50 H          13.9731    2.7446   -2.4905 H       1  LIG1        0.2921
@<TRIPOS>BOND
     1    50    49    1
     2    49    44    1
     3    24    25    1
     4    24    20    1
     5    21    19    1
     6    45    43    1
     7    44    43   ar
     8    44    41   ar
     9    19    20   ar
    10    19    16   ar
    11    43    40   ar
    12    20    17   ar
    13    11    10    1
    14    10     1    1
    15     1     2   ar
    16     1     3   ar
    17    46    41    1
    18     5     2    1
    19     9     3    1
    20     2     4   ar
    21    41    39   ar
    22     3     6   ar
    23     4    16    1
    24     4     7   ar
    25    35    34    1
    26    16    14   ar
    27     6     7   ar
    28     6     8    1
    29    34    26    1
    30    40    29    1
    31    40    38   ar
    32    30    27    1
    33    26    27   ar
    34    26    28   ar
    35    27    29   ar
    36    17    28    1
    37    17    15   ar
    38     7    12    1
    39    28    31   ar
    40    29    32   ar
    41    31    32   ar
    42    31    33    1
    43    32    36    1
    44    36    37    1
    45    12    13    1
    46    39    38   ar
    47    39    42    1
    48    38    47    1
    49    14    15   ar
    50    14    22    1
    51    15    18    1
    52    23    22    1
    53    47    48    1
