@<TRIPOS>MOLECULE
mol_data/opt/cam/geoms/mol2/4ff4ff4ff4ff.out
 50 53 0 0 0
SMALL
GASTEIGER

@<TRIPOS>ATOM
      1 C          -0.2180    0.7119    1.1903 C.ar    1  LIG1        0.1177
      2 C           1.1675    0.6847    1.1114 C.ar    1  LIG1       -0.0089
      3 C          -0.9569    1.2593    0.1491 C.ar    1  LIG1       -0.0167
      4 C           1.8544    1.1926    0.0053 C.ar    1  LIG1        0.0306
      5 H           1.7423    0.2441    1.9188 H       1  LIG1        0.0661
      6 C          -0.2936    1.7705   -0.9549 C.ar    1  LIG1       -0.0161
      7 C           1.0952    1.7427   -1.0380 C.ar    1  LIG1        0.1249
      8 H          -0.8662    2.1996   -1.7738 H       1  LIG1        0.0655
      9 H          -2.0385    1.2772    0.2149 H       1  LIG1        0.0655
     10 O          -0.9019    0.2198    2.2659 O.3     1  LIG1       -0.5067
     11 H          -0.2724   -0.1571    2.8911 H       1  LIG1        0.2921
     12 O           1.7453    2.2457   -2.1347 O.3     1  LIG1       -0.5062
     13 H           1.0882    2.4863   -2.7975 H       1  LIG1        0.2922
     14 C           4.0751    0.0410    0.3721 C.ar    1  LIG1        0.1255
     15 C           5.4619    0.0606    0.3413 C.ar    1  LIG1       -0.0083
     16 C           3.3386    1.1613   -0.0352 C.ar    1  LIG1        0.0306
     17 C           6.1900    1.1692   -0.0925 C.ar    1  LIG1        0.0306
     18 H           6.0063   -0.8254    0.6492 H       1  LIG1        0.0661
     19 C           4.0660    2.2719   -0.4635 C.ar    1  LIG1       -0.0083
     20 C           5.4527    2.2899   -0.4998 C.ar    1  LIG1        0.1255
     21 H           3.5209    3.1485   -0.7970 H       1  LIG1        0.0661
     22 O           3.4025   -1.0734    0.8008 O.3     1  LIG1       -0.5061
     23 H           4.0416   -1.7840    0.9271 H       1  LIG1        0.2922
     24 O           6.1235    3.4034   -0.9347 O.3     1  LIG1       -0.5061
     25 H           5.4790    4.0260   -1.2903 H       1  LIG1        0.2922
     26 C           8.4117    0.0309   -0.4991 C.ar    1  LIG1        0.1255
     27 C           9.7983    0.0488   -0.4601 C.ar    1  LIG1       -0.0083
     28 C           7.6737    1.1508   -0.0911 C.ar    1  LIG1        0.0306
     29 C          10.5249    1.1586   -0.0285 C.ar    1  LIG1        0.0306
     30 H          10.3440   -0.8272   -0.7942 H       1  LIG1        0.0661
     31 C           8.4009    2.2586    0.3460 C.ar    1  LIG1       -0.0083
     32 C           9.7876    2.2782    0.3794 C.ar    1  LIG1        0.1255
     33 H           7.8559    3.1441    0.6545 H       1  LIG1        0.0661
     34 O           7.7418   -1.0819   -0.9372 O.3     1  LIG1       -0.5061
     35 H           8.3868   -1.7039   -1.2927 H       1  LIG1        0.2922
     36 O          10.4595    3.3918    0.8114 O.3     1  LIG1       -0.5061
     37 H           9.8200    4.1022    0.9378 H       1  LIG1        0.2922
     38 C          12.7702    0.5791   -1.0281 C.ar    1  LIG1        0.1249
     39 C          14.1588    0.5511   -0.9425 C.ar    1  LIG1       -0.0161
     40 C          12.0090    1.1272    0.0147 C.ar    1  LIG1        0.0306
     41 C          14.8201    1.0603    0.1637 C.ar    1  LIG1       -0.0167
     42 H          14.7329    0.1235   -1.7610 H       1  LIG1        0.0655
     43 C          12.6938    1.6332    1.1230 C.ar    1  LIG1       -0.0089
     44 C          14.0792    1.6058    1.2045 C.ar    1  LIG1        0.1177
     45 H          12.1176    2.0723    1.9302 H       1  LIG1        0.0661
     46 H          15.9016    1.0422    0.2314 H       1  LIG1        0.0655
     47 O          12.1221    0.0780   -2.1269 O.3     1  LIG1       -0.5062
     48 H          12.7805   -0.1614   -2.7889 H       1  LIG1        0.2922
     49 O          14.7611    2.0960    2.2823 O.3     1  LIG1       -0.5067
     50 H          14.1304    2.4718    2.9069 H       1  LIG1        0.2921
@<TRIPOS>BOND
     1    13    12    1
     2    48    47    1
     3    12     7    1
     4    47    38    1
     5     8     6    1
     6    42    39    1
     7    35    34    1
     8    25    24    1
     9     7     6   ar
    10     7     4   ar
    11    38    39   ar
    12    38    40   ar
    13     6     3   ar
    14    39    41   ar
    15    34    26    1
    16    24    20    1
    17    21    19    1
    18    30    27    1
    19    20    19   ar
    20    20    17   ar
    21    26    27   ar
    22    26    28   ar
    23    19    16   ar
    24    27    29   ar
    25    17    28    1
    26    17    15   ar
    27    28    31   ar
    28    16     4    1
    29    16    14   ar
    30    29    40    1
    31    29    32   ar
    32     4     2   ar
    33    40    43   ar
    34     3     9    1
    35     3     1   ar
    36    41    46    1
    37    41    44   ar
    38    15    14   ar
    39    15    18    1
    40    31    32   ar
    41    31    33    1
    42    14    22    1
    43    32    36    1
    44    22    23    1
    45    36    37    1
    46     2     1   ar
    47     2     5    1
    48    43    44   ar
    49    43    45    1
    50     1    10    1
    51    44    49    1
    52    10    11    1
    53    49    50    1
