@<TRIPOS>MOLECULE
mol_data/opt/cam/geoms/mol2/4ff4ff-.out
 26 27 0 0 0
SMALL
GASTEIGER

@<TRIPOS>ATOM
      1 C           0.0157    0.0862   -0.4169 C.ar    1  LIG1        0.1177
      2 C           1.4034    0.1443   -0.4122 C.ar    1  LIG1       -0.0089
      3 C          -0.7221    1.1893   -0.0016 C.ar    1  LIG1       -0.0167
      4 C           2.0965    1.2860    0.0033 C.ar    1  LIG1        0.0306
      5 H           1.9785   -0.7105   -0.7565 H       1  LIG1        0.0661
      6 C          -0.0555    2.3323    0.4082 C.ar    1  LIG1       -0.0161
      7 C           1.3328    2.3823    0.4133 C.ar    1  LIG1        0.1249
      8 H          -0.6243    3.1991    0.7354 H       1  LIG1        0.0655
      9 H          -1.8044    1.1401   -0.0104 H       1  LIG1        0.0655
     10 O          -0.6731   -1.0169   -0.8248 O.3     1  LIG1       -0.5067
     11 H          -0.0494   -1.7028   -1.0897 H       1  LIG1        0.2921
     12 O           2.0006    3.5159    0.8327 O.3     1  LIG1       -0.5062
     13 H           1.3623    4.1825    1.1123 H       1  LIG1        0.2922
     14 C           4.3769    2.2822   -0.5386 C.ar    1  LIG1        0.1249
     15 C           5.7592    2.1281   -0.5840 C.ar    1  LIG1       -0.0161
     16 C           3.5842    1.2604    0.0149 C.ar    1  LIG1        0.0306
     17 C           6.3746    0.9908   -0.0845 C.ar    1  LIG1       -0.0167
     18 H           6.3416    2.9277   -1.0274 H       1  LIG1        0.0655
     19 C           4.2214    0.1300    0.5348 C.ar    1  LIG1       -0.0089
     20 C           5.6007   -0.0121    0.4898 C.ar    1  LIG1        0.1177
     21 H           3.6377   -0.6590    0.9953 H       1  LIG1        0.0661
     22 H           7.4562    0.8915   -0.1304 H       1  LIG1        0.0655
     23 O           3.8569    3.4111   -1.0957 O.3     1  LIG1       -0.5062
     24 H           3.1356    3.7244   -0.5236 H       1  LIG1        0.2922
     25 O           6.1363   -1.1517    1.0217 O.3     1  LIG1       -0.5067
     26 H           7.0961   -1.1147    0.9428 H       1  LIG1        0.2921
@<TRIPOS>BOND
     1    23    14    1
     2    23    24    1
     3    11    10    1
     4    18    15    1
     5    10     1    1
     6     5     2    1
     7    15    14   ar
     8    15    17   ar
     9    14    16   ar
    10     1     2   ar
    11     1     3   ar
    12     2     4   ar
    13    22    17    1
    14    17    20   ar
    15     9     3    1
    16     3     6   ar
    17     4    16    1
    18     4     7   ar
    19    16    19   ar
    20     6     7   ar
    21     6     8    1
    22     7    12    1
    23    20    19   ar
    24    20    25    1
    25    19    21    1
    26    12    13    1
    27    26    25    1
