@<TRIPOS>MOLECULE
mol_data/opt/cam/geoms/mol2/4ff4ff-4ff4ff.out
 50 53 0 0 0
SMALL
GASTEIGER

@<TRIPOS>ATOM
      1 C          -0.2323    0.1614    0.4516 C.ar    1  LIG1        0.1177
      2 C           1.1561    0.1919    0.4340 C.ar    1  LIG1       -0.0089
      3 C          -0.9525    1.2707    0.0225 C.ar    1  LIG1       -0.0167
      4 C           1.8685    1.3113   -0.0094 C.ar    1  LIG1        0.0306
      5 H           1.7172   -0.6673    0.7899 H       1  LIG1        0.0661
      6 C          -0.2670    2.3924   -0.4144 C.ar    1  LIG1       -0.0161
      7 C           1.1218    2.4145   -0.4330 C.ar    1  LIG1        0.1249
      8 H          -0.8215    3.2641   -0.7530 H       1  LIG1        0.0655
      9 H          -2.0354    1.2432    0.0418 H       1  LIG1        0.0655
     10 O          -0.9384   -0.9205    0.8867 O.3     1  LIG1       -0.5067
     11 H          -0.3248   -1.6143    1.1546 H       1  LIG1        0.2921
     12 O           1.8070    3.5276   -0.8799 O.3     1  LIG1       -0.5062
     13 H           1.1779    4.2004   -1.1650 H       1  LIG1        0.2922
     14 C           4.1792    2.2719    0.4791 C.ar    1  LIG1        0.1255
     15 C           5.5548    2.0858    0.5066 C.ar    1  LIG1       -0.0083
     16 C           3.3542    1.2564   -0.0340 C.ar    1  LIG1        0.0306
     17 C           6.1735    0.9273    0.0324 C.ar    1  LIG1        0.0306
     18 H           6.1522    2.8844    0.9318 H       1  LIG1        0.0661
     19 C           3.9723    0.0979   -0.5081 C.ar    1  LIG1       -0.0083
     20 C           5.3483   -0.0881   -0.4814 C.ar    1  LIG1        0.1255
     21 H           3.3746   -0.7011   -0.9322 H       1  LIG1        0.0661
     22 O           3.6987    3.4285    1.0164 O.3     1  LIG1       -0.5061
     23 H           2.9664    3.7372    0.4562 H       1  LIG1        0.2922
     24 O           5.8268   -1.2438   -1.0194 O.3     1  LIG1       -0.5061
     25 H           6.5712   -1.5458   -0.4707 H       1  LIG1        0.2922
     26 C           8.4142   -0.2297    0.4156 C.ar    1  LIG1        0.1255
     27 C           9.7985   -0.2007    0.3995 C.ar    1  LIG1       -0.0083
     28 C           7.6582    0.8725    0.0098 C.ar    1  LIG1        0.0306
     29 C          10.5144    0.9204   -0.0193 C.ar    1  LIG1        0.0306
     30 H          10.3508   -1.0796    0.7146 H       1  LIG1        0.0661
     31 C           8.3776    1.9922   -0.4135 C.ar    1  LIG1       -0.0083
     32 C           9.7651    2.0314   -0.4327 C.ar    1  LIG1        0.1255
     33 H           7.8215    2.8583   -0.7614 H       1  LIG1        0.0661
     34 O           7.7407   -1.3553    0.8496 O.3     1  LIG1       -0.5061
     35 H           8.3805   -2.0352    1.0920 H       1  LIG1        0.2922
     36 O          10.4279    3.1456   -0.8671 O.3     1  LIG1       -0.5061
     37 H           9.7816    3.7831   -1.1921 H       1  LIG1        0.2922
     38 C          12.7453   -0.1741   -0.4556 C.ar    1  LIG1        0.1249
     39 C          14.1358   -0.1413   -0.4125 C.ar    1  LIG1       -0.0161
     40 C          11.9992    0.9247   -0.0059 C.ar    1  LIG1        0.0306
     41 C          14.8119    0.9672    0.0710 C.ar    1  LIG1       -0.0167
     42 H          14.6990   -1.0012   -0.7668 H       1  LIG1        0.0655
     43 C          12.6985    2.0321    0.4819 C.ar    1  LIG1       -0.0089
     44 C          14.0855    2.0623    0.5224 C.ar    1  LIG1        0.1177
     45 H          12.1332    2.8928    0.8225 H       1  LIG1        0.0661
     46 H          15.8947    0.9964    0.1035 H       1  LIG1        0.0655
     47 O          12.0796   -1.2716   -0.9361 O.3     1  LIG1       -0.5062
     48 H          12.7243   -1.8861   -1.3045 H       1  LIG1        0.2922
     49 O          14.7838    3.1357    0.9969 O.3     1  LIG1       -0.5067
     50 H          14.1628    3.8298    1.2456 H       1  LIG1        0.2921
@<TRIPOS>BOND
     1    48    47    1
     2    37    36    1
     3    13    12    1
     4    24    20    1
     5    24    25    1
     6    47    38    1
     7    21    19    1
     8    12     7    1
     9    36    32    1
    10    42    39    1
    11    33    31    1
    12     8     6    1
    13    19    20   ar
    14    19    16   ar
    15    20    17   ar
    16    38    39   ar
    17    38    40   ar
    18     7     6   ar
    19     7     4   ar
    20    32    31   ar
    21    32    29   ar
    22     6     3   ar
    23    31    28   ar
    24    39    41   ar
    25    16     4    1
    26    16    14   ar
    27    29    40    1
    28    29    27   ar
    29     4     2   ar
    30    40    43   ar
    31    28    17    1
    32    28    26   ar
    33     3     9    1
    34     3     1   ar
    35    17    15   ar
    36    41    46    1
    37    41    44   ar
    38    27    26   ar
    39    27    30    1
    40    26    34    1
    41     2     1   ar
    42     2     5    1
    43     1    10    1
    44    23    22    1
    45    14    15   ar
    46    14    22    1
    47    43    44   ar
    48    43    45    1
    49    15    18    1
    50    44    49    1
    51    34    35    1
    52    10    11    1
    53    49    50    1
