@<TRIPOS>MOLECULE
mol_data/opt/cam/geoms/mol2/4ff4ff-4ff.out
 38 40 0 0 0
SMALL
GASTEIGER

@<TRIPOS>ATOM
      1 C          -0.1035    0.0727    0.2537 C.ar    1  LIG1        0.1177
      2 C           1.2845    0.1211    0.2568 C.ar    1  LIG1       -0.0089
      3 C          -0.8335    1.2260   -0.0117 C.ar    1  LIG1       -0.0167
      4 C           1.9867    1.3024   -0.0048 C.ar    1  LIG1        0.0306
      5 H           1.8531   -0.7758    0.4853 H       1  LIG1        0.0661
      6 C          -0.1582    2.4083   -0.2668 C.ar    1  LIG1       -0.0161
      7 C           1.2303    2.4485   -0.2659 C.ar    1  LIG1        0.1249
      8 H          -0.7205    3.3149   -0.4764 H       1  LIG1        0.0655
      9 H          -1.9161    1.1838   -0.0092 H       1  LIG1        0.0655
     10 O          -0.7999   -1.0702    0.5124 O.3     1  LIG1       -0.5067
     11 H          -0.1804   -1.7897    0.6801 H       1  LIG1        0.2921
     12 O           1.9056    3.6236   -0.5323 O.3     1  LIG1       -0.5062
     13 H           1.2711    4.3252   -0.7193 H       1  LIG1        0.2922
     14 C           4.2814    2.2035    0.6471 C.ar    1  LIG1        0.1255
     15 C           5.6590    2.0302    0.6609 C.ar    1  LIG1       -0.0083
     16 C           3.4733    1.2678   -0.0212 C.ar    1  LIG1        0.0306
     17 C           6.2951    0.9623    0.0254 C.ar    1  LIG1        0.0306
     18 H           6.2435    2.7630    1.2058 H       1  LIG1        0.0661
     19 C           4.1095    0.1999   -0.6567 C.ar    1  LIG1       -0.0083
     20 C           5.4871    0.0265   -0.6429 C.ar    1  LIG1        0.1255
     21 H           3.5250   -0.5329   -1.2016 H       1  LIG1        0.0661
     22 O           3.7825    3.2616    1.3457 O.3     1  LIG1       -0.5061
     23 H           3.0503    3.6418    0.8312 H       1  LIG1        0.2922
     24 O           5.9860   -1.0315   -1.3415 O.3     1  LIG1       -0.5061
     25 H           6.7182   -1.4118   -0.8270 H       1  LIG1        0.2922
     26 C           8.5382   -0.2184    0.2701 C.ar    1  LIG1        0.1249
     27 C           9.9267   -0.1782    0.2709 C.ar    1  LIG1       -0.0161
     28 C           7.7817    0.9277    0.0090 C.ar    1  LIG1        0.0306
     29 C          10.6020    1.0041    0.0159 C.ar    1  LIG1       -0.0167
     30 H          10.4890   -1.0848    0.4805 H       1  LIG1        0.0655
     31 C           8.4839    2.1090   -0.2525 C.ar    1  LIG1       -0.0089
     32 C           9.8719    2.1574   -0.2495 C.ar    1  LIG1        0.1177
     33 H           7.9154    3.0058   -0.4810 H       1  LIG1        0.0661
     34 H          11.6845    1.0463    0.0133 H       1  LIG1        0.0655
     35 O           7.8629   -1.3935    0.5364 O.3     1  LIG1       -0.5062
     36 H           8.4974   -2.0952    0.7233 H       1  LIG1        0.2922
     37 O          10.5684    3.3003   -0.5082 O.3     1  LIG1       -0.5067
     38 H           9.9489    4.0198   -0.6758 H       1  LIG1        0.2921
@<TRIPOS>BOND
     1    24    25    1
     2    24    20    1
     3    21    19    1
     4    13    12    1
     5    38    37    1
     6    19    20   ar
     7    19    16   ar
     8    20    17   ar
     9    12     7    1
    10    37    32    1
    11    33    31    1
    12     8     6    1
    13     6     7   ar
    14     6     3   ar
    15     7     4   ar
    16    31    32   ar
    17    31    28   ar
    18    32    29   ar
    19    16     4    1
    20    16    14   ar
    21     3     9    1
    22     3     1   ar
    23     4     2   ar
    24    28    17    1
    25    28    26   ar
    26    34    29    1
    27    29    27   ar
    28    17    15   ar
    29     1     2   ar
    30     1    10    1
    31     2     5    1
    32    26    27   ar
    33    26    35    1
    34    27    30    1
    35    10    11    1
    36    35    36    1
    37    14    15   ar
    38    14    22    1
    39    15    18    1
    40    23    22    1
