@<TRIPOS>MOLECULE
mol_data/opt/cam/geoms/mol2/4ff4ff4ff-4ff.out
 50 53 0 0 0
SMALL
GASTEIGER

@<TRIPOS>ATOM
      1 C          -0.2366    0.2981    0.8041 C.ar    1  LIG1        0.1177
      2 C           1.1510    0.3164    0.7742 C.ar    1  LIG1       -0.0089
      3 C          -0.9548    1.1899    0.0169 C.ar    1  LIG1       -0.0167
      4 C           1.8588    1.2116   -0.0325 C.ar    1  LIG1        0.0306
      5 H           1.7099   -0.3896    1.3789 H       1  LIG1        0.0661
      6 C          -0.2700    2.0871   -0.7866 C.ar    1  LIG1       -0.0161
      7 C           1.1210    2.1074   -0.8195 C.ar    1  LIG1        0.1249
      8 H          -0.8264    2.7876   -1.4047 H       1  LIG1        0.0655
      9 H          -2.0380    1.1701    0.0429 H       1  LIG1        0.0655
     10 O          -0.9431   -0.5691    1.5875 O.3     1  LIG1       -0.5067
     11 H          -0.3265   -1.1441    2.0548 H       1  LIG1        0.2921
     12 O           1.7957    2.9952   -1.6164 O.3     1  LIG1       -0.5062
     13 H           1.1568    3.4619   -2.1671 H       1  LIG1        0.2922
     14 C           4.0978    0.0338   -0.0564 C.ar    1  LIG1        0.1255
     15 C           5.4850    0.0819   -0.0285 C.ar    1  LIG1       -0.0083
     16 C           3.3438    1.2158   -0.0285 C.ar    1  LIG1        0.0306
     17 C           6.1990    1.2809    0.0221 C.ar    1  LIG1        0.0306
     18 H           6.0444   -0.8495   -0.0291 H       1  LIG1        0.0661
     19 C           4.0543    2.4145    0.0293 C.ar    1  LIG1       -0.0083
     20 C           5.4383    2.4520    0.0504 C.ar    1  LIG1        0.1255
     21 H           3.4984    3.3459    0.0345 H       1  LIG1        0.0661
     22 O           3.4400   -1.1639   -0.1051 O.3     1  LIG1       -0.5061
     23 H           4.0894   -1.8700   -0.2026 H       1  LIG1        0.2922
     24 O           6.1078    3.6595    0.0935 O.3     1  LIG1       -0.5061
     25 H           5.4684    4.3809    0.0657 H       1  LIG1        0.2922
     26 C           8.4848    1.9919    0.8959 C.ar    1  LIG1        0.1255
     27 C           9.8624    1.8181    0.8812 C.ar    1  LIG1       -0.0083
     28 C           7.6842    1.2460    0.0133 C.ar    1  LIG1        0.0306
     29 C          10.5058    0.9334    0.0139 C.ar    1  LIG1        0.0306
     30 H          10.4407    2.3971    1.5923 H       1  LIG1        0.0661
     31 C           8.3280    0.3613   -0.8540 C.ar    1  LIG1       -0.0083
     32 C           9.7054    0.1871   -0.8680 C.ar    1  LIG1        0.1255
     33 H           7.7499   -0.2167   -1.5661 H       1  LIG1        0.0661
     34 O           7.9790    2.8498    1.8252 O.3     1  LIG1       -0.5061
     35 H           7.2478    3.3431    1.4149 H       1  LIG1        0.2922
     36 O          10.2125   -0.6723   -1.7961 O.3     1  LIG1       -0.5061
     37 H          10.9378   -1.1688   -1.3805 H       1  LIG1        0.2922
     38 C          12.7461   -0.2766   -0.0094 C.ar    1  LIG1        0.1249
     39 C          14.1345   -0.2414    0.0137 C.ar    1  LIG1       -0.0161
     40 C          11.9924    0.9006    0.0043 C.ar    1  LIG1        0.0306
     41 C          14.8125    0.9659    0.0551 C.ar    1  LIG1       -0.0167
     42 H          14.6945   -1.1733    0.0057 H       1  LIG1        0.0655
     43 C          12.6974    2.1084    0.0394 C.ar    1  LIG1       -0.0089
     44 C          14.0854    2.1509    0.0666 C.ar    1  LIG1        0.1177
     45 H          12.1313    3.0353    0.0266 H       1  LIG1        0.0661
     46 H          15.8951    1.0047    0.0725 H       1  LIG1        0.0655
     47 O          12.0679   -1.4796   -0.0380 O.3     1  LIG1       -0.5062
     48 H          12.7006   -2.2070   -0.0177 H       1  LIG1        0.2922
     49 O          14.7846    3.3208    0.0949 O.3     1  LIG1       -0.5067
     50 H          14.1669    4.0611    0.0974 H       1  LIG1        0.2921
@<TRIPOS>BOND
     1    13    12    1
     2    36    37    1
     3    36    32    1
     4    12     7    1
     5    33    31    1
     6     8     6    1
     7    32    31   ar
     8    32    29   ar
     9    31    28   ar
    10     7     6   ar
    11     7     4   ar
    12     6     3   ar
    13    23    22    1
    14    22    14    1
    15    14    16   ar
    16    14    15   ar
    17    47    48    1
    18    47    38    1
    19     4    16    1
    20     4     2   ar
    21    18    15    1
    22    16    19   ar
    23    15    17   ar
    24    38    40   ar
    25    38    39   ar
    26    40    29    1
    27    40    43   ar
    28    42    39    1
    29    28    17    1
    30    28    26   ar
    31    39    41   ar
    32    29    27   ar
    33     3     9    1
    34     3     1   ar
    35    17    20   ar
    36    45    43    1
    37    19    21    1
    38    19    20   ar
    39    43    44   ar
    40    20    24    1
    41    41    44   ar
    42    41    46    1
    43    25    24    1
    44    44    49    1
    45    49    50    1
    46     2     1   ar
    47     2     5    1
    48     1    10    1
    49    27    26   ar
    50    27    30    1
    51    26    34    1
    52    35    34    1
    53    10    11    1
