@<TRIPOS>MOLECULE
mol_data/opt/cam/geoms/mol2/4ff4ff.out
 26 27 0 0 0
SMALL
GASTEIGER

@<TRIPOS>ATOM
      1 C          -0.0214    0.1302    0.4719 C.ar    1  LIG1        0.1177
      2 C           1.3665    0.1262    0.4479 C.ar    1  LIG1       -0.0089
      3 C          -0.7148    1.2450    0.0175 C.ar    1  LIG1       -0.0167
      4 C           2.0988    1.2176   -0.0259 C.ar    1  LIG1        0.0306
      5 H           1.9068   -0.7499    0.7906 H       1  LIG1        0.0661
      6 C          -0.0052    2.3380   -0.4538 C.ar    1  LIG1       -0.0161
      7 C           1.3862    2.3360   -0.4807 C.ar    1  LIG1        0.1249
      8 H          -0.5427    3.2129   -0.8117 H       1  LIG1        0.0655
      9 H          -1.7983    1.2430    0.0375 H       1  LIG1        0.0655
     10 O          -0.7515   -0.9284    0.9332 O.3     1  LIG1       -0.5067
     11 H          -0.1496   -1.6372    1.1872 H       1  LIG1        0.2921
     12 O           2.0856    3.4163   -0.9508 O.3     1  LIG1       -0.5062
     13 H           1.4597    4.0563   -1.3081 H       1  LIG1        0.2922
     14 C           4.3020    0.0658   -0.4615 C.ar    1  LIG1        0.1249
     15 C           5.6931    0.0640   -0.4212 C.ar    1  LIG1       -0.0161
     16 C           3.5850    1.1862   -0.0186 C.ar    1  LIG1        0.0306
     17 C           6.3981    1.1590    0.0522 C.ar    1  LIG1       -0.0167
     18 H           6.2340   -0.8125   -0.7700 H       1  LIG1        0.0655
     19 C           4.3127    2.2797    0.4574 C.ar    1  LIG1       -0.0089
     20 C           5.7003    2.2758    0.4949 C.ar    1  LIG1        0.1177
     21 H           3.7692    3.1573    0.7910 H       1  LIG1        0.0661
     22 H           7.4813    1.1612    0.0826 H       1  LIG1        0.0655
     23 O           3.6072   -1.0166   -0.9336 O.3     1  LIG1       -0.5062
     24 H           4.2365   -1.6582   -1.2820 H       1  LIG1        0.2922
     25 O           6.4260    3.3365    0.9586 O.3     1  LIG1       -0.5067
     26 H           5.8217    4.0464    1.2036 H       1  LIG1        0.2921
@<TRIPOS>BOND
     1    13    12    1
     2    24    23    1
     3    12     7    1
     4    23    14    1
     5     8     6    1
     6    18    15    1
     7     7     6   ar
     8     7     4   ar
     9    14    15   ar
    10    14    16   ar
    11     6     3   ar
    12    15    17   ar
    13     4    16    1
    14     4     2   ar
    15    16    19   ar
    16     3     9    1
    17     3     1   ar
    18    17    22    1
    19    17    20   ar
    20     2     1   ar
    21     2     5    1
    22    19    20   ar
    23    19    21    1
    24     1    10    1
    25    20    25    1
    26    10    11    1
    27    25    26    1
