@<TRIPOS>MOLECULE
mol_data/opt/cam/geoms/mol2/4ff4ff4ff-4ff-.out
 50 53 0 0 0
SMALL
GASTEIGER

@<TRIPOS>ATOM
      1 C          -0.2150    0.1843    0.7474 C.ar    1  LIG1        0.1177
      2 C           1.1719    0.2330    0.7267 C.ar    1  LIG1       -0.0089
      3 C          -0.9477    1.0952   -0.0040 C.ar    1  LIG1       -0.0167
      4 C           1.8641    1.1783   -0.0354 C.ar    1  LIG1        0.0306
      5 H           1.7427   -0.4868    1.3032 H       1  LIG1        0.0661
      6 C          -0.2784    2.0418   -0.7626 C.ar    1  LIG1       -0.0161
      7 C           1.1120    2.0931   -0.7858 C.ar    1  LIG1        0.1249
      8 H          -0.8469    2.7572   -1.3520 H       1  LIG1        0.0655
      9 H          -2.0303    1.0514    0.0145 H       1  LIG1        0.0655
     10 O          -0.9077   -0.7306    1.4869 O.3     1  LIG1       -0.5067
     11 H          -0.2831   -1.3134    1.9335 H       1  LIG1        0.2921
     12 O           1.7725    3.0299   -1.5371 O.3     1  LIG1       -0.5062
     13 H           1.1276    3.5086   -2.0700 H       1  LIG1        0.2922
     14 C           4.1279    0.0506   -0.1047 C.ar    1  LIG1        0.1255
     15 C           5.5135    0.1271   -0.0691 C.ar    1  LIG1       -0.0083
     16 C           3.3486    1.2141   -0.0227 C.ar    1  LIG1        0.0306
     17 C           6.1998    1.3380    0.0444 C.ar    1  LIG1        0.0306
     18 H           6.0931   -0.7908   -0.1142 H       1  LIG1        0.0661
     19 C           4.0320    2.4235    0.0974 C.ar    1  LIG1       -0.0083
     20 C           5.4149    2.4898    0.1275 C.ar    1  LIG1        0.1255
     21 H           3.4557    3.3411    0.1456 H       1  LIG1        0.0661
     22 O           3.4953   -1.1556   -0.2149 O.3     1  LIG1       -0.5061
     23 H           4.1581   -1.8449   -0.3388 H       1  LIG1        0.2922
     24 O           6.0593    3.7068    0.2348 O.3     1  LIG1       -0.5061
     25 H           5.4062    4.4166    0.2427 H       1  LIG1        0.2922
     26 C           8.4649    2.0536    0.9643 C.ar    1  LIG1        0.1255
     27 C           9.8486    1.9052    0.9544 C.ar    1  LIG1       -0.0083
     28 C           7.6858    1.3351    0.0396 C.ar    1  LIG1        0.0306
     29 C          10.5033    1.0671    0.0499 C.ar    1  LIG1        0.0306
     30 H          10.4143    2.4416    1.7094 H       1  LIG1        0.0661
     31 C           8.3458    0.5182   -0.8822 C.ar    1  LIG1       -0.0083
     32 C           9.7255    0.3771   -0.8912 C.ar    1  LIG1        0.1255
     33 H           7.7779   -0.0186   -1.6336 H       1  LIG1        0.0661
     34 O           7.9369    2.8522    1.9293 O.3     1  LIG1       -0.5061
     35 H           7.1932    3.3470    1.5426 H       1  LIG1        0.2922
     36 O          10.2655   -0.4358   -1.8404 O.3     1  LIG1       -0.5061
     37 H          11.2294   -0.4043   -1.7652 H       1  LIG1        0.2922
     38 C          12.7971    2.0717   -0.1096 C.ar    1  LIG1        0.1249
     39 C          14.1805    1.9350   -0.1199 C.ar    1  LIG1       -0.0161
     40 C          11.9846    0.9377    0.0512 C.ar    1  LIG1        0.0306
     41 C          14.7700    0.6871    0.0209 C.ar    1  LIG1       -0.0167
     42 H          14.7856    2.8253   -0.2472 H       1  LIG1        0.0655
     43 C          12.5926   -0.3141    0.1868 C.ar    1  LIG1       -0.0089
     44 C          13.9763   -0.4453    0.1745 C.ar    1  LIG1        0.1177
     45 H          11.9865   -1.2013    0.3376 H       1  LIG1        0.0661
     46 H          15.8532    0.5972    0.0105 H       1  LIG1        0.0655
     47 O          12.2896    3.3234   -0.2684 O.3     1  LIG1       -0.5062
     48 H          11.3234    3.2697   -0.2787 H       1  LIG1        0.2922
     49 O          14.4920   -1.7008    0.3202 O.3     1  LIG1       -0.5067
     50 H          15.4546   -1.6518    0.3132 H       1  LIG1        0.2921
@<TRIPOS>BOND
     1    13    12    1
     2    36    37    1
     3    36    32    1
     4    33    31    1
     5    12     7    1
     6     8     6    1
     7    32    31   ar
     8    32    29   ar
     9    31    28   ar
    10     7     6   ar
    11     7     4   ar
    12     6     3   ar
    13    23    22    1
    14    48    47    1
    15    47    38    1
    16    42    39    1
    17    22    14    1
    18    39    38   ar
    19    39    41   ar
    20    18    15    1
    21    38    40   ar
    22    14    15   ar
    23    14    16   ar
    24    15    17   ar
    25     4    16    1
    26     4     2   ar
    27    16    19   ar
    28     3     9    1
    29     3     1   ar
    30    46    41    1
    31    41    44   ar
    32    28    17    1
    33    28    26   ar
    34    17    20   ar
    35    29    40    1
    36    29    27   ar
    37    40    43   ar
    38    19    20   ar
    39    19    21    1
    40    20    24    1
    41    44    43   ar
    42    44    49    1
    43    43    45    1
    44    24    25    1
    45    50    49    1
    46     2     1   ar
    47     2     5    1
    48     1    10    1
    49    27    26   ar
    50    27    30    1
    51    26    34    1
    52    10    11    1
    53    35    34    1
