@<TRIPOS>MOLECULE
mol_data/opt/cam/geoms/mol2/4ff4ff4ff4ff-.out
 50 53 0 0 0
SMALL
GASTEIGER

@<TRIPOS>ATOM
      1 C          -0.2426    0.0437    0.4570 C.ar    1  LIG1        0.1177
      2 C           1.1449    0.0691    0.4295 C.ar    1  LIG1       -0.0089
      3 C          -0.9608    1.1479    0.0150 C.ar    1  LIG1       -0.0167
      4 C           1.8531    1.1806   -0.0353 C.ar    1  LIG1        0.0306
      5 H           1.7045   -0.7985    0.7619 H       1  LIG1        0.0661
      6 C          -0.2758    2.2601   -0.4472 C.ar    1  LIG1       -0.0161
      7 C           1.1152    2.2880   -0.4772 C.ar    1  LIG1        0.1249
      8 H          -0.8325    3.1269   -0.7953 H       1  LIG1        0.0655
      9 H          -2.0440    1.1226    0.0374 H       1  LIG1        0.0655
     10 O          -0.9489   -1.0342    0.9099 O.3     1  LIG1       -0.5067
     11 H          -0.3317   -1.7331    1.1547 H       1  LIG1        0.2921
     12 O           1.7889    3.3888   -0.9389 O.3     1  LIG1       -0.5062
     13 H           1.1473    4.0160   -1.2909 H       1  LIG1        0.2922
     14 C           4.0862    0.0725   -0.4556 C.ar    1  LIG1        0.1255
     15 C           5.4724    0.1027   -0.4141 C.ar    1  LIG1       -0.0083
     16 C           3.3383    1.1792   -0.0312 C.ar    1  LIG1        0.0306
     17 C           6.1863    1.2108    0.0438 C.ar    1  LIG1        0.0306
     18 H           6.0268   -0.7713   -0.7384 H       1  LIG1        0.0661
     19 C           4.0519    2.2871    0.4249 C.ar    1  LIG1       -0.0083
     20 C           5.4382    2.3181    0.4659 C.ar    1  LIG1        0.1255
     21 H           3.4968    3.1615    0.7477 H       1  LIG1        0.0661
     22 O           3.4234   -1.0333   -0.9175 O.3     1  LIG1       -0.5061
     23 H           4.0751   -1.6767   -1.2186 H       1  LIG1        0.2922
     24 O           6.0997    3.4271    0.9250 O.3     1  LIG1       -0.5061
     25 H           5.4470    4.0622    1.2414 H       1  LIG1        0.2922
     26 C           8.4178    0.0937    0.4605 C.ar    1  LIG1        0.1255
     27 C           9.8052    0.1285    0.4362 C.ar    1  LIG1       -0.0083
     28 C           7.6699    1.2083    0.0522 C.ar    1  LIG1        0.0306
     29 C          10.5264    1.2475    0.0143 C.ar    1  LIG1        0.0306
     30 H          10.3600   -0.7405    0.7792 H       1  LIG1        0.0661
     31 C           8.3886    2.3282   -0.3661 C.ar    1  LIG1       -0.0083
     32 C           9.7729    2.3530   -0.3861 C.ar    1  LIG1        0.1255
     33 H           7.8379    3.2095   -0.6763 H       1  LIG1        0.0661
     34 O           7.7544   -1.0204    0.8951 O.3     1  LIG1       -0.5061
     35 H           8.4005   -1.6569    1.2224 H       1  LIG1        0.2922
     36 O          10.4489    3.4772   -0.8187 O.3     1  LIG1       -0.5061
     37 H           9.8110    4.1604   -1.0569 H       1  LIG1        0.2922
     38 C          12.8338    2.1997    0.5180 C.ar    1  LIG1        0.1249
     39 C          14.2129    2.0139    0.5515 C.ar    1  LIG1       -0.0161
     40 C          12.0117    1.1880   -0.0117 C.ar    1  LIG1        0.0306
     41 C          14.7968    0.8551    0.0640 C.ar    1  LIG1       -0.0167
     42 H          14.8179    2.8066    0.9765 H       1  LIG1        0.0655
     43 C          12.6182    0.0354   -0.5206 C.ar    1  LIG1       -0.0089
     44 C          13.9939   -0.1382   -0.4868 C.ar    1  LIG1        0.1177
     45 H          12.0121   -0.7462   -0.9644 H       1  LIG1        0.0661
     46 H          15.8763    0.7314    0.1006 H       1  LIG1        0.0655
     47 O          12.3477    3.3481    1.0632 O.3     1  LIG1       -0.5062
     48 H          11.6144    3.6608    0.5054 H       1  LIG1        0.2922
     49 O          14.4979   -1.2984   -1.0064 O.3     1  LIG1       -0.5067
     50 H          15.4591   -1.2812   -0.9383 H       1  LIG1        0.2921
@<TRIPOS>BOND
     1    13    12    1
     2    23    22    1
     3    37    36    1
     4    49    50    1
     5    49    44    1
     6    45    43    1
     7    12     7    1
     8    22    14    1
     9    36    32    1
    10     8     6    1
    11    18    15    1
    12    33    31    1
    13    43    44   ar
    14    43    40   ar
    15    44    41   ar
    16     7     6   ar
    17     7     4   ar
    18    14    15   ar
    19    14    16   ar
    20     6     3   ar
    21    15    17   ar
    22    32    31   ar
    23    32    29   ar
    24    31    28   ar
    25     4    16    1
    26     4     2   ar
    27    16    19   ar
    28    40    29    1
    29    40    38   ar
    30    29    27   ar
    31     3     9    1
    32     3     1   ar
    33    17    28    1
    34    17    20   ar
    35    28    26   ar
    36    41    46    1
    37    41    39   ar
    38    19    20   ar
    39    19    21    1
    40     2     1   ar
    41     2     5    1
    42    27    26   ar
    43    27    30    1
    44     1    10    1
    45    26    34    1
    46    20    24    1
    47    48    47    1
    48    38    39   ar
    49    38    47    1
    50    39    42    1
    51    34    35    1
    52    10    11    1
    53    24    25    1
