@<TRIPOS>MOLECULE
mol_data/opt/cam/geoms/mol2/4ff4ff4ff.out
 38 40 0 0 0
SMALL
GASTEIGER

@<TRIPOS>ATOM
      1 C          -0.1218    0.3730    0.8803 C.ar    1  LIG1        0.1177
      2 C           1.2650    0.3581    0.8220 C.ar    1  LIG1       -0.0089
      3 C          -0.8359    1.2542    0.0780 C.ar    1  LIG1       -0.0167
      4 C           1.9773    1.2080   -0.0286 C.ar    1  LIG1        0.0306
      5 H           1.8202   -0.3402    1.4388 H       1  LIG1        0.0661
      6 C          -0.1468    2.1064   -0.7700 C.ar    1  LIG1       -0.0161
      7 C           1.2433    2.0926   -0.8320 C.ar    1  LIG1        0.1249
      8 H          -0.6998    2.7980   -1.4012 H       1  LIG1        0.0655
      9 H          -1.9185    1.2612    0.1263 H       1  LIG1        0.0655
     10 O          -0.8307   -0.4511    1.7080 O.3     1  LIG1       -0.5067
     11 H          -0.2161   -1.0267    2.1772 H       1  LIG1        0.2921
     12 O           1.9195    2.9351   -1.6754 O.3     1  LIG1       -0.5062
     13 H           1.2780    3.3994   -2.2248 H       1  LIG1        0.2922
     14 C           4.1845   -0.0243   -0.0446 C.ar    1  LIG1        0.1255
     15 C           5.5719   -0.0104   -0.0390 C.ar    1  LIG1       -0.0083
     16 C           3.4620    1.1763   -0.0491 C.ar    1  LIG1        0.0306
     17 C           6.3117    1.1720   -0.0422 C.ar    1  LIG1        0.0306
     18 H           6.1071   -0.9540   -0.0495 H       1  LIG1        0.0661
     19 C           4.2019    2.3588   -0.0479 C.ar    1  LIG1       -0.0083
     20 C           5.5893    2.3727   -0.0467 C.ar    1  LIG1        0.1255
     21 H           3.6667    3.3023   -0.0654 H       1  LIG1        0.0661
     22 O           3.4973   -1.2099   -0.0452 O.3     1  LIG1       -0.5061
     23 H           4.1302   -1.9281   -0.1586 H       1  LIG1        0.2922
     24 O           6.2765    3.5582   -0.0496 O.3     1  LIG1       -0.5061
     25 H           5.6441    4.2759   -0.1693 H       1  LIG1        0.2922
     26 C           8.5343    0.2521   -0.8100 C.ar    1  LIG1        0.1249
     27 C           9.9240    0.2386   -0.7411 C.ar    1  LIG1       -0.0161
     28 C           7.7963    1.1405   -0.0142 C.ar    1  LIG1        0.0306
     29 C          10.6090    1.0948    0.1063 C.ar    1  LIG1       -0.0167
     30 H          10.4800   -0.4560   -1.3664 H       1  LIG1        0.0655
     31 C           8.5045    1.9943    0.8358 C.ar    1  LIG1       -0.0089
     32 C           9.8910    1.9797    0.9009 C.ar    1  LIG1        0.1177
     33 H           7.9463    2.6955    1.4467 H       1  LIG1        0.0661
     34 H          11.6913    1.0880    0.1598 H       1  LIG1        0.0655
     35 O           7.8622   -0.5943   -1.6526 O.3     1  LIG1       -0.5062
     36 H           8.5063   -1.0611   -2.1969 H       1  LIG1        0.2922
     37 O          10.5958    2.8076    1.7282 O.3     1  LIG1       -0.5067
     38 H           9.9791    3.3854    2.1917 H       1  LIG1        0.2921
@<TRIPOS>BOND
     1    13    12    1
     2    36    35    1
     3    12     7    1
     4    35    26    1
     5     8     6    1
     6    30    27    1
     7     7     6   ar
     8     7     4   ar
     9    26    27   ar
    10    26    28   ar
    11     6     3   ar
    12    27    29   ar
    13    25    24    1
    14    23    22    1
    15    21    19    1
    16    24    20    1
    17    18    15    1
    18    16    19   ar
    19    16    14   ar
    20    16     4    1
    21    19    20   ar
    22    20    17   ar
    23    22    14    1
    24    14    15   ar
    25    17    15   ar
    26    17    28    1
    27     4     2   ar
    28    28    31   ar
    29     3     9    1
    30     3     1   ar
    31    29    34    1
    32    29    32   ar
    33     2     1   ar
    34     2     5    1
    35    31    32   ar
    36    31    33    1
    37     1    10    1
    38    32    37    1
    39    10    11    1
    40    37    38    1
