@<TRIPOS>MOLECULE
mol_data/opt/cam/geoms/mol2/4ff4ff-4ff-4ff-.out
 50 53 0 0 0
SMALL
GASTEIGER

@<TRIPOS>ATOM
      1 C          -0.1576   -0.0140   -0.1728 C.ar    1  LIG1        0.1177
      2 C           1.2271    0.0841   -0.1310 C.ar    1  LIG1       -0.0089
      3 C          -0.9343    1.1312   -0.0321 C.ar    1  LIG1       -0.0167
      4 C           1.8778    1.3096    0.0478 C.ar    1  LIG1        0.0306
      5 H           1.8326   -0.8133   -0.2198 H       1  LIG1        0.0661
      6 C          -0.3099    2.3536    0.1520 C.ar    1  LIG1       -0.0161
      7 C           1.0758    2.4448    0.1903 C.ar    1  LIG1        0.1249
      8 H          -0.9099    3.2534    0.2622 H       1  LIG1        0.0655
      9 H          -2.0141    1.0487   -0.0623 H       1  LIG1        0.0655
     10 O          -0.8070   -1.1995   -0.3394 O.3     1  LIG1       -0.5067
     11 H          -0.1613   -1.9112   -0.4181 H       1  LIG1        0.2921
     12 O           1.7033    3.6629    0.3630 O.3     1  LIG1       -0.5062
     13 H           1.0426    4.3630    0.4210 H       1  LIG1        0.2922
     14 C           4.1284    2.0155    1.0147 C.ar    1  LIG1        0.1255
     15 C           5.5146    1.8958    0.9992 C.ar    1  LIG1       -0.0083
     16 C           3.3650    1.3403    0.0454 C.ar    1  LIG1        0.0306
     17 C           6.1872    1.1290    0.0454 C.ar    1  LIG1        0.0306
     18 H           6.0677    2.3940    1.7890 H       1  LIG1        0.0661
     19 C           4.0422    0.5963   -0.9237 C.ar    1  LIG1       -0.0083
     20 C           5.4246    0.4838   -0.9387 C.ar    1  LIG1        0.1255
     21 H           3.4863    0.0938   -1.7072 H       1  LIG1        0.0661
     22 O           3.5831    2.7425    2.0254 O.3     1  LIG1       -0.5061
     23 H           2.8336    3.2481    1.6659 H       1  LIG1        0.2922
     24 O           5.9794   -0.2577   -1.9365 O.3     1  LIG1       -0.5061
     25 H           6.9424   -0.2178   -1.8584 H       1  LIG1        0.2922
     26 C           8.4619    2.1875   -0.0291 C.ar    1  LIG1        0.1255
     27 C           9.8474    2.0780   -0.0357 C.ar    1  LIG1       -0.0083
     28 C           7.6703    1.0306    0.0446 C.ar    1  LIG1        0.0306
     29 C          10.4858    0.8365    0.0236 C.ar    1  LIG1        0.0306
     30 H          10.4330    2.9912   -0.0625 H       1  LIG1        0.0661
     31 C           8.3090   -0.2109    0.0940 C.ar    1  LIG1       -0.0083
     32 C           9.6946   -0.3207    0.0818 C.ar    1  LIG1        0.1255
     33 H           7.7241   -1.1216    0.1704 H       1  LIG1        0.0661
     34 O           7.9347    3.4378   -0.0993 O.3     1  LIG1       -0.5061
     35 H           6.9693    3.3703   -0.1158 H       1  LIG1        0.2922
     36 O          10.2213   -1.5730    0.1260 O.3     1  LIG1       -0.5061
     37 H          11.1858   -1.5095    0.0825 H       1  LIG1        0.2922
     38 C          12.7055    1.2722   -1.0640 C.ar    1  LIG1        0.1249
     39 C          14.0912    1.1585   -1.0740 C.ar    1  LIG1       -0.0161
     40 C          11.9697    0.7364    0.0046 C.ar    1  LIG1        0.0306
     41 C          14.7566    0.5156   -0.0407 C.ar    1  LIG1       -0.0167
     42 H          14.6366    1.5787   -1.9111 H       1  LIG1        0.0655
     43 C          12.6532    0.0879    1.0381 C.ar    1  LIG1       -0.0089
     44 C          14.0385   -0.0238    1.0224 C.ar    1  LIG1        0.1177
     45 H          12.1084   -0.3088    1.8886 H       1  LIG1        0.0661
     46 H          15.8402    0.4353   -0.0640 H       1  LIG1        0.0655
     47 O          12.1222    1.9037   -2.1182 O.3     1  LIG1       -0.5062
     48 H          11.1620    1.8859   -2.0040 H       1  LIG1        0.2922
     49 O          14.6306   -0.6647    2.0710 O.3     1  LIG1       -0.5067
     50 H          15.5870   -0.6575    1.9509 H       1  LIG1        0.2921
@<TRIPOS>BOND
     1    47    48    1
     2    47    38    1
     3    24    25    1
     4    24    20    1
     5    42    39    1
     6    21    19    1
     7    39    38   ar
     8    39    41   ar
     9    38    40   ar
    10    20    19   ar
    11    20    17   ar
    12    19    16   ar
    13    11    10    1
    14    10     1    1
    15     5     2    1
    16     1     2   ar
    17     1     3   ar
    18     2     4   ar
    19    35    34    1
    20    34    26    1
    21    46    41    1
    22    30    27    1
    23     9     3    1
    24    41    44   ar
    25    27    26   ar
    26    27    29   ar
    27     3     6   ar
    28    26    28   ar
    29    40    29    1
    30    40    43   ar
    31    29    32   ar
    32    28    17    1
    33    28    31   ar
    34    17    15   ar
    35    16     4    1
    36    16    14   ar
    37     4     7   ar
    38    32    31   ar
    39    32    36    1
    40    37    36    1
    41    31    33    1
    42     6     7   ar
    43     6     8    1
    44     7    12    1
    45    12    13    1
    46    15    14   ar
    47    15    18    1
    48    14    22    1
    49    44    43   ar
    50    44    49    1
    51    43    45    1
    52    23    22    1
    53    50    49    1
