@<TRIPOS>MOLECULE
mol_data/opt/cam/geoms/mol2/4ff4ff-4ff4ff-.out
 50 53 0 0 0
SMALL
GASTEIGER

@<TRIPOS>ATOM
      1 C          -0.2227    0.0984    0.4064 C.ar    1  LIG1        0.1177
      2 C           1.1651    0.1503    0.3977 C.ar    1  LIG1       -0.0089
      3 C          -0.9571    1.2066   -0.0014 C.ar    1  LIG1       -0.0167
      4 C           1.8625    1.2905   -0.0155 C.ar    1  LIG1        0.0306
      5 H           1.7370   -0.7084    0.7373 H       1  LIG1        0.0661
      6 C          -0.2866    2.3484   -0.4081 C.ar    1  LIG1       -0.0161
      7 C           1.1018    2.3920   -0.4177 C.ar    1  LIG1        0.1249
      8 H          -0.8525    3.2192   -0.7296 H       1  LIG1        0.0655
      9 H          -2.0395    1.1622    0.0107 H       1  LIG1        0.0655
     10 O          -0.9149   -1.0033    0.8120 O.3     1  LIG1       -0.5067
     11 H          -0.2934   -1.6943    1.0684 H       1  LIG1        0.2921
     12 O           1.7726    3.5255   -0.8339 O.3     1  LIG1       -0.5062
     13 H           1.1354    4.1958   -1.1067 H       1  LIG1        0.2922
     14 C           4.1558    2.2752    0.5078 C.ar    1  LIG1        0.1255
     15 C           5.5339    2.1093    0.5395 C.ar    1  LIG1       -0.0083
     16 C           3.3492    1.2587   -0.0327 C.ar    1  LIG1        0.0306
     17 C           6.1717    0.9705    0.0432 C.ar    1  LIG1        0.0306
     18 H           6.1164    2.9064    0.9877 H       1  LIG1        0.0661
     19 C           3.9872    0.1207   -0.5290 C.ar    1  LIG1       -0.0083
     20 C           5.3655   -0.0454   -0.4981 C.ar    1  LIG1        0.1255
     21 H           3.4038   -0.6773   -0.9743 H       1  LIG1        0.0661
     22 O           3.6559    3.4119    1.0671 O.3     1  LIG1       -0.5061
     23 H           2.9187    3.7204    0.5130 H       1  LIG1        0.2922
     24 O           5.8657   -1.1809   -1.0603 O.3     1  LIG1       -0.5061
     25 H           6.6004   -1.4944   -0.5064 H       1  LIG1        0.2922
     26 C           8.4270   -0.1623    0.4153 C.ar    1  LIG1        0.1255
     27 C           9.8117   -0.1131    0.4061 C.ar    1  LIG1       -0.0083
     28 C           7.6565    0.9376    0.0263 C.ar    1  LIG1        0.0306
     29 C          10.5171    1.0256    0.0124 C.ar    1  LIG1        0.0306
     30 H          10.3764   -0.9794    0.7389 H       1  LIG1        0.0661
     31 C           8.3624    2.0759   -0.3679 C.ar    1  LIG1       -0.0083
     32 C           9.7471    2.1255   -0.3761 C.ar    1  LIG1        0.1255
     33 H           7.7978    2.9420   -0.7015 H       1  LIG1        0.0661
     34 O           7.7662   -1.2984    0.8300 O.3     1  LIG1       -0.5061
     35 H           8.4073   -1.9663    1.1010 H       1  LIG1        0.2922
     36 O          10.4084    3.2615   -0.7900 O.3     1  LIG1       -0.5061
     37 H           9.7676    3.9313   -1.0572 H       1  LIG1        0.2922
     38 C          12.8024    2.0073    0.5506 C.ar    1  LIG1        0.1249
     39 C          14.1841    1.8452    0.5908 C.ar    1  LIG1       -0.0161
     40 C          12.0029    0.9919   -0.0049 C.ar    1  LIG1        0.0306
     41 C          14.7916    0.7067    0.0850 C.ar    1  LIG1       -0.0167
     42 H          14.7721    2.6397    1.0359 H       1  LIG1        0.0655
     43 C          12.6323   -0.1401   -0.5320 C.ar    1  LIG1       -0.0089
     44 C          14.0107   -0.2900   -0.4912 C.ar    1  LIG1        0.1177
     45 H          12.0438   -0.9227   -0.9973 H       1  LIG1        0.0661
     46 H          15.8727    0.6015    0.1271 H       1  LIG1        0.0655
     47 O          12.2910    3.1354    1.1161 O.3     1  LIG1       -0.5062
     48 H          11.5665    3.4561    0.5525 H       1  LIG1        0.2922
     49 O          14.5382   -1.4302   -1.0290 O.3     1  LIG1       -0.5067
     50 H          15.4988   -1.3975   -0.9572 H       1  LIG1        0.2921
@<TRIPOS>BOND
     1    13    12    1
     2    24    25    1
     3    24    20    1
     4    37    36    1
     5    49    50    1
     6    49    44    1
     7    45    43    1
     8    21    19    1
     9    12     7    1
    10    36    32    1
    11     8     6    1
    12    33    31    1
    13    43    44   ar
    14    43    40   ar
    15    19    20   ar
    16    19    16   ar
    17    20    17   ar
    18    44    41   ar
    19     7     6   ar
    20     7     4   ar
    21     6     3   ar
    22    32    31   ar
    23    32    29   ar
    24    31    28   ar
    25    16     4    1
    26    16    14   ar
    27     4     2   ar
    28    40    29    1
    29    40    38   ar
    30     3     9    1
    31     3     1   ar
    32    29    27   ar
    33    28    17    1
    34    28    26   ar
    35    17    15   ar
    36    41    46    1
    37    41    39   ar
    38     2     1   ar
    39     2     5    1
    40    27    26   ar
    41    27    30    1
    42     1    10    1
    43    26    34    1
    44    14    15   ar
    45    14    22    1
    46    23    22    1
    47    15    18    1
    48    38    39   ar
    49    38    47    1
    50    48    47    1
    51    39    42    1
    52    10    11    1
    53    34    35    1
