@<TRIPOS>MOLECULE
mol_data/opt/cam/geoms/mol2/4fg.out
 14 14 0 0 0
SMALL
GASTEIGER

@<TRIPOS>ATOM
      1 C           0.0769    0.0023    0.0004 C.ar    1  LIG1        0.1169
      2 C           1.4681    0.0006    0.0000 C.ar    1  LIG1       -0.0191
      3 C          -0.6082    1.2136    0.0003 C.ar    1  LIG1       -0.0191
      4 C           2.1669    1.2004   -0.0005 C.ar    1  LIG1       -0.0451
      5 H           2.0121   -0.9404    0.0001 H       1  LIG1        0.0654
      6 C           0.0940    2.4088   -0.0002 C.ar    1  LIG1       -0.0451
      7 C           1.4885    2.4160   -0.0006 C.ar    1  LIG1        0.0050
      8 H          -0.4569    3.3439   -0.0003 H       1  LIG1        0.0630
      9 H           3.2521    1.1834   -0.0008 H       1  LIG1        0.0630
     10 H          -1.6920    1.2028    0.0006 H       1  LIG1        0.0654
     11 O          -0.6640   -1.1408    0.0009 O.3     1  LIG1       -0.5068
     12 H          -0.0750   -1.9042    0.0010 H       1  LIG1        0.2921
     13 S           2.4517    3.9163   -0.0013 S.3     1  LIG1       -0.1426
     14 H           1.4182    4.7721   -0.0012 H       1  LIG1        0.1071
@<TRIPOS>BOND
     1    13    14    1
     2    13     7    1
     3     9     4    1
     4     7     4   ar
     5     7     6   ar
     6     4     2   ar
     7     8     6    1
     8     6     3   ar
     9     2     5    1
    10     2     1   ar
    11     3     1   ar
    12     3    10    1
    13     1    11    1
    14    11    12    1
