@<TRIPOS>MOLECULE
mol_data/opt/cam/geoms/mol2/4fg4fg-4fg-.out
 38 40 0 0 0
SMALL
GASTEIGER

@<TRIPOS>ATOM
      1 C          -0.1305    0.0562   -0.4523 C.ar    1  LIG1        0.1175
      2 C           1.2556    0.0718   -0.4028 C.ar    1  LIG1       -0.0113
      3 C          -0.8442    1.1889   -0.0725 C.ar    1  LIG1       -0.0191
      4 C           1.9533    1.2015    0.0290 C.ar    1  LIG1        0.0022
      5 H           1.8199   -0.8092   -0.6945 H       1  LIG1        0.0660
      6 C          -0.1619    2.3127    0.3581 C.ar    1  LIG1       -0.0445
      7 C           1.2329    2.3358    0.4237 C.ar    1  LIG1        0.0128
      8 H          -0.7294    3.1890    0.6543 H       1  LIG1        0.0630
      9 H          -1.9270    1.1721   -0.1172 H       1  LIG1        0.0654
     10 O          -0.8407   -1.0293   -0.8675 O.3     1  LIG1       -0.5067
     11 H          -0.2308   -1.7449   -1.0809 H       1  LIG1        0.2921
     12 S           2.1034    3.7776    1.0249 S.3     1  LIG1       -0.1420
     13 H           1.0102    4.4111    1.4786 H       1  LIG1        0.1071
     14 C           4.1538    0.2405    0.7964 C.ar    1  LIG1        0.1252
     15 C           5.5406    0.2387    0.7718 C.ar    1  LIG1       -0.0107
     16 C           3.4415    1.1725    0.0317 C.ar    1  LIG1        0.0258
     17 C           6.2628    1.1418   -0.0063 C.ar    1  LIG1        0.0023
     18 H           6.0859   -0.4853    1.3707 H       1  LIG1        0.0661
     19 C           4.1666    2.0635   -0.7539 C.ar    1  LIG1       -0.0367
     20 C           5.5596    2.0642   -0.7893 C.ar    1  LIG1        0.0134
     21 H           3.6131    2.7715   -1.3617 H       1  LIG1        0.0636
     22 O           3.4462   -0.6445    1.5531 O.3     1  LIG1       -0.5061
     23 H           4.0616   -1.1852    2.0618 H       1  LIG1        0.2922
     24 S           6.4580    3.1930   -1.8427 S.3     1  LIG1       -0.1420
     25 H           5.3712    3.7501   -2.3993 H       1  LIG1        0.1071
     26 C           8.4665   -0.0149   -0.3962 C.ar    1  LIG1        0.1246
     27 C           9.8568   -0.0282   -0.3406 C.ar    1  LIG1       -0.0185
     28 C           7.7509    1.1126    0.0326 C.ar    1  LIG1        0.0257
     29 C          10.5508    1.0760    0.1332 C.ar    1  LIG1       -0.0451
     30 H          10.3998   -0.9069   -0.6791 H       1  LIG1        0.0654
     31 C           8.4676    2.2003    0.5254 C.ar    1  LIG1       -0.0373
     32 C           9.8603    2.2017    0.5695 C.ar    1  LIG1        0.0055
     33 H           7.9214    3.0651    0.8856 H       1  LIG1        0.0636
     34 H          11.6345    1.0636    0.1637 H       1  LIG1        0.0630
     35 O           7.7568   -1.0792   -0.8567 O.3     1  LIG1       -0.5062
     36 H           8.3680   -1.7594   -1.1629 H       1  LIG1        0.2922
     37 S          10.7594    3.5957    1.2431 S.3     1  LIG1       -0.1426
     38 H          10.5578    4.4478    0.2217 H       1  LIG1        0.1071
@<TRIPOS>BOND
     1    25    24    1
     2    24    20    1
     3    21    19    1
     4    36    35    1
     5    11    10    1
     6    10     1    1
     7    35    26    1
     8    20    19   ar
     9    20    17   ar
    10    19    16   ar
    11     5     2    1
    12    30    27    1
    13     1     2   ar
    14     1     3   ar
    15     2     4   ar
    16    26    27   ar
    17    26    28   ar
    18    27    29   ar
    19     9     3    1
    20     3     6   ar
    21    17    28    1
    22    17    15   ar
    23     4    16    1
    24     4     7   ar
    25    16    14   ar
    26    28    31   ar
    27    29    34    1
    28    29    32   ar
    29    38    37    1
    30     6     7   ar
    31     6     8    1
    32     7    12    1
    33    31    32   ar
    34    31    33    1
    35    32    37    1
    36    15    14   ar
    37    15    18    1
    38    14    22    1
    39    12    13    1
    40    22    23    1
