@<TRIPOS>MOLECULE
mol_data/opt/cam/geoms/mol2/4fg4fg-4fg-4fg.out
 50 53 0 0 0
SMALL
GASTEIGER

@<TRIPOS>ATOM
      1 C          -0.2362   -0.0272    0.0472 C.ar    1  LIG1        0.1175
      2 C           1.1505    0.0037    0.0457 C.ar    1  LIG1       -0.0113
      3 C          -0.9499    1.1674    0.0585 C.ar    1  LIG1       -0.0191
      4 C           1.8496    1.2122    0.0635 C.ar    1  LIG1        0.0022
      5 H           1.7148   -0.9243    0.0403 H       1  LIG1        0.0660
      6 C          -0.2664    2.3700    0.0775 C.ar    1  LIG1       -0.0445
      7 C           1.1294    2.4132    0.0889 C.ar    1  LIG1        0.0128
      8 H          -0.8337    3.2951    0.0892 H       1  LIG1        0.0630
      9 H          -2.0333    1.1370    0.0554 H       1  LIG1        0.0654
     10 O          -0.9473   -1.1887    0.0312 O.3     1  LIG1       -0.5067
     11 H          -0.3367   -1.9349    0.0434 H       1  LIG1        0.2921
     12 S           2.0007    3.9734    0.1606 S.3     1  LIG1       -0.1420
     13 H           0.9145    4.7182    0.4206 H       1  LIG1        0.1071
     14 C           4.0814    0.5381    1.0233 C.ar    1  LIG1        0.1252
     15 C           5.4664    0.5269    0.9558 C.ar    1  LIG1       -0.0107
     16 C           3.3373    1.1845    0.0286 C.ar    1  LIG1        0.0258
     17 C           6.1582    1.1389   -0.0887 C.ar    1  LIG1        0.0023
     18 H           6.0360    0.0246    1.7323 H       1  LIG1        0.0661
     19 C           4.0310    1.7814   -1.0199 C.ar    1  LIG1       -0.0367
     20 C           5.4223    1.7695   -1.0994 C.ar    1  LIG1        0.0134
     21 H           3.4531    2.2616   -1.8024 H       1  LIG1        0.0636
     22 O           3.4063   -0.0643    2.0423 O.3     1  LIG1       -0.5061
     23 H           4.0431   -0.4260    2.6696 H       1  LIG1        0.2922
     24 S           6.2697    2.5084   -2.4883 S.3     1  LIG1       -0.1420
     25 H           5.1559    2.8509   -3.1545 H       1  LIG1        0.1071
     26 C           8.3609   -0.0861   -0.0840 C.ar    1  LIG1        0.1252
     27 C           9.7474   -0.0699   -0.0557 C.ar    1  LIG1       -0.0107
     28 C           7.6461    1.1182   -0.0821 C.ar    1  LIG1        0.0258
     29 C          10.4682    1.1231   -0.0312 C.ar    1  LIG1        0.0023
     30 H          10.2940   -1.0086   -0.0638 H       1  LIG1        0.0661
     31 C           8.3695    2.3065   -0.0491 C.ar    1  LIG1       -0.0367
     32 C           9.7627    2.3321   -0.0361 C.ar    1  LIG1        0.0134
     33 H           7.8154    3.2386   -0.0349 H       1  LIG1        0.0636
     34 O           7.6560   -1.2526   -0.1052 O.3     1  LIG1       -0.5061
     35 H           8.2729   -1.9899   -0.1805 H       1  LIG1        0.2922
     36 S          10.6522    3.8818   -0.0436 S.3     1  LIG1       -0.1420
     37 H           9.5875    4.6443   -0.3376 H       1  LIG1        0.1071
     38 C          12.7049    0.4786   -0.9948 C.ar    1  LIG1        0.1246
     39 C          14.0936    0.4383   -0.9168 C.ar    1  LIG1       -0.0185
     40 C          11.9547    1.0768    0.0287 C.ar    1  LIG1        0.0257
     41 C          14.7525    0.9931    0.1712 C.ar    1  LIG1       -0.0451
     42 H          14.6633   -0.0248   -1.7184 H       1  LIG1        0.0654
     43 C          12.6366    1.6077    1.1208 C.ar    1  LIG1       -0.0373
     44 C          14.0277    1.5851    1.1999 C.ar    1  LIG1        0.0055
     45 H          12.0652    2.0462    1.9315 H       1  LIG1        0.0636
     46 H          15.8351    0.9660    0.2215 H       1  LIG1        0.0630
     47 O          12.0296   -0.0557   -2.0458 O.3     1  LIG1       -0.5062
     48 H          12.6607   -0.3767   -2.7007 H       1  LIG1        0.2922
     49 S          14.8774    2.2402    2.6334 S.3     1  LIG1       -0.1426
     50 H          14.7311    3.5466    2.3466 H       1  LIG1        0.1071
@<TRIPOS>BOND
     1    25    24    1
     2    48    47    1
     3    24    20    1
     4    47    38    1
     5    21    19    1
     6    42    39    1
     7    20    19   ar
     8    20    17   ar
     9    19    16   ar
    10    38    39   ar
    11    38    40   ar
    12    39    41   ar
    13    37    36    1
    14    35    34    1
    15    34    26    1
    16    17    28    1
    17    17    15   ar
    18    26    28   ar
    19    26    27   ar
    20    28    31   ar
    21    30    27    1
    22    27    29   ar
    23    31    32   ar
    24    31    33    1
    25    36    32    1
    26    32    29   ar
    27    29    40    1
    28    16     4    1
    29    16    14   ar
    30    40    43   ar
    31    10    11    1
    32    10     1    1
    33     5     2    1
    34     2     1   ar
    35     2     4   ar
    36     1     3   ar
    37     9     3    1
    38     3     6   ar
    39     4     7   ar
    40     6     7   ar
    41     6     8    1
    42     7    12    1
    43    12    13    1
    44    41    46    1
    45    41    44   ar
    46    15    14   ar
    47    15    18    1
    48    14    22    1
    49    43    44   ar
    50    43    45    1
    51    44    49    1
    52    22    23    1
    53    50    49    1
