@<TRIPOS>MOLECULE
mol_data/opt/cam/geoms/mol2/4fg4fg-4fg-4fg-.out
 50 53 0 0 0
SMALL
GASTEIGER

@<TRIPOS>ATOM
      1 C          -0.2320    0.1067   -0.5939 C.ar    1  LIG1        0.1175
      2 C           1.1545    0.1288   -0.5614 C.ar    1  LIG1       -0.0113
      3 C          -0.9491    1.1611   -0.0368 C.ar    1  LIG1       -0.0191
      4 C           1.8497    1.1867    0.0276 C.ar    1  LIG1        0.0022
      5 H           1.7216   -0.6918   -0.9909 H       1  LIG1        0.0660
      6 C          -0.2695    2.2132    0.5506 C.ar    1  LIG1       -0.0445
      7 C           1.1258    2.2403    0.6002 C.ar    1  LIG1        0.0128
      8 H          -0.8396    3.0284    0.9845 H       1  LIG1        0.0630
      9 H          -2.0323    1.1403   -0.0690 H       1  LIG1        0.0654
     10 O          -0.9395   -0.9105   -1.1595 O.3     1  LIG1       -0.5067
     11 H          -0.3271   -1.5780   -1.4897 H       1  LIG1        0.2921
     12 S           1.9926    3.5823    1.4040 S.3     1  LIG1       -0.1420
     13 H           0.8995    4.1302    1.9583 H       1  LIG1        0.1071
     14 C           4.0683    0.1364    0.6012 C.ar    1  LIG1        0.1252
     15 C           5.4542    0.1513    0.5573 C.ar    1  LIG1       -0.0107
     16 C           3.3378    1.1720    0.0056 C.ar    1  LIG1        0.0258
     17 C           6.1598    1.1726   -0.0774 C.ar    1  LIG1        0.0023
     18 H           6.0135   -0.6549    1.0230 H       1  LIG1        0.0661
     19 C           4.0456    2.1824   -0.6385 C.ar    1  LIG1       -0.0367
     20 C           5.4379    2.2013   -0.6948 C.ar    1  LIG1        0.0134
     21 H           3.4783    2.9728   -1.1185 H       1  LIG1        0.0636
     22 O           3.3792   -0.8648    1.2174 O.3     1  LIG1       -0.5061
     23 H           4.0074   -1.4780    1.6164 H       1  LIG1        0.2922
     24 S           6.3058    3.4926   -1.5736 S.3     1  LIG1       -0.1420
     25 H           5.2030    4.0922   -2.0489 H       1  LIG1        0.1071
     26 C           8.3658    0.0756   -0.6082 C.ar    1  LIG1        0.1252
     27 C           9.7522    0.0781   -0.5675 C.ar    1  LIG1       -0.0107
     28 C           7.6475    1.1454   -0.0601 C.ar    1  LIG1        0.0258
     29 C          10.4678    1.1216    0.0166 C.ar    1  LIG1        0.0023
     30 H          10.3023   -0.7543   -0.9973 H       1  LIG1        0.0661
     31 C           8.3660    2.1793    0.5335 C.ar    1  LIG1       -0.0367
     32 C           9.7582    2.1862    0.5844 C.ar    1  LIG1        0.0134
     33 H           7.8074    2.9976    0.9751 H       1  LIG1        0.0636
     34 O           7.6647   -0.9469   -1.1746 O.3     1  LIG1       -0.5061
     35 H           8.2853   -1.5801   -1.5538 H       1  LIG1        0.2922
     36 S          10.6478    3.5071    1.3930 S.3     1  LIG1       -0.1420
     37 H           9.5566    4.1665    1.8121 H       1  LIG1        0.1071
     38 C          12.6614    0.0678    0.6669 C.ar    1  LIG1        0.1246
     39 C          14.0521    0.0419    0.6351 C.ar    1  LIG1       -0.0185
     40 C          11.9562    1.0833    0.0045 C.ar    1  LIG1        0.0257
     41 C          14.7570    1.0239   -0.0465 C.ar    1  LIG1       -0.0451
     42 H          14.5870   -0.7485    1.1555 H       1  LIG1        0.0654
     43 C          12.6838    2.0452   -0.6920 C.ar    1  LIG1       -0.0373
     44 C          14.0770    2.0359   -0.7157 C.ar    1  LIG1        0.0055
     45 H          12.1460    2.8178   -1.2302 H       1  LIG1        0.0636
     46 H          15.8409    1.0044   -0.0581 H       1  LIG1        0.0630
     47 O          11.9412   -0.8779    1.3269 O.3     1  LIG1       -0.5062
     48 H          12.5455   -1.4798    1.7770 H       1  LIG1        0.2922
     49 S          14.9910    3.2596   -1.6497 S.3     1  LIG1       -0.1426
     50 H          14.7759    4.3055   -0.8314 H       1  LIG1        0.1071
@<TRIPOS>BOND
     1    25    24    1
     2    49    50    1
     3    49    44    1
     4    24    20    1
     5    35    34    1
     6    11    10    1
     7    45    43    1
     8    34    26    1
     9    10     1    1
    10    21    19    1
    11    30    27    1
    12     5     2    1
    13    44    43   ar
    14    44    41   ar
    15    20    19   ar
    16    20    17   ar
    17    43    40   ar
    18    19    16   ar
    19    26    27   ar
    20    26    28   ar
    21     1     2   ar
    22     1     3   ar
    23    27    29   ar
    24     2     4   ar
    25    17    28    1
    26    17    15   ar
    27     9     3    1
    28    28    31   ar
    29    46    41    1
    30    41    39   ar
    31     3     6   ar
    32    40    29    1
    33    40    38   ar
    34    16     4    1
    35    16    14   ar
    36    29    32   ar
    37     4     7   ar
    38    31    32   ar
    39    31    33    1
    40     6     7   ar
    41     6     8    1
    42    15    14   ar
    43    15    18    1
    44    32    36    1
    45     7    12    1
    46    14    22    1
    47    39    38   ar
    48    39    42    1
    49    38    47    1
    50    22    23    1
    51    47    48    1
    52    36    37    1
    53    12    13    1
