@<TRIPOS>MOLECULE
mol_data/opt/cam/geoms/mol2/4fg4fg4fg-4fg-.out
 50 53 0 0 0
SMALL
GASTEIGER

@<TRIPOS>ATOM
      1 C          -0.2342    0.1216    0.6022 C.ar    1  LIG1        0.1175
      2 C           1.1523    0.1429    0.5742 C.ar    1  LIG1       -0.0113
      3 C          -0.9492    1.1621    0.0169 C.ar    1  LIG1       -0.0191
      4 C           1.8498    1.1861   -0.0379 C.ar    1  LIG1        0.0022
      5 H           1.7178   -0.6670    1.0258 H       1  LIG1        0.0660
      6 C          -0.2674    2.1996   -0.5935 C.ar    1  LIG1       -0.0445
      7 C           1.1282    2.2254   -0.6386 C.ar    1  LIG1        0.0128
      8 H          -0.8358    3.0039   -1.0492 H       1  LIG1        0.0630
      9 H          -2.0325    1.1421    0.0457 H       1  LIG1        0.0654
     10 O          -0.9440   -0.8815    1.1898 O.3     1  LIG1       -0.5067
     11 H          -0.3328   -1.5408    1.5385 H       1  LIG1        0.2921
     12 S           1.9980    3.5474   -1.4717 S.3     1  LIG1       -0.1420
     13 H           0.9070    4.0816   -2.0433 H       1  LIG1        0.1071
     14 C           4.0704    0.1221   -0.5774 C.ar    1  LIG1        0.1252
     15 C           5.4562    0.1381   -0.5288 C.ar    1  LIG1       -0.0107
     16 C           3.3378    1.1720   -0.0100 C.ar    1  LIG1        0.0258
     17 C           6.1595    1.1745    0.0833 C.ar    1  LIG1        0.0023
     18 H           6.0171   -0.6793   -0.9727 H       1  LIG1        0.0661
     19 C           4.0433    2.1978    0.6119 C.ar    1  LIG1       -0.0367
     20 C           5.4355    2.2180    0.6728 C.ar    1  LIG1        0.0134
     21 H           3.4744    2.9997    1.0703 H       1  LIG1        0.0636
     22 O           3.3835   -0.8939   -1.1716 O.3     1  LIG1       -0.5061
     23 H           4.0131   -1.5166   -1.5532 H       1  LIG1        0.2922
     24 S           6.3002    3.5304    1.5229 S.3     1  LIG1       -0.1420
     25 H           5.1958    4.1414    1.9794 H       1  LIG1        0.1071
     26 C           8.3634    0.0908    0.6488 C.ar    1  LIG1        0.1252
     27 C           9.7500    0.0923    0.6131 C.ar    1  LIG1       -0.0107
     28 C           7.6473    1.1469    0.0721 C.ar    1  LIG1        0.0258
     29 C          10.4678    1.1212    0.0063 C.ar    1  LIG1        0.0023
     30 H          10.2985   -0.7294    1.0651 H       1  LIG1        0.0661
     31 C           8.3680    2.1660   -0.5439 C.ar    1  LIG1       -0.0367
     32 C           9.7604    2.1717   -0.5899 C.ar    1  LIG1        0.0134
     33 H           7.8112    2.9733   -1.0074 H       1  LIG1        0.0636
     34 O           7.6602   -0.9175    1.2374 O.3     1  LIG1       -0.5061
     35 H           8.2793   -1.5414    1.6342 H       1  LIG1        0.2922
     36 S          10.6531    3.4724   -1.4272 S.3     1  LIG1       -0.1420
     37 H           9.5634    4.1214   -1.8663 H       1  LIG1        0.1071
     38 C          12.6636    0.0518   -0.6100 C.ar    1  LIG1        0.1246
     39 C          14.0543    0.0268   -0.5724 C.ar    1  LIG1       -0.0185
     40 C          11.9561    1.0832    0.0249 C.ar    1  LIG1        0.0257
     41 C          14.7567    1.0250    0.0875 C.ar    1  LIG1       -0.0451
     42 H          14.5910   -0.7761   -1.0715 H       1  LIG1        0.0654
     43 C          12.6813    2.0618    0.7003 C.ar    1  LIG1       -0.0373
     44 C          14.0744    2.0531    0.7293 C.ar    1  LIG1        0.0055
     45 H          12.1416    2.8473    1.2175 H       1  LIG1        0.0636
     46 H          15.8406    1.0059    0.1036 H       1  LIG1        0.0630
     47 O          11.9458   -0.9097   -1.2493 O.3     1  LIG1       -0.5062
     48 H          12.5517   -1.5224   -1.6823 H       1  LIG1        0.2922
     49 S          14.9851    3.2992    1.6365 S.3     1  LIG1       -0.1426
     50 H          14.7730    4.3249    0.7922 H       1  LIG1        0.1071
@<TRIPOS>BOND
     1    13    12    1
     2    37    36    1
     3    48    47    1
     4    23    22    1
     5    12     7    1
     6    36    32    1
     7    47    38    1
     8    22    14    1
     9    42    39    1
    10     8     6    1
    11    33    31    1
    12    18    15    1
    13     7     6   ar
    14     7     4   ar
    15    38    39   ar
    16    38    40   ar
    17     6     3   ar
    18    32    31   ar
    19    32    29   ar
    20    14    15   ar
    21    14    16   ar
    22    39    41   ar
    23    31    28   ar
    24    15    17   ar
    25     4    16    1
    26     4     2   ar
    27    16    19   ar
    28    29    40    1
    29    29    27   ar
    30     3     9    1
    31     3     1   ar
    32    40    43   ar
    33    28    17    1
    34    28    26   ar
    35    17    20   ar
    36    41    46    1
    37    41    44   ar
    38     2     1   ar
    39     2     5    1
    40     1    10    1
    41    19    20   ar
    42    19    21    1
    43    27    26   ar
    44    27    30    1
    45    26    34    1
    46    20    24    1
    47    43    44   ar
    48    43    45    1
    49    44    49    1
    50    50    49    1
    51    10    11    1
    52    34    35    1
    53    24    25    1
