@<TRIPOS>MOLECULE
mol_data/opt/cam/geoms/mol2/4fg4fg-4fg.out
 38 40 0 0 0
SMALL
GASTEIGER

@<TRIPOS>ATOM
      1 C          -0.1304    0.0508   -0.4389 C.ar    1  LIG1        0.1175
      2 C           1.2558    0.0686   -0.3958 C.ar    1  LIG1       -0.0113
      3 C          -0.8445    1.1786   -0.0454 C.ar    1  LIG1       -0.0191
      4 C           1.9534    1.1956    0.0430 C.ar    1  LIG1        0.0022
      5 H           1.8204   -0.8086   -0.6982 H       1  LIG1        0.0660
      6 C          -0.1623    2.2997    0.3922 C.ar    1  LIG1       -0.0445
      7 C           1.2327    2.3250    0.4514 C.ar    1  LIG1        0.0128
      8 H          -0.7300    3.1721    0.6991 H       1  LIG1        0.0630
      9 H          -1.9274    1.1601   -0.0851 H       1  LIG1        0.0654
     10 O          -0.8405   -1.0323   -0.8606 O.3     1  LIG1       -0.5067
     11 H          -0.2303   -1.7448   -1.0835 H       1  LIG1        0.2921
     12 S           2.1034    3.7628    1.0616 S.3     1  LIG1       -0.1420
     13 H           1.0112    4.3903    1.5260 H       1  LIG1        0.1071
     14 C           4.1593    0.2322    0.7915 C.ar    1  LIG1        0.1252
     15 C           5.5460    0.2333    0.7604 C.ar    1  LIG1       -0.0107
     16 C           3.4417    1.1696    0.0384 C.ar    1  LIG1        0.0258
     17 C           6.2628    1.1445   -0.0132 C.ar    1  LIG1        0.0023
     18 H           6.0955   -0.4950    1.3502 H       1  LIG1        0.0661
     19 C           4.1614    2.0689   -0.7427 C.ar    1  LIG1       -0.0367
     20 C           5.5542    2.0725   -0.7847 C.ar    1  LIG1        0.0134
     21 H           3.6037    2.7811   -1.3416 H       1  LIG1        0.0636
     22 O           3.4570   -0.6608    1.5436 O.3     1  LIG1       -0.5061
     23 H           4.0758   -1.2048    2.0447 H       1  LIG1        0.2922
     24 S           6.4456    3.2123   -1.8321 S.3     1  LIG1       -0.1420
     25 H           5.3551    3.7725   -2.3785 H       1  LIG1        0.1071
     26 C           8.4668   -0.0043   -0.4243 C.ar    1  LIG1        0.1246
     27 C           9.8574   -0.0154   -0.3754 C.ar    1  LIG1       -0.0185
     28 C           7.7511    1.1178    0.0184 C.ar    1  LIG1        0.0257
     29 C          10.5516    1.0857    0.1054 C.ar    1  LIG1       -0.0451
     30 H          10.4004   -0.8900   -0.7246 H       1  LIG1        0.0654
     31 C           8.4681    2.2023    0.5178 C.ar    1  LIG1       -0.0373
     32 C           9.8611    2.2060    0.5553 C.ar    1  LIG1        0.0055
     33 H           7.9221    3.0628    0.8884 H       1  LIG1        0.0636
     34 H          11.6354    1.0750    0.1307 H       1  LIG1        0.0630
     35 O           7.7568   -1.0657   -0.8911 O.3     1  LIG1       -0.5062
     36 H           8.3679   -1.7420   -1.2064 H       1  LIG1        0.2922
     37 S          10.7607    3.5955    1.2374 S.3     1  LIG1       -0.1426
     38 H          10.5536    4.4563    0.2245 H       1  LIG1        0.1071
@<TRIPOS>BOND
     1    25    24    1
     2    24    20    1
     3    21    19    1
     4    36    35    1
     5    11    10    1
     6    35    26    1
     7    10     1    1
     8    20    19   ar
     9    20    17   ar
    10    19    16   ar
    11    30    27    1
    12     5     2    1
    13     1     2   ar
    14     1     3   ar
    15    26    27   ar
    16    26    28   ar
    17     2     4   ar
    18    27    29   ar
    19     9     3    1
    20     3     6   ar
    21    17    28    1
    22    17    15   ar
    23    28    31   ar
    24    16     4    1
    25    16    14   ar
    26     4     7   ar
    27    29    34    1
    28    29    32   ar
    29    38    37    1
    30     6     7   ar
    31     6     8    1
    32     7    12    1
    33    31    32   ar
    34    31    33    1
    35    32    37    1
    36    15    14   ar
    37    15    18    1
    38    14    22    1
    39    12    13    1
    40    22    23    1
