@<TRIPOS>MOLECULE
mol_data/opt/cam/geoms/mol2/4fg4fg4fg4fg.out
 50 53 0 0 0
SMALL
GASTEIGER

@<TRIPOS>ATOM
      1 C          -0.1533    1.1351    1.4467 C.ar    1  LIG1        0.1175
      2 C           1.2278    1.0955    1.3247 C.ar    1  LIG1       -0.0113
      3 C          -0.9401    1.2614    0.3059 C.ar    1  LIG1       -0.0191
      4 C           1.8490    1.1717    0.0766 C.ar    1  LIG1        0.0022
      5 H           1.8485    0.9937    2.2101 H       1  LIG1        0.0660
      6 C          -0.3343    1.3357   -0.9356 C.ar    1  LIG1       -0.0445
      7 C           1.0546    1.2843   -1.0717 C.ar    1  LIG1        0.0128
      8 H          -0.9585    1.4304   -1.8183 H       1  LIG1        0.0630
      9 H          -2.0186    1.2960    0.4076 H       1  LIG1        0.0654
     10 O          -0.7891    1.0616    2.6489 O.3     1  LIG1       -0.5067
     11 H          -0.1341    0.9564    3.3486 H       1  LIG1        0.2921
     12 S           1.8230    1.3326   -2.6858 S.3     1  LIG1       -0.1420
     13 H           0.6813    1.1931   -3.3782 H       1  LIG1        0.1071
     14 C           4.0811    0.0814    0.5091 C.ar    1  LIG1        0.1252
     15 C           5.4661    0.1105    0.4501 C.ar    1  LIG1       -0.0107
     16 C           3.3359    1.1572    0.0104 C.ar    1  LIG1        0.0258
     17 C           6.1583    1.1870   -0.1043 C.ar    1  LIG1        0.0023
     18 H           6.0355   -0.7318    0.8319 H       1  LIG1        0.0661
     19 C           4.0303    2.2329   -0.5341 C.ar    1  LIG1       -0.0367
     20 C           5.4216    2.2633   -0.6142 C.ar    1  LIG1        0.0134
     21 H           3.4545    3.0729   -0.9076 H       1  LIG1        0.0636
     22 O           3.4071   -0.9707    1.0528 O.3     1  LIG1       -0.5061
     23 H           4.0381   -1.6639    1.2790 H       1  LIG1        0.2922
     24 S           6.2600    3.6464   -1.3761 S.3     1  LIG1       -0.1420
     25 H           5.1616    4.1657   -1.9467 H       1  LIG1        0.1071
     26 C           8.3641    0.1352   -0.7228 C.ar    1  LIG1        0.1252
     27 C           9.7505    0.1390   -0.6893 C.ar    1  LIG1       -0.0107
     28 C           7.6455    1.1676   -0.1059 C.ar    1  LIG1        0.0258
     29 C          10.4687    1.1537   -0.0583 C.ar    1  LIG1        0.0023
     30 H          10.2993   -0.6622   -1.1761 H       1  LIG1        0.0661
     31 C           8.3668    2.1726    0.5314 C.ar    1  LIG1       -0.0367
     32 C           9.7601    2.1931    0.5553 C.ar    1  LIG1        0.0134
     33 H           7.8119    2.9632    1.0253 H       1  LIG1        0.0636
     34 O           7.6628   -0.8586   -1.3364 O.3     1  LIG1       -0.5061
     35 H           8.2795   -1.4469   -1.7875 H       1  LIG1        0.2922
     36 S          10.6439    3.5318    1.3428 S.3     1  LIG1       -0.1420
     37 H           9.5837    4.3487    1.4449 H       1  LIG1        0.1071
     38 C          12.7072    1.0875   -1.2127 C.ar    1  LIG1        0.1246
     39 C          14.0959    1.0153   -1.1637 C.ar    1  LIG1       -0.0185
     40 C          11.9551    1.0858   -0.0283 C.ar    1  LIG1        0.0257
     41 C          14.7532    0.9450    0.0564 C.ar    1  LIG1       -0.0451
     42 H          14.6668    1.0214   -2.0887 H       1  LIG1        0.0654
     43 C          12.6356    0.9928    1.1833 C.ar    1  LIG1       -0.0373
     44 C          14.0267    0.9351    1.2422 C.ar    1  LIG1        0.0055
     45 H          12.0630    0.9598    2.1038 H       1  LIG1        0.0636
     46 H          15.8359    0.8974    0.0877 H       1  LIG1        0.0630
     47 O          12.0335    1.1562   -2.3906 O.3     1  LIG1       -0.5062
     48 H          12.6654    1.2084   -3.1174 H       1  LIG1        0.2922
     49 S          14.8741    0.7760    2.8114 S.3     1  LIG1       -0.1426
     50 H          14.7265    2.0479    3.2246 H       1  LIG1        0.1071
@<TRIPOS>BOND
     1    13    12    1
     2    48    47    1
     3    12     7    1
     4    47    38    1
     5    42    39    1
     6    25    24    1
     7     8     6    1
     8    35    34    1
     9    24    20    1
    10    34    26    1
    11    38    39   ar
    12    38    40   ar
    13    30    27    1
    14    39    41   ar
    15     7     6   ar
    16     7     4   ar
    17     6     3   ar
    18    21    19    1
    19    26    27   ar
    20    26    28   ar
    21    27    29   ar
    22    20    19   ar
    23    20    17   ar
    24    19    16   ar
    25    28    17    1
    26    28    31   ar
    27    17    15   ar
    28    29    40    1
    29    29    32   ar
    30    40    43   ar
    31    16     4    1
    32    16    14   ar
    33    41    46    1
    34    41    44   ar
    35     4     2   ar
    36     3     9    1
    37     3     1   ar
    38    15    14   ar
    39    15    18    1
    40    14    22    1
    41    31    32   ar
    42    31    33    1
    43    32    36    1
    44    22    23    1
    45    43    44   ar
    46    43    45    1
    47    44    49    1
    48     2     1   ar
    49     2     5    1
    50    36    37    1
    51     1    10    1
    52    10    11    1
    53    49    50    1
