@<TRIPOS>MOLECULE
mol_data/opt/cam/geoms/mol2/4fg4fg4fg.out
 38 40 0 0 0
SMALL
GASTEIGER

@<TRIPOS>ATOM
      1 C          -0.0953    0.5411    1.1498 C.ar    1  LIG1        0.1175
      2 C           1.2887    0.5303    1.0578 C.ar    1  LIG1       -0.0113
      3 C          -0.8424    1.2103    0.1851 C.ar    1  LIG1       -0.0191
      4 C           1.9516    1.1727    0.0102 C.ar    1  LIG1        0.0022
      5 H           1.8786    0.0071    1.8047 H       1  LIG1        0.0660
      6 C          -0.1950    1.8481   -0.8579 C.ar    1  LIG1       -0.0445
      7 C           1.1971    1.8341   -0.9671 C.ar    1  LIG1        0.0128
      8 H          -0.7886    2.3635   -1.6060 H       1  LIG1        0.0630
      9 H          -1.9233    1.2187    0.2643 H       1  LIG1        0.0654
     10 O          -0.7717   -0.0761    2.1579 O.3     1  LIG1       -0.5067
     11 H          -0.1416   -0.5122    2.7431 H       1  LIG1        0.2921
     12 S           2.0199    2.6224   -2.3455 S.3     1  LIG1       -0.1420
     13 H           0.8995    2.8671   -3.0435 H       1  LIG1        0.1071
     14 C           4.1563   -0.0472   -0.0753 C.ar    1  LIG1        0.1252
     15 C           5.5430   -0.0288   -0.0796 C.ar    1  LIG1       -0.0107
     16 C           3.4397    1.1549   -0.0184 C.ar    1  LIG1        0.0258
     17 C           6.2627    1.1645   -0.0356 C.ar    1  LIG1        0.0023
     18 H           6.0905   -0.9657   -0.1298 H       1  LIG1        0.0661
     19 C           4.1625    2.3427    0.0347 C.ar    1  LIG1       -0.0367
     20 C           5.5557    2.3713    0.0138 C.ar    1  LIG1        0.0134
     21 H           3.6080    3.2731    0.0939 H       1  LIG1        0.0636
     22 O           3.4527   -1.2133   -0.1159 O.3     1  LIG1       -0.5061
     23 H           4.0679   -1.9476   -0.2262 H       1  LIG1        0.2922
     24 S           6.4421    3.9229    0.0328 S.3     1  LIG1       -0.1420
     25 H           5.3721    4.6894   -0.2303 H       1  LIG1        0.1071
     26 C           8.4772    0.5551   -1.0711 C.ar    1  LIG1        0.1246
     27 C           9.8674    0.5152   -1.0268 C.ar    1  LIG1       -0.0185
     28 C           7.7502    1.1195   -0.0121 C.ar    1  LIG1        0.0257
     29 C          10.5510    1.0367    0.0623 C.ar    1  LIG1       -0.0451
     30 H          10.4185    0.0784   -1.8558 H       1  LIG1        0.0654
     31 C           8.4570    1.6172    1.0798 C.ar    1  LIG1       -0.0373
     32 C           9.8496    1.5948    1.1257 C.ar    1  LIG1        0.0055
     33 H           7.9041    2.0288    1.9171 H       1  LIG1        0.0636
     34 H          11.6345    1.0100    0.0865 H       1  LIG1        0.0630
     35 O           7.7783    0.0527   -2.1224 O.3     1  LIG1       -0.5062
     36 H           8.3947   -0.2489   -2.8001 H       1  LIG1        0.2922
     37 S          10.7321    2.2046    2.5593 S.3     1  LIG1       -0.1426
     38 H          10.5772    3.5195    2.3198 H       1  LIG1        0.1071
@<TRIPOS>BOND
     1    13    12    1
     2    36    35    1
     3    12     7    1
     4    35    26    1
     5    30    27    1
     6     8     6    1
     7    26    27   ar
     8    26    28   ar
     9    27    29   ar
    10     7     6   ar
    11     7     4   ar
    12     6     3   ar
    13    25    24    1
    14    23    22    1
    15    18    15    1
    16    22    14    1
    17    15    14   ar
    18    15    17   ar
    19    14    16   ar
    20    17    28    1
    21    17    20   ar
    22    16     4    1
    23    16    19   ar
    24    28    31   ar
    25     4     2   ar
    26    20    24    1
    27    20    19   ar
    28    19    21    1
    29    29    34    1
    30    29    32   ar
    31     3     9    1
    32     3     1   ar
    33     2     1   ar
    34     2     5    1
    35    31    32   ar
    36    31    33    1
    37    32    37    1
    38     1    10    1
    39    10    11    1
    40    38    37    1
