@<TRIPOS>MOLECULE
mol_data/opt/cam/geoms/mol2/4fg4fg4fg-.out
 38 40 0 0 0
SMALL
GASTEIGER

@<TRIPOS>ATOM
      1 C          -0.1295    0.0487    0.4474 C.ar    1  LIG1        0.1175
      2 C           1.2568    0.0679    0.4060 C.ar    1  LIG1       -0.0113
      3 C          -0.8445    1.1713    0.0409 C.ar    1  LIG1       -0.0191
      4 C           1.9535    1.1911   -0.0437 C.ar    1  LIG1        0.0022
      5 H           1.8221   -0.8052    0.7186 H       1  LIG1        0.0660
      6 C          -0.1631    2.2886   -0.4077 C.ar    1  LIG1       -0.0445
      7 C           1.2319    2.3151   -0.4651 C.ar    1  LIG1        0.0128
      8 H          -0.7316    3.1570   -0.7246 H       1  LIG1        0.0630
      9 H          -1.9275    1.1518    0.0792 H       1  LIG1        0.0654
     10 O          -0.8388   -1.0308    0.8795 O.3     1  LIG1       -0.5067
     11 H          -0.2279   -1.7400    1.1108 H       1  LIG1        0.2921
     12 S           2.1015    3.7476   -1.0893 S.3     1  LIG1       -0.1420
     13 H           1.0092    4.3684   -1.5622 H       1  LIG1        0.1071
     14 C           4.1618    0.2225   -0.7784 C.ar    1  LIG1        0.1252
     15 C           5.5484    0.2259   -0.7453 C.ar    1  LIG1       -0.0107
     16 C           3.4418    1.1672   -0.0367 C.ar    1  LIG1        0.0258
     17 C           6.2629    1.1466    0.0192 C.ar    1  LIG1        0.0023
     18 H           6.0998   -0.5080   -1.3263 H       1  LIG1        0.0661
     19 C           4.1592    2.0759    0.7356 C.ar    1  LIG1       -0.0367
     20 C           5.5519    2.0820    0.7795 C.ar    1  LIG1        0.0134
     21 H           3.5996    2.7939    1.3258 H       1  LIG1        0.0636
     22 O           3.4618   -0.6796   -1.5217 O.3     1  LIG1       -0.5061
     23 H           4.0821   -1.2282   -2.0159 H       1  LIG1        0.2922
     24 S           6.4401    3.2344    1.8158 S.3     1  LIG1       -0.1420
     25 H           5.3480    3.7987    2.3546 H       1  LIG1        0.1071
     26 C           8.4679    0.0051    0.4456 C.ar    1  LIG1        0.1246
     27 C           9.8585   -0.0046    0.3988 C.ar    1  LIG1       -0.0185
     28 C           7.7513    1.1215   -0.0099 C.ar    1  LIG1        0.0257
     29 C          10.5519    1.0924   -0.0926 C.ar    1  LIG1       -0.0451
     30 H          10.4022   -0.8746    0.7580 H       1  LIG1        0.0654
     31 C           8.4675    2.2017   -0.5198 C.ar    1  LIG1       -0.0373
     32 C           9.8605    2.2069   -0.5553 C.ar    1  LIG1        0.0055
     33 H           7.9209    3.0573   -0.9004 H       1  LIG1        0.0636
     34 H          11.6357    1.0829   -0.1162 H       1  LIG1        0.0630
     35 O           7.7586   -1.0521    0.9227 O.3     1  LIG1       -0.5062
     36 H           8.3702   -1.7241    1.2461 H       1  LIG1        0.2922
     37 S          10.7592    3.5902   -1.2509 S.3     1  LIG1       -0.1426
     38 H          10.5486    4.4617   -0.2479 H       1  LIG1        0.1071
@<TRIPOS>BOND
     1    23    22    1
     2    13    12    1
     3    22    14    1
     4    18    15    1
     5    37    32    1
     6    37    38    1
     7    12     7    1
     8    33    31    1
     9    14    15   ar
    10    14    16   ar
    11    15    17   ar
    12     8     6    1
    13    32    31   ar
    14    32    29   ar
    15    31    28   ar
    16     7     6   ar
    17     7     4   ar
    18     6     3   ar
    19    34    29    1
    20    29    27   ar
    21     4    16    1
    22     4     2   ar
    23    16    19   ar
    24    28    17    1
    25    28    26   ar
    26    17    20   ar
    27     3     9    1
    28     3     1   ar
    29    27    26   ar
    30    27    30    1
    31     2     1   ar
    32     2     5    1
    33    26    35    1
    34     1    10    1
    35    19    20   ar
    36    19    21    1
    37    20    24    1
    38    10    11    1
    39    35    36    1
    40    24    25    1
