@<TRIPOS>MOLECULE
mol_data/opt/cam/geoms/mol2/4fg4fg-4fg4fg.out
 50 53 0 0 0
SMALL
GASTEIGER

@<TRIPOS>ATOM
      1 C          -0.2317    0.1106   -0.6038 C.ar    1  LIG1        0.1175
      2 C           1.1547    0.1327   -0.5709 C.ar    1  LIG1       -0.0113
      3 C          -0.9491    1.1600   -0.0376 C.ar    1  LIG1       -0.0191
      4 C           1.8497    1.1856    0.0275 C.ar    1  LIG1        0.0022
      5 H           1.7220   -0.6840   -1.0075 H       1  LIG1        0.0660
      6 C          -0.2698    2.2071    0.5591 C.ar    1  LIG1       -0.0445
      7 C           1.1255    2.2340    0.6091 C.ar    1  LIG1        0.0128
      8 H          -0.8401    3.0183    0.9999 H       1  LIG1        0.0630
      9 H          -2.0323    1.1393   -0.0702 H       1  LIG1        0.0654
     10 O          -0.9390   -0.9017   -1.1784 O.3     1  LIG1       -0.5067
     11 H          -0.3264   -1.5662   -1.5143 H       1  LIG1        0.2921
     12 S           1.9919    3.5691    1.4247 S.3     1  LIG1       -0.1420
     13 H           0.8987    4.1119    1.9836 H       1  LIG1        0.1071
     14 C           4.0684    0.1307    0.5921 C.ar    1  LIG1        0.1252
     15 C           5.4543    0.1462    0.5485 C.ar    1  LIG1       -0.0107
     16 C           3.3378    1.1713    0.0055 C.ar    1  LIG1        0.0258
     17 C           6.1598    1.1731   -0.0771 C.ar    1  LIG1        0.0023
     18 H           6.0137   -0.6640    1.0073 H       1  LIG1        0.0661
     19 C           4.0455    2.1875   -0.6297 C.ar    1  LIG1       -0.0367
     20 C           5.4378    2.2071   -0.6856 C.ar    1  LIG1        0.0134
     21 H           3.4782    2.9819   -1.1028 H       1  LIG1        0.0636
     22 O           3.3794   -0.8760    1.1994 O.3     1  LIG1       -0.5061
     23 H           4.0076   -1.4926    1.5932 H       1  LIG1        0.2922
     24 S           6.3056    3.5062   -1.5529 S.3     1  LIG1       -0.1420
     25 H           5.2028    4.1097   -2.0231 H       1  LIG1        0.1071
     26 C           8.3661    0.0812   -0.6171 C.ar    1  LIG1        0.1252
     27 C           9.7525    0.0836   -0.5762 C.ar    1  LIG1       -0.0107
     28 C           7.6475    1.1461   -0.0598 C.ar    1  LIG1        0.0258
     29 C          10.4678    1.1221    0.0172 C.ar    1  LIG1        0.0023
     30 H          10.3028   -0.7449   -1.0132 H       1  LIG1        0.0661
     31 C           8.3657    2.1749    0.5429 C.ar    1  LIG1       -0.0367
     32 C           9.7580    2.1816    0.5941 C.ar    1  LIG1        0.0134
     33 H           7.8070    2.9892    0.9916 H       1  LIG1        0.0636
     34 O           7.6653   -0.9364   -1.1925 O.3     1  LIG1       -0.5061
     35 H           8.2860   -1.5662   -1.5771 H       1  LIG1        0.2922
     36 S          10.6472    3.4955    1.4144 S.3     1  LIG1       -0.1420
     37 H           9.5557    4.1510    1.8391 H       1  LIG1        0.1071
     38 C          12.6615    0.0630    0.6586 C.ar    1  LIG1        0.1246
     39 C          14.0523    0.0377    0.6267 C.ar    1  LIG1       -0.0185
     40 C          11.9562    1.0842    0.0049 C.ar    1  LIG1        0.0257
     41 C          14.7570    1.0257   -0.0461 C.ar    1  LIG1       -0.0451
     42 H          14.5872   -0.7571    1.1403 H       1  LIG1        0.0654
     43 C          12.6837    2.0522   -0.6830 C.ar    1  LIG1       -0.0373
     44 C          14.0770    2.0434   -0.7065 C.ar    1  LIG1        0.0055
     45 H          12.1459    2.8294   -1.2145 H       1  LIG1        0.0636
     46 H          15.8409    1.0065   -0.0578 H       1  LIG1        0.0630
     47 O          11.9413   -0.8885    1.3101 O.3     1  LIG1       -0.5062
     48 H          12.5458   -1.4942    1.7550 H       1  LIG1        0.2922
     49 S          14.9909    3.2754   -1.6297 S.3     1  LIG1       -0.1426
     50 H          14.7754    4.3141   -0.8024 H       1  LIG1        0.1071
@<TRIPOS>BOND
     1    25    24    1
     2    49    50    1
     3    49    44    1
     4    35    34    1
     5    24    20    1
     6    11    10    1
     7    45    43    1
     8    34    26    1
     9    10     1    1
    10    21    19    1
    11    30    27    1
    12     5     2    1
    13    44    43   ar
    14    44    41   ar
    15    20    19   ar
    16    20    17   ar
    17    43    40   ar
    18    19    16   ar
    19    26    27   ar
    20    26    28   ar
    21     1     2   ar
    22     1     3   ar
    23    27    29   ar
    24     2     4   ar
    25    17    28    1
    26    17    15   ar
    27     9     3    1
    28    28    31   ar
    29    46    41    1
    30    41    39   ar
    31     3     6   ar
    32    40    29    1
    33    40    38   ar
    34    16     4    1
    35    16    14   ar
    36    29    32   ar
    37     4     7   ar
    38    31    32   ar
    39    31    33    1
    40    15    14   ar
    41    15    18    1
    42     6     7   ar
    43     6     8    1
    44    14    22    1
    45    32    36    1
    46     7    12    1
    47    39    38   ar
    48    39    42    1
    49    38    47    1
    50    22    23    1
    51    47    48    1
    52    36    37    1
    53    12    13    1
