@<TRIPOS>MOLECULE
mol_data/opt/cam/geoms/mol2/4fg4fg4fg4fg-.out
 50 53 0 0 0
SMALL
GASTEIGER

@<TRIPOS>ATOM
      1 C          -0.1825    0.5500    1.1901 C.ar    1  LIG1        0.1175
      2 C           1.2004    0.5481    1.0839 C.ar    1  LIG1       -0.0113
      3 C          -0.9446    1.2014    0.2250 C.ar    1  LIG1       -0.0191
      4 C           1.8482    1.1814    0.0213 C.ar    1  LIG1        0.0022
      5 H           1.8017    0.0388    1.8313 H       1  LIG1        0.0660
      6 C          -0.3125    1.8296   -0.8331 C.ar    1  LIG1       -0.0445
      7 C           1.0785    1.8238   -0.9571 C.ar    1  LIG1        0.0128
      8 H          -0.9175    2.3306   -1.5818 H       1  LIG1        0.0630
      9 H          -2.0246    1.2033    0.3154 H       1  LIG1        0.0654
     10 O          -0.8436   -0.0591    2.2134 O.3     1  LIG1       -0.5067
     11 H          -0.2038   -0.4846    2.7959 H       1  LIG1        0.2921
     12 S           1.8794    2.5970   -2.3569 S.3     1  LIG1       -0.1420
     13 H           0.7490    2.8225   -3.0451 H       1  LIG1        0.1071
     14 C           4.0630   -0.0221   -0.0564 C.ar    1  LIG1        0.1252
     15 C           5.4490    0.0082   -0.0762 C.ar    1  LIG1       -0.0107
     16 C           3.3359    1.1745   -0.0220 C.ar    1  LIG1        0.0258
     17 C           6.1605    1.2078   -0.0716 C.ar    1  LIG1        0.0023
     18 H           6.0040   -0.9247   -0.1109 H       1  LIG1        0.0661
     19 C           4.0497    2.3687   -0.0071 C.ar    1  LIG1       -0.0367
     20 C           5.4425    2.4098   -0.0460 C.ar    1  LIG1        0.0134
     21 H           3.4884    3.2959    0.0349 H       1  LIG1        0.0636
     22 O           3.3706   -1.1960   -0.0600 O.3     1  LIG1       -0.5061
     23 H           3.9921   -1.9254   -0.1675 H       1  LIG1        0.2922
     24 S           6.3063    3.9747   -0.0832 S.3     1  LIG1       -0.1420
     25 H           5.2267    4.7115   -0.3888 H       1  LIG1        0.1071
     26 C           8.3682    0.5187   -1.0735 C.ar    1  LIG1        0.1252
     27 C           9.7546    0.5019   -1.0345 C.ar    1  LIG1       -0.0107
     28 C           7.6474    1.1693   -0.0641 C.ar    1  LIG1        0.0258
     29 C          10.4686    1.1121   -0.0050 C.ar    1  LIG1        0.0023
     30 H          10.3061   -0.0013   -1.8237 H       1  LIG1        0.0661
     31 C           8.3646    1.7636    0.9702 C.ar    1  LIG1       -0.0367
     32 C           9.7569    1.7462    1.0198 C.ar    1  LIG1        0.0134
     33 H           7.8058    2.2459    1.7653 H       1  LIG1        0.0636
     34 O           7.6700   -0.0821   -2.0774 O.3     1  LIG1       -0.5061
     35 H           8.2905   -0.4292   -2.7287 H       1  LIG1        0.2922
     36 S          10.6439    2.4825    2.3841 S.3     1  LIG1       -0.1420
     37 H           9.5515    2.8622    3.0653 H       1  LIG1        0.1071
     38 C          12.6661   -0.1194    0.0250 C.ar    1  LIG1        0.1246
     39 C          14.0569   -0.1213   -0.0177 C.ar    1  LIG1       -0.0185
     40 C          11.9570    1.0893   -0.0348 C.ar    1  LIG1        0.0257
     41 C          14.7578    1.0725   -0.1134 C.ar    1  LIG1       -0.0451
     42 H          14.5948   -1.0646    0.0326 H       1  LIG1        0.0654
     43 C          12.6808    2.2734   -0.1527 C.ar    1  LIG1       -0.0373
     44 C          14.0739    2.2817   -0.1802 C.ar    1  LIG1        0.0055
     45 H          12.1400    3.2102   -0.2275 H       1  LIG1        0.0636
     46 H          15.8417    1.0649   -0.1358 H       1  LIG1        0.0630
     47 O          11.9496   -1.2710    0.1196 O.3     1  LIG1       -0.5062
     48 H          12.5564   -2.0162    0.2010 H       1  LIG1        0.2922
     49 S          14.9821    3.8126   -0.3722 S.3     1  LIG1       -0.1426
     50 H          14.7792    4.2968    0.8665 H       1  LIG1        0.1071
@<TRIPOS>BOND
     1    13    12    1
     2    35    34    1
     3    12     7    1
     4    34    26    1
     5    30    27    1
     6     8     6    1
     7    26    27   ar
     8    26    28   ar
     9    27    29   ar
    10     7     6   ar
    11     7     4   ar
    12     6     3   ar
    13    25    24    1
    14    49    44    1
    15    49    50    1
    16    45    43    1
    17    44    43   ar
    18    44    41   ar
    19    23    22    1
    20    43    40   ar
    21    46    41    1
    22    41    39   ar
    23    18    15    1
    24    24    20    1
    25    15    17   ar
    26    15    14   ar
    27    17    28    1
    28    17    20   ar
    29    28    31   ar
    30    22    14    1
    31    14    16   ar
    32    20    19   ar
    33    40    29    1
    34    40    38   ar
    35    16    19   ar
    36    16     4    1
    37    39    38   ar
    38    39    42    1
    39    19    21    1
    40    29    32   ar
    41     4     2   ar
    42    38    47    1
    43    47    48    1
    44     3     9    1
    45     3     1   ar
    46    31    32   ar
    47    31    33    1
    48    32    36    1
    49     2     1   ar
    50     2     5    1
    51     1    10    1
    52    10    11    1
    53    36    37    1
