@<TRIPOS>MOLECULE
mol_data/opt/cam/geoms/mol2/4fg4fg-4fg4fg-.out
 50 53 0 0 0
SMALL
GASTEIGER

@<TRIPOS>ATOM
      1 C          -0.2299    0.0996   -0.6053 C.ar    1  LIG1        0.1175
      2 C           1.1564    0.1230   -0.5703 C.ar    1  LIG1       -0.0113
      3 C          -0.9490    1.1538   -0.0503 C.ar    1  LIG1       -0.0191
      4 C           1.8496    1.1821    0.0191 C.ar    1  LIG1        0.0022
      5 H           1.7251   -0.6975   -0.9981 H       1  LIG1        0.0660
      6 C          -0.2714    2.2070    0.5375 C.ar    1  LIG1       -0.0445
      7 C           1.1238    2.2354    0.5895 C.ar    1  LIG1        0.0128
      8 H          -0.8430    3.0220    0.9696 H       1  LIG1        0.0630
      9 H          -2.0321    1.1320   -0.0844 H       1  LIG1        0.0654
     10 O          -0.9355   -0.9187   -1.1712 O.3     1  LIG1       -0.5067
     11 H          -0.3219   -1.5860   -1.4998 H       1  LIG1        0.2921
     12 S           1.9879    3.5789    1.3937 S.3     1  LIG1       -0.1420
     13 H           0.8933    4.1263    1.9456 H       1  LIG1        0.1071
     14 C           4.0682    0.1343    0.5974 C.ar    1  LIG1        0.1252
     15 C           5.4542    0.1504    0.5560 C.ar    1  LIG1       -0.0107
     16 C           3.3378    1.1687   -0.0003 C.ar    1  LIG1        0.0258
     17 C           6.1600    1.1718   -0.0783 C.ar    1  LIG1        0.0023
     18 H           6.0134   -0.6549    1.0234 H       1  LIG1        0.0661
     19 C           4.0458    2.1792   -0.6440 C.ar    1  LIG1       -0.0367
     20 C           5.4382    2.1994   -0.6979 C.ar    1  LIG1        0.0134
     21 H           3.4787    2.9687   -1.1257 H       1  LIG1        0.0636
     22 O           3.3789   -0.8671    1.2132 O.3     1  LIG1       -0.5061
     23 H           4.0070   -1.4794    1.6139 H       1  LIG1        0.2922
     24 S           6.3065    3.4907   -1.5762 S.3     1  LIG1       -0.1420
     25 H           5.2040    4.0889   -2.0539 H       1  LIG1        0.1071
     26 C           8.3679    0.0764   -0.6043 C.ar    1  LIG1        0.1252
     27 C           9.7542    0.0802   -0.5611 C.ar    1  LIG1       -0.0107
     28 C           7.6476    1.1460   -0.0583 C.ar    1  LIG1        0.0258
     29 C          10.4678    1.1248    0.0234 C.ar    1  LIG1        0.0023
     30 H          10.3059   -0.7520   -0.9893 H       1  LIG1        0.0661
     31 C           8.3641    2.1810    0.5357 C.ar    1  LIG1       -0.0367
     32 C           9.7563    2.1893    0.5890 C.ar    1  LIG1        0.0134
     33 H           7.8041    2.9992    0.9756 H       1  LIG1        0.0636
     34 O           7.6688   -0.9472   -1.1711 O.3     1  LIG1       -0.5061
     35 H           8.2906   -1.5802   -1.5486 H       1  LIG1        0.2922
     36 S          10.6432    3.5116    1.3982 S.3     1  LIG1       -0.1420
     37 H           9.5506    4.1704    1.8148 H       1  LIG1        0.1071
     38 C          12.6612    0.0736    0.6784 C.ar    1  LIG1        0.1246
     39 C          14.0521    0.0490    0.6491 C.ar    1  LIG1       -0.0185
     40 C          11.9562    1.0879    0.0139 C.ar    1  LIG1        0.0257
     41 C          14.7572    1.0310   -0.0320 C.ar    1  LIG1       -0.0451
     42 H          14.5867   -0.7405    1.1711 H       1  LIG1        0.0654
     43 C          12.6842    2.0499   -0.6821 C.ar    1  LIG1       -0.0373
     44 C          14.0775    2.0419   -0.7032 C.ar    1  LIG1        0.0055
     45 H          12.1466    2.8216   -1.2218 H       1  LIG1        0.0636
     46 H          15.8411    1.0126   -0.0417 H       1  LIG1        0.0630
     47 O          11.9407   -0.8722    1.3379 O.3     1  LIG1       -0.5062
     48 H          12.5448   -1.4732    1.7895 H       1  LIG1        0.2922
     49 S          14.9920    3.2656   -1.6367 S.3     1  LIG1       -0.1426
     50 H          14.7744    4.3120   -0.8196 H       1  LIG1        0.1071
@<TRIPOS>BOND
     1    25    24    1
     2    49    50    1
     3    49    44    1
     4    24    20    1
     5    35    34    1
     6    11    10    1
     7    45    43    1
     8    10     1    1
     9    34    26    1
    10    21    19    1
    11     5     2    1
    12    30    27    1
    13    44    43   ar
    14    44    41   ar
    15    20    19   ar
    16    20    17   ar
    17    43    40   ar
    18    19    16   ar
    19     1     2   ar
    20     1     3   ar
    21    26    27   ar
    22    26    28   ar
    23     2     4   ar
    24    27    29   ar
    25     9     3    1
    26    17    28    1
    27    17    15   ar
    28    28    31   ar
    29     3     6   ar
    30    46    41    1
    31    41    39   ar
    32    16     4    1
    33    16    14   ar
    34    40    29    1
    35    40    38   ar
    36     4     7   ar
    37    29    32   ar
    38    31    32   ar
    39    31    33    1
    40     6     7   ar
    41     6     8    1
    42    15    14   ar
    43    15    18    1
    44    32    36    1
    45     7    12    1
    46    14    22    1
    47    39    38   ar
    48    39    42    1
    49    38    47    1
    50    22    23    1
    51    47    48    1
    52    12    13    1
    53    36    37    1
