@<TRIPOS>MOLECULE
mol_data/opt/cam/geoms/mol2/4fg4fg-.out
 26 27 0 0 0
SMALL
GASTEIGER

@<TRIPOS>ATOM
      1 C          -0.0286    0.1060   -0.6479 C.ar    1  LIG1        0.1175
      2 C           1.3579    0.1216   -0.6009 C.ar    1  LIG1       -0.0113
      3 C          -0.7459    1.1685   -0.1063 C.ar    1  LIG1       -0.0191
      4 C           2.0502    1.1820   -0.0142 C.ar    1  LIG1        0.0022
      5 H           1.9255   -0.7042   -1.0204 H       1  LIG1        0.0660
      6 C          -0.0681    2.2232    0.4789 C.ar    1  LIG1       -0.0445
      7 C           1.3266    2.2442    0.5404 C.ar    1  LIG1        0.0128
      8 H          -0.6390    3.0446    0.8997 H       1  LIG1        0.0630
      9 H          -1.8288    1.1522   -0.1497 H       1  LIG1        0.0654
     10 O          -0.7360   -0.9117   -1.2121 O.3     1  LIG1       -0.5067
     11 H          -0.1247   -1.5822   -1.5381 H       1  LIG1        0.2921
     12 S           2.2004    3.5876    1.3322 S.3     1  LIG1       -0.1420
     13 H           1.1065    4.1774    1.8397 H       1  LIG1        0.1071
     14 C           4.2565    0.1758    0.6706 C.ar    1  LIG1        0.1246
     15 C           5.6478    0.1703    0.6464 C.ar    1  LIG1       -0.0185
     16 C           3.5396    1.1663   -0.0169 C.ar    1  LIG1        0.0257
     17 C           6.3418    1.1476   -0.0529 C.ar    1  LIG1       -0.0451
     18 H           6.1915   -0.6014    1.1853 H       1  LIG1        0.0654
     19 C           4.2569    2.1249   -0.7279 C.ar    1  LIG1       -0.0373
     20 C           5.6504    2.1363   -0.7449 C.ar    1  LIG1        0.0055
     21 H           3.7112    2.8789   -1.2845 H       1  LIG1        0.0636
     22 H           7.4258    1.1425   -0.0612 H       1  LIG1        0.0630
     23 O           3.5466   -0.7658    1.3459 O.3     1  LIG1       -0.5062
     24 H           4.1562   -1.3517    1.8098 H       1  LIG1        0.2922
     25 S           6.5479    3.3564   -1.6997 S.3     1  LIG1       -0.1426
     26 H           6.3718    4.3998   -0.8685 H       1  LIG1        0.1071
@<TRIPOS>BOND
     1    25    26    1
     2    25    20    1
     3    11    10    1
     4    21    19    1
     5    10     1    1
     6     5     2    1
     7    20    19   ar
     8    20    17   ar
     9    19    16   ar
    10     1     2   ar
    11     1     3   ar
    12     2     4   ar
    13     9     3    1
    14     3     6   ar
    15    22    17    1
    16    17    15   ar
    17    16     4    1
    18    16    14   ar
    19     4     7   ar
    20     6     7   ar
    21     6     8    1
    22     7    12    1
    23    15    14   ar
    24    15    18    1
    25    14    23    1
    26    12    13    1
    27    23    24    1
