@<TRIPOS>MOLECULE
mol_data/opt/cam/geoms/mol2/4fg4fg4fg-4fg.out
 50 53 0 0 0
SMALL
GASTEIGER

@<TRIPOS>ATOM
      1 C          -0.2323    0.1124    0.6096 C.ar    1  LIG1        0.1175
      2 C           1.1542    0.1346    0.5783 C.ar    1  LIG1       -0.0113
      3 C          -0.9492    1.1586    0.0368 C.ar    1  LIG1       -0.0191
      4 C           1.8497    1.1844   -0.0248 C.ar    1  LIG1        0.0022
      5 H           1.7211   -0.6797    1.0200 H       1  LIG1        0.0660
      6 C          -0.2693    2.2026   -0.5646 C.ar    1  LIG1       -0.0445
      7 C           1.1261    2.2295   -0.6130 C.ar    1  LIG1        0.0128
      8 H          -0.8391    3.0114   -1.0105 H       1  LIG1        0.0630
      9 H          -2.0323    1.1379    0.0681 H       1  LIG1        0.0654
     10 O          -0.9401   -0.8969    1.1886 O.3     1  LIG1       -0.5067
     11 H          -0.3278   -1.5595    1.5289 H       1  LIG1        0.2921
     12 S           1.9933    3.5604   -1.4346 S.3     1  LIG1       -0.1420
     13 H           0.9006    4.1000   -1.9979 H       1  LIG1        0.1071
     14 C           4.0694    0.1270   -0.5810 C.ar    1  LIG1        0.1252
     15 C           5.4552    0.1430   -0.5358 C.ar    1  LIG1       -0.0107
     16 C           3.3378    1.1706   -0.0009 C.ar    1  LIG1        0.0258
     17 C           6.1597    1.1734    0.0853 C.ar    1  LIG1        0.0023
     18 H           6.0153   -0.6695   -0.9895 H       1  LIG1        0.0661
     19 C           4.0445    2.1902    0.6297 C.ar    1  LIG1       -0.0367
     20 C           5.4368    2.2105    0.6873 C.ar    1  LIG1        0.0134
     21 H           3.4764    2.9871    1.0979 H       1  LIG1        0.0636
     22 O           3.3813   -0.8831   -1.1838 O.3     1  LIG1       -0.5061
     23 H           4.0102   -1.5016   -1.5735 H       1  LIG1        0.2922
     24 S           6.3032    3.5143    1.5488 S.3     1  LIG1       -0.1420
     25 H           5.1997    4.1201    2.0143 H       1  LIG1        0.1071
     26 C           8.3655    0.0848    0.6339 C.ar    1  LIG1        0.1252
     27 C           9.7520    0.0873    0.5947 C.ar    1  LIG1       -0.0107
     28 C           7.6474    1.1465    0.0700 C.ar    1  LIG1        0.0258
     29 C          10.4678    1.1227   -0.0032 C.ar    1  LIG1        0.0023
     30 H          10.3019   -0.7388    1.0369 H       1  LIG1        0.0661
     31 C           8.3662    2.1722   -0.5373 C.ar    1  LIG1       -0.0367
     32 C           9.7585    2.1789   -0.5867 C.ar    1  LIG1        0.0134
     33 H           7.8079    2.9840   -0.9910 H       1  LIG1        0.0636
     34 O           7.6642   -0.9298    1.2139 O.3     1  LIG1       -0.5061
     35 H           8.2845   -1.5575    1.6027 H       1  LIG1        0.2922
     36 S          10.6485    3.4886   -1.4129 S.3     1  LIG1       -0.1420
     37 H           9.5575    4.1417   -1.8425 H       1  LIG1        0.1071
     38 C          12.6625    0.0606   -0.6361 C.ar    1  LIG1        0.1246
     39 C          14.0533    0.0358   -0.6024 C.ar    1  LIG1       -0.0185
     40 C          11.9562    1.0851    0.0112 C.ar    1  LIG1        0.0257
     41 C          14.7570    1.0275    0.0661 C.ar    1  LIG1       -0.0451
     42 H          14.5890   -0.7617   -1.1110 H       1  LIG1        0.0654
     43 C          12.6827    2.0570    0.6948 C.ar    1  LIG1       -0.0373
     44 C          14.0759    2.0486    0.7201 C.ar    1  LIG1        0.0055
     45 H          12.1440    2.8369    1.2214 H       1  LIG1        0.0636
     46 H          15.8409    1.0086    0.0792 H       1  LIG1        0.0630
     47 O          11.9434   -0.8945   -1.2835 O.3     1  LIG1       -0.5062
     48 H          12.5485   -1.5025   -1.7244 H       1  LIG1        0.2922
     49 S          14.9884    3.2857    1.6379 S.3     1  LIG1       -0.1426
     50 H          14.7738    4.3199    0.8047 H       1  LIG1        0.1071
@<TRIPOS>BOND
     1    13    12    1
     2    37    36    1
     3    48    47    1
     4    23    22    1
     5    12     7    1
     6    36    32    1
     7    47    38    1
     8    22    14    1
     9    42    39    1
    10     8     6    1
    11    33    31    1
    12    18    15    1
    13    38    39   ar
    14    38    40   ar
    15     7     6   ar
    16     7     4   ar
    17    39    41   ar
    18    32    31   ar
    19    32    29   ar
    20    14    15   ar
    21    14    16   ar
    22     6     3   ar
    23    31    28   ar
    24    15    17   ar
    25     4    16    1
    26     4     2   ar
    27    29    40    1
    28    29    27   ar
    29    16    19   ar
    30    40    43   ar
    31     3     9    1
    32     3     1   ar
    33    41    46    1
    34    41    44   ar
    35    28    17    1
    36    28    26   ar
    37    17    20   ar
    38     2     1   ar
    39     2     5    1
    40    27    26   ar
    41    27    30    1
    42     1    10    1
    43    19    20   ar
    44    19    21    1
    45    26    34    1
    46    20    24    1
    47    43    44   ar
    48    43    45    1
    49    44    49    1
    50    50    49    1
    51    10    11    1
    52    34    35    1
    53    24    25    1
