@<TRIPOS>MOLECULE
mol_data/opt/cam/geoms/mol2/4fg4fg.out
 26 27 0 0 0
SMALL
GASTEIGER

@<TRIPOS>ATOM
      1 C          -0.0318    0.1125    0.6456 C.ar    1  LIG1        0.1175
      2 C           1.3550    0.1276    0.6051 C.ar    1  LIG1       -0.0113
      3 C          -0.7464    1.1697    0.0903 C.ar    1  LIG1       -0.0191
      4 C           2.0502    1.1821    0.0113 C.ar    1  LIG1        0.0022
      5 H           1.9205   -0.6941    1.0353 H       1  LIG1        0.0660
      6 C          -0.0658    2.2185   -0.5019 C.ar    1  LIG1       -0.0445
      7 C           1.3293    2.2389   -0.5570 C.ar    1  LIG1        0.0128
      8 H          -0.6345    3.0358   -0.9335 H       1  LIG1        0.0630
      9 H          -1.8294    1.1539    0.1287 H       1  LIG1        0.0654
     10 O          -0.7419   -0.8996    1.2164 O.3     1  LIG1       -0.5067
     11 H          -0.1322   -1.5669    1.5519 H       1  LIG1        0.2921
     12 S           2.2069    3.5744   -1.3578 S.3     1  LIG1       -0.1420
     13 H           1.1155    4.1593   -1.8762 H       1  LIG1        0.1071
     14 C           4.2596    0.1693   -0.6531 C.ar    1  LIG1        0.1246
     15 C           5.6508    0.1639   -0.6222 C.ar    1  LIG1       -0.0185
     16 C           3.5395    1.1664    0.0212 C.ar    1  LIG1        0.0257
     17 C           6.3415    1.1480    0.0708 C.ar    1  LIG1       -0.0451
     18 H           6.1970   -0.6131   -1.1510 H       1  LIG1        0.0654
     19 C           4.2535    2.1320    0.7263 C.ar    1  LIG1       -0.0373
     20 C           5.6469    2.1434    0.7497 C.ar    1  LIG1        0.0055
     21 H           3.7053    2.8914    1.2729 H       1  LIG1        0.0636
     22 H           7.4255    1.1429    0.0842 H       1  LIG1        0.0630
     23 O           3.5528   -0.7789   -1.3225 O.3     1  LIG1       -0.5062
     24 H           4.1646   -1.3693   -1.7778 H       1  LIG1        0.2922
     25 S           6.5400    3.3728    1.6968 S.3     1  LIG1       -0.1426
     26 H           6.3679    4.4080    0.8547 H       1  LIG1        0.1071
@<TRIPOS>BOND
     1    13    12    1
     2    24    23    1
     3    12     7    1
     4    23    14    1
     5    18    15    1
     6     8     6    1
     7    14    15   ar
     8    14    16   ar
     9    15    17   ar
    10     7     6   ar
    11     7     4   ar
    12     6     3   ar
    13     4    16    1
    14     4     2   ar
    15    16    19   ar
    16    17    22    1
    17    17    20   ar
    18     3     9    1
    19     3     1   ar
    20     2     1   ar
    21     2     5    1
    22     1    10    1
    23    19    20   ar
    24    19    21    1
    25    20    25    1
    26    26    25    1
    27    10    11    1
