@<TRIPOS>MOLECULE
mol_data/opt/cam/geoms/mol2/4fh4ie-13lh-6df-4ha13ae-12he6fd-.out
 99 106 0 0 0
SMALL
GASTEIGER

@<TRIPOS>ATOM
      1 C          -0.6265    0.1103    0.5411 C.ar    1  LIG1        0.1176
      2 C           0.7523    0.2282    0.6315 C.ar    1  LIG1       -0.0107
      3 C          -1.2615    0.4644   -0.6453 C.ar    1  LIG1       -0.0184
      4 C           1.5168    0.6986   -0.4398 C.ar    1  LIG1        0.0065
      5 H           1.2580   -0.0360    1.5573 H       1  LIG1        0.0661
      6 C          -0.5160    0.9342   -1.7116 C.ar    1  LIG1       -0.0370
      7 C           0.8755    1.0644   -1.6343 C.ar    1  LIG1        0.0326
      8 H          -1.0200    1.2164   -2.6317 H       1  LIG1        0.0637
      9 H          -2.3393    0.3693   -0.7146 H       1  LIG1        0.0655
     10 O          -1.4050   -0.3417    1.5709 O.3     1  LIG1       -0.5067
     11 H          -0.8445   -0.5223    2.3339 H       1  LIG1        0.2921
     12 N           1.5884    1.5954   -2.7128 N.pl3   1  LIG1       -0.3575
     13 H           2.5691    1.3563   -2.7362 H       1  LIG1        0.1423
     14 H           1.1451    1.4686   -3.6107 H       1  LIG1        0.1423
     15 C           3.8272   -0.3037   -0.1308 C.ar    1  LIG1       -0.0420
     16 C           5.1958   -0.1106    0.0101 C.ar    1  LIG1       -0.0478
     17 C           2.9963    0.8197   -0.2978 C.ar    1  LIG1       -0.0119
     18 C           5.7996    1.1535   -0.0021 C.ar    1  LIG1        0.0176
     19 H           5.8369   -0.9772    0.1186 H       1  LIG1        0.0627
     20 C           3.5837    2.0792   -0.3350 C.ar    1  LIG1       -0.0377
     21 C           4.9613    2.2733   -0.1888 C.ar    1  LIG1        0.0345
     22 H           2.9546    2.9499   -0.4824 H       1  LIG1        0.0636
     23 C           3.2734   -1.7052   -0.1268 C.3     1  LIG1       -0.0391
     24 H           4.0708   -2.4353   -0.2790 H       1  LIG1        0.0278
     25 H           2.5232   -1.8397   -0.9094 H       1  LIG1        0.0278
     26 H           2.7821   -1.9435    0.8214 H       1  LIG1        0.0278
     27 C           5.4391    3.6220   -0.2477 C.1     1  LIG1       -0.0690
     28 C           5.7910    4.7716   -0.3273 C.1     1  LIG1       -0.1139
     29 H           6.1202    5.7803   -0.4292 H       1  LIG1        0.1232
     30 C           7.2526    1.2273    0.1719 C.ar    1  LIG1        0.0922
     31 C           8.1302    0.2679    0.6711 C.ar    1  LIG1        0.1664
     32 C           9.4392    0.7789    0.6274 C.ar    1  LIG1        0.0932
     33 C           9.3595    2.0657    0.0974 C.ar    1  LIG1        0.0744
     34 N           8.0241    2.2973   -0.1763 N.ar    1  LIG1       -0.3496
     35 H           7.6431    3.1501   -0.5609 H       1  LIG1        0.1661
     36 O           7.8523   -0.9952    1.1313 O.3     1  LIG1       -0.4911
     37 C           7.4935   -1.0305    2.5105 C.3     1  LIG1        0.0790
     38 H           7.3711   -2.0814    2.7777 H       1  LIG1        0.0660
     39 H           8.2778   -0.5829    3.1299 H       1  LIG1        0.0660
     40 H           6.5520   -0.4988    2.6835 H       1  LIG1        0.0660
     41 N          10.5530    0.0608    1.0748 N.pl3   1  LIG1       -0.3535
     42 H          10.3144   -0.9210    1.1622 H       1  LIG1        0.1425
     43 H          11.3665    0.1654    0.4811 H       1  LIG1        0.1425
     44 C          10.3891    4.1366   -0.9765 C.ar    1  LIG1        0.1501
     45 C          10.4287    3.0281   -0.0995 C.ar    1  LIG1        0.0396
     46 C          11.6215    2.8927    0.6173 C.ar    1  LIG1       -0.0061
     47 C          12.6791    3.7778    0.4576 C.ar    1  LIG1        0.1435
     48 C          12.5295    4.8572   -0.4514 C.ar    1  LIG1        0.1155
     49 N          11.3911    5.0008   -1.1228 N.ar    1  LIG1       -0.2320
     50 H          11.7334    2.1101    1.3576 H       1  LIG1        0.0662
     51 N           8.3147    4.6800   -2.4422 N.1     1  LIG1       -0.1893
     52 C           9.2405    4.4315   -1.7930 C.1     1  LIG1        0.1198
     53 O          13.7613    3.5844    1.2251 O.3     1  LIG1       -0.5046
     54 H          14.5646    3.9212    0.7540 H       1  LIG1        0.2922
     55 C          14.9050    5.7840   -0.7051 C.ar    1  LIG1        0.0346
     56 C          15.7539    6.8792   -0.8097 C.ar    1  LIG1       -0.0313
     57 C          13.5151    5.9604   -0.6269 C.ar    1  LIG1        0.0246
     58 C          15.2539    8.1787   -0.8775 C.ar    1  LIG1        0.0001
     59 H          16.8277    6.7183   -0.8343 H       1  LIG1        0.0643
     60 C          13.0252    7.2651   -0.7364 C.ar    1  LIG1       -0.0501
     61 C          13.8665    8.3557   -0.8573 C.ar    1  LIG1       -0.0519
     62 H          11.9508    7.4040   -0.7250 H       1  LIG1        0.0625
     63 N          15.4489    4.4718   -0.6283 N.pl3   1  LIG1       -0.3574
     64 H          15.0671    3.8563   -1.3412 H       1  LIG1        0.1423
     65 H          16.4599    4.4672   -0.6947 H       1  LIG1        0.1423
     66 H          13.4386    9.3476   -0.9606 H       1  LIG1        0.0624
     67 C          16.1693    9.3130   -0.9847 C.ar    1  LIG1        0.0482
     68 C          17.4359    9.4052   -1.5082 C.ar    1  LIG1       -0.0203
     69 C          17.8704   10.7555   -1.3799 C.ar    1  LIG1        0.0536
     70 C          16.8440   11.4571   -0.7523 C.ar    1  LIG1        0.1000
     71 N          15.8238   10.5706   -0.5405 N.ar    1  LIG1       -0.3507
     72 H          15.0040   10.7807    0.0065 H       1  LIG1        0.1660
     73 H          17.9881    8.6130   -1.9902 H       1  LIG1        0.0651
     74 C          19.0867   11.2943   -1.8745 C.1     1  LIG1       -0.0674
     75 C          20.1225   11.7414   -2.3026 C.1     1  LIG1       -0.1138
     76 H          21.0244   12.1244   -2.7219 H       1  LIG1        0.1232
     77 C          16.7334   12.8250   -0.3260 C.ar    1  LIG1        0.1747
     78 C          17.6092   13.7914    0.0897 C.ar    1  LIG1        0.0887
     79 C          16.8083   14.9364    0.4525 C.ar    1  LIG1        0.0918
     80 C          15.4952   14.5892    0.2619 C.ar    1  LIG1        0.1581
     81 O          15.4393   13.3162   -0.2087 O.2     1  LIG1       -0.4500
     82 N          18.9690   13.7311    0.2429 N.pl3   1  LIG1       -0.3540
     83 H          19.4657   13.0938   -0.3660 H       1  LIG1        0.1425
     84 H          19.4173   14.6273    0.3651 H       1  LIG1        0.1425
     85 C          17.3550   16.1635    0.9064 C.1     1  LIG1       -0.0640
     86 C          17.8770   17.1820    1.2833 C.1     1  LIG1       -0.1137
     87 H          18.3201   18.0924    1.6184 H       1  LIG1        0.1232
     88 C          13.0202   14.8709   -0.1668 C.ar    1  LIG1        0.2233
     89 C          14.2338   15.2937    0.4429 C.ar    1  LIG1        0.0810
     90 C          14.1757   16.4399    1.2270 C.ar    1  LIG1       -0.0270
     91 C          12.9692   17.1197    1.3796 C.ar    1  LIG1        0.0707
     92 C          11.8427   16.6076    0.7327 C.ar    1  LIG1        0.0488
     93 N          11.8728   15.5168   -0.0151 N.ar    1  LIG1       -0.2196
     94 H          15.0682   16.8046    1.7197 H       1  LIG1        0.0640
     95 H          10.8826   17.1072    0.8300 H       1  LIG1        0.0844
     96 O          12.9387   13.7896   -0.9464 O.3     1  LIG1       -0.4919
     97 H          13.8073   13.3643   -1.0151 H       1  LIG1        0.2937
     98 N          12.8081   19.2592    2.8265 N.1     1  LIG1       -0.1908
     99 C          12.8808   18.3024    2.1804 C.1     1  LIG1        0.1007
@<TRIPOS>BOND
     1    14    12    1
     2    13    12    1
     3    76    75    1
     4    12     7    1
     5     8     6    1
     6    51    52    3
     7    75    74    3
     8    73    68    1
     9    74    69    1
    10    52    44    1
    11     6     7   ar
    12     6     3   ar
    13     7     4   ar
    14    68    69   ar
    15    68    67   ar
    16    69    70   ar
    17    64    63    1
    18    49    44   ar
    19    49    48   ar
    20    97    96    1
    21    67    58    1
    22    67    71   ar
    23    44    45   ar
    24    66    61    1
    25    96    88    1
    26    25    23    1
    27    58    61   ar
    28    58    56   ar
    29    61    60   ar
    30    59    56    1
    31    56    55   ar
    32    70    71   ar
    33    70    77    1
    34    60    62    1
    35    60    57   ar
    36     9     3    1
    37    55    63    1
    38    55    57   ar
    39    65    63    1
    40     3     1   ar
    41    57    48    1
    42    35    34    1
    43    71    72    1
    44    22    20    1
    45    48    47   ar
    46     4    17    1
    47     4     2   ar
    48    29    28    1
    49    83    82    1
    50    20    17   ar
    51    20    21   ar
    52    28    27    3
    53    77    81   ar
    54    77    78   ar
    55    17    15   ar
    56    24    23    1
    57    27    21    1
    58    81    80   ar
    59    21    18   ar
    60    34    33   ar
    61    34    30   ar
    62    88    93   ar
    63    88    89   ar
    64    15    23    1
    65    15    16   ar
    66    23    26    1
    67    45    33    1
    68    45    46   ar
    69    93    92   ar
    70    18    16   ar
    71    18    30    1
    72    16    19    1
    73    78    82    1
    74    78    79   ar
    75    33    32   ar
    76    30    31   ar
    77    82    84    1
    78    80    89    1
    79    80    79   ar
    80    89    90   ar
    81    79    85    1
    82    47    46   ar
    83    47    53    1
    84    43    41    1
    85     1     2   ar
    86     1    10    1
    87    46    50    1
    88    32    31   ar
    89    32    41    1
    90     2     5    1
    91    31    36    1
    92    92    95    1
    93    92    91   ar
    94    54    53    1
    95    85    86    3
    96    41    42    1
    97    36    37    1
    98    90    91   ar
    99    90    94    1
   100    86    87    1
   101    91    99    1
   102    10    11    1
   103    99    98    3
   104    37    40    1
   105    37    38    1
   106    37    39    1
