@<TRIPOS>MOLECULE
mol_data/opt/cam/geoms/mol2/4fi.out
 16 16 0 0 0
SMALL
GASTEIGER

@<TRIPOS>ATOM
      1 C           0.0689   -0.0082   -0.0065 C.ar    1  LIG1        0.1169
      2 C           1.4565   -0.0199    0.0646 C.ar    1  LIG1       -0.0199
      3 C          -0.6074    1.2084   -0.0748 C.ar    1  LIG1       -0.0199
      4 C           2.1595    1.1811    0.0669 C.ar    1  LIG1       -0.0554
      5 H           1.9915   -0.9649    0.1183 H       1  LIG1        0.0654
      6 C           0.1091    2.3933   -0.0713 C.ar    1  LIG1       -0.0554
      7 C           1.5053    2.4068   -0.0006 C.ar    1  LIG1       -0.0502
      8 H          -0.4297    3.3354   -0.1249 H       1  LIG1        0.0621
      9 H           3.2440    1.1568    0.1230 H       1  LIG1        0.0621
     10 H          -1.6902    1.2020   -0.1297 H       1  LIG1        0.0654
     11 O          -0.6808   -1.1467   -0.0129 O.3     1  LIG1       -0.5068
     12 H          -0.0960   -1.9115    0.0383 H       1  LIG1        0.2921
     13 C           2.2663    3.7071    0.0012 C.3     1  LIG1       -0.0397
     14 H           1.9779    4.3393    0.8469 H       1  LIG1        0.0278
     15 H           2.0785    4.2830   -0.9105 H       1  LIG1        0.0278
     16 H           3.3430    3.5357    0.0682 H       1  LIG1        0.0278
@<TRIPOS>BOND
     1    15    13    1
     2    10     3    1
     3     8     6    1
     4     3     6   ar
     5     3     1   ar
     6     6     7   ar
     7    11     1    1
     8    11    12    1
     9     1     2   ar
    10     7    13    1
    11     7     4   ar
    12    13    16    1
    13    13    14    1
    14     2     4   ar
    15     2     5    1
    16     4     9    1
