@<TRIPOS>MOLECULE
mol_data/opt/cam/geoms/mol2/4fi13da6ea-4eh.out
 50 53 0 0 0
SMALL
GASTEIGER

@<TRIPOS>ATOM
      1 C          -0.0015   -0.1252   -0.8436 C.ar    1  LIG1        0.1175
      2 C           1.3630   -0.0021   -0.6235 C.ar    1  LIG1       -0.0108
      3 C          -0.8565    0.8968   -0.4430 C.ar    1  LIG1       -0.0199
      4 C           1.8913    1.1251    0.0148 C.ar    1  LIG1        0.0059
      5 H           2.0314   -0.7912   -0.9525 H       1  LIG1        0.0661
      6 C          -0.3299    2.0095    0.1900 C.ar    1  LIG1       -0.0548
      7 C           1.0354    2.1565    0.4421 C.ar    1  LIG1       -0.0411
      8 H          -1.0057    2.7930    0.5197 H       1  LIG1        0.0622
      9 H          -1.9209    0.7961   -0.6209 H       1  LIG1        0.0654
     10 O          -0.5504   -1.2081   -1.4533 O.3     1  LIG1       -0.5067
     11 H           0.1327   -1.8719   -1.6068 H       1  LIG1        0.2921
     12 C           1.5143    3.3790    1.1865 C.3     1  LIG1       -0.0391
     13 H           0.6840    3.8365    1.7281 H       1  LIG1        0.0278
     14 H           1.9179    4.1524    0.5216 H       1  LIG1        0.0278
     15 H           2.2934    3.1375    1.9131 H       1  LIG1        0.0278
     16 C           3.3465    1.1657    0.2212 C.ar    1  LIG1        0.0649
     17 C           4.2404    0.1520    0.5643 C.ar    1  LIG1        0.0776
     18 C           5.5416    0.7123    0.6009 C.ar    1  LIG1       -0.0183
     19 C           5.4286    2.0481    0.2796 C.ar    1  LIG1        0.0508
     20 N           4.0914    2.2903    0.0609 N.ar    1  LIG1       -0.3530
     21 H           3.7335    3.1758   -0.2666 H       1  LIG1        0.1659
     22 N           3.6585   -2.3132    1.0497 N.1     1  LIG1       -0.1908
     23 C           3.9119   -1.2027    0.8398 C.1     1  LIG1        0.1013
     24 H           6.4471    0.1734    0.8315 H       1  LIG1        0.0652
     25 C           6.3278    4.3484   -0.3745 C.ar    1  LIG1        0.1229
     26 C           6.4754    3.0656    0.1901 C.ar    1  LIG1        0.0322
     27 C           7.7464    2.7775    0.7034 C.ar    1  LIG1       -0.0479
     28 C           8.7732    3.6912    0.6190 C.ar    1  LIG1       -0.0350
     29 C           8.5320    4.9311    0.0142 C.ar    1  LIG1        0.0736
     30 N           7.3232    5.2391   -0.4489 N.ar    1  LIG1       -0.2377
     31 H           7.9193    1.8259    1.1924 H       1  LIG1        0.0626
     32 C           5.0865    4.8223   -0.9337 C.1     1  LIG1       -0.0491
     33 C           4.0645    5.2500   -1.4080 C.1     1  LIG1       -0.1124
     34 H           3.1800    5.6444   -1.8548 H       1  LIG1        0.1232
     35 H           9.7469    3.4588    1.0265 H       1  LIG1        0.0639
     36 C          10.9386    5.7312   -0.2878 C.ar    1  LIG1        0.0340
     37 C          11.8213    6.8179   -0.3571 C.ar    1  LIG1       -0.0440
     38 C           9.5667    5.9958   -0.0899 C.ar    1  LIG1        0.0175
     39 C          11.3840    8.1216   -0.2416 C.ar    1  LIG1       -0.0399
     40 H          12.8746    6.6166   -0.5173 H       1  LIG1        0.0630
     41 C           9.1355    7.3144    0.0084 C.ar    1  LIG1       -0.0307
     42 C          10.0217    8.3904   -0.0628 C.ar    1  LIG1        0.0252
     43 H           8.0744    7.4953    0.1381 H       1  LIG1        0.0643
     44 H          12.0951    8.9405   -0.2926 H       1  LIG1        0.0636
     45 C          11.4831    4.4214   -0.4820 C.1     1  LIG1       -0.0690
     46 C          12.0024    3.3486   -0.6604 C.1     1  LIG1       -0.1139
     47 H          12.4491    2.3958   -0.8277 H       1  LIG1        0.1232
     48 N           9.5677    9.6894    0.0918 N.pl3   1  LIG1       -0.3579
     49 H          10.1576   10.4148   -0.2858 H       1  LIG1        0.1423
     50 H           8.5876    9.8400   -0.0922 H       1  LIG1        0.1423
@<TRIPOS>BOND
     1    34    33    1
     2    11    10    1
     3    10     1    1
     4    33    32    3
     5     5     2    1
     6    32    25    1
     7     1     2   ar
     8     1     3   ar
     9    47    46    1
    10    46    45    3
    11     2     4   ar
    12     9     3    1
    13    40    37    1
    14    45    36    1
    15    30    25   ar
    16    30    29   ar
    17     3     6   ar
    18    25    26   ar
    19    37    36   ar
    20    37    39   ar
    21    44    39    1
    22    36    38   ar
    23    49    48    1
    24    21    20    1
    25    39    42   ar
    26    50    48    1
    27    38    41   ar
    28    38    29    1
    29    42    41   ar
    30    42    48    1
    31    41    43    1
    32    29    28   ar
    33     4    16    1
    34     4     7   ar
    35    20    16   ar
    36    20    19   ar
    37     6     7   ar
    38     6     8    1
    39    26    19    1
    40    26    27   ar
    41    16    17   ar
    42    19    18   ar
    43     7    12    1
    44    14    12    1
    45    17    18   ar
    46    17    23    1
    47    18    24    1
    48    28    27   ar
    49    28    35    1
    50    27    31    1
    51    23    22    3
    52    12    13    1
    53    12    15    1
