@<TRIPOS>MOLECULE
mol_data/opt/cam/geoms/mol2/4fi4fi-4fi4fi.out
 58 61 0 0 0
SMALL
GASTEIGER

@<TRIPOS>ATOM
      1 C          -0.2116    0.3173   -1.0553 C.ar    1  LIG1        0.1175
      2 C           1.1744    0.2800   -0.9646 C.ar    1  LIG1       -0.0121
      3 C          -0.9125    1.3498   -0.4406 C.ar    1  LIG1       -0.0199
      4 C           1.8771    1.2603   -0.2588 C.ar    1  LIG1       -0.0080
      5 H           1.7315   -0.5160   -1.4526 H       1  LIG1        0.0660
      6 C          -0.2151    2.3183    0.2627 C.ar    1  LIG1       -0.0548
      7 C           1.1772    2.3015    0.3767 C.ar    1  LIG1       -0.0424
      8 H          -0.7701    3.1125    0.7534 H       1  LIG1        0.0622
      9 H          -1.9934    1.3738   -0.5188 H       1  LIG1        0.0654
     10 O          -0.9289   -0.6197   -1.7345 O.3     1  LIG1       -0.5067
     11 H          -0.3258   -1.2729   -2.1081 H       1  LIG1        0.2921
     12 C           1.8867    3.3488    1.1987 C.3     1  LIG1       -0.0391
     13 H           1.1658    3.9798    1.7226 H       1  LIG1        0.0278
     14 H           2.5168    3.9972    0.5831 H       1  LIG1        0.0278
     15 H           2.5403    2.8880    1.9443 H       1  LIG1        0.0278
     16 C           4.1727    2.1167   -0.8135 C.ar    1  LIG1        0.1251
     17 C           5.5560    2.0036   -0.7535 C.ar    1  LIG1       -0.0115
     18 C           3.3630    1.1626   -0.1923 C.ar    1  LIG1        0.0242
     19 C           6.1651    0.9403   -0.0925 C.ar    1  LIG1       -0.0080
     20 H           6.1575    2.7533   -1.2552 H       1  LIG1        0.0660
     21 C           3.9892    0.1023    0.4641 C.ar    1  LIG1       -0.0470
     22 C           5.3712   -0.0348    0.5376 C.ar    1  LIG1       -0.0418
     23 H           3.3609   -0.6346    0.9569 H       1  LIG1        0.0628
     24 O           3.6567    3.1775   -1.4984 O.3     1  LIG1       -0.5061
     25 H           2.6974    3.0671   -1.5553 H       1  LIG1        0.2922
     26 C           5.9757   -1.1873    1.2947 C.3     1  LIG1       -0.0391
     27 H           6.7672   -0.8498    1.9697 H       1  LIG1        0.0278
     28 H           6.4241   -1.9119    0.6102 H       1  LIG1        0.0278
     29 H           5.2176   -1.6996    1.8914 H       1  LIG1        0.0278
     30 C           8.4040   -0.1169   -0.6271 C.ar    1  LIG1        0.1251
     31 C           9.7899   -0.0885   -0.5699 C.ar    1  LIG1       -0.0115
     32 C           7.6534    0.9074   -0.0405 C.ar    1  LIG1        0.0242
     33 C          10.4749    0.9524    0.0558 C.ar    1  LIG1       -0.0080
     34 H          10.3594   -0.8946   -1.0250 H       1  LIG1        0.0660
     35 C           8.3545    1.9379    0.5816 C.ar    1  LIG1       -0.0470
     36 C           9.7460    1.9913    0.6522 C.ar    1  LIG1       -0.0418
     37 H           7.7766    2.7306    1.0482 H       1  LIG1        0.0628
     38 O           7.7363   -1.1226   -1.2655 O.3     1  LIG1       -0.5061
     39 H           8.3802   -1.7448   -1.6235 H       1  LIG1        0.2922
     40 C          10.4088    3.1353    1.3788 C.3     1  LIG1       -0.0391
     41 H           9.7063    3.6052    2.0709 H       1  LIG1        0.0278
     42 H          10.7581    3.9140    0.6929 H       1  LIG1        0.0278
     43 H          11.2775    2.8008    1.9497 H       1  LIG1        0.0278
     44 C          12.6884   -0.1054    0.6407 C.ar    1  LIG1        0.1246
     45 C          14.0786   -0.0955    0.6143 C.ar    1  LIG1       -0.0193
     46 C          11.9650    0.9386    0.0473 C.ar    1  LIG1        0.0242
     47 C          14.7626    0.9416   -0.0060 C.ar    1  LIG1       -0.0554
     48 H          14.6298   -0.9046    1.0878 H       1  LIG1        0.0654
     49 C          12.6833    1.9605   -0.5700 C.ar    1  LIG1       -0.0476
     50 C          14.0767    1.9877   -0.6152 C.ar    1  LIG1       -0.0496
     51 H          12.1240    2.7628   -1.0431 H       1  LIG1        0.0627
     52 H          15.8487    0.9317   -0.0143 H       1  LIG1        0.0621
     53 O          11.9881   -1.1102    1.2419 O.3     1  LIG1       -0.5062
     54 H          12.6102   -1.7303    1.6396 H       1  LIG1        0.2922
     55 C          14.8065    3.0992   -1.3234 C.3     1  LIG1       -0.0397
     56 H          14.3272    4.0664   -1.1500 H       1  LIG1        0.0278
     57 H          14.8273    2.9376   -2.4066 H       1  LIG1        0.0278
     58 H          15.8424    3.1733   -0.9842 H       1  LIG1        0.0278
@<TRIPOS>BOND
     1    57    55    1
     2    11    10    1
     3    10     1    1
     4    39    38    1
     5    25    24    1
     6    24    16    1
     7     5     2    1
     8    55    56    1
     9    55    58    1
    10    55    50    1
    11    38    30    1
    12    20    17    1
    13     1     2   ar
    14     1     3   ar
    15    51    49    1
    16    34    31    1
    17     2     4   ar
    18    16    17   ar
    19    16    18   ar
    20    17    19   ar
    21    30    31   ar
    22    30    32   ar
    23    50    49   ar
    24    50    47   ar
    25    49    46   ar
    26    31    33   ar
    27     9     3    1
    28     3     6   ar
    29     4    18    1
    30     4     7   ar
    31    18    21   ar
    32    19    32    1
    33    19    22   ar
    34    32    35   ar
    35    52    47    1
    36    47    45   ar
    37    46    33    1
    38    46    44   ar
    39    33    36   ar
    40     6     7   ar
    41     6     8    1
    42     7    12    1
    43    21    22   ar
    44    21    23    1
    45    22    26    1
    46    35    36   ar
    47    35    37    1
    48    14    12    1
    49    28    26    1
    50    45    44   ar
    51    45    48    1
    52    44    53    1
    53    36    40    1
    54    42    40    1
    55    12    13    1
    56    12    15    1
    57    53    54    1
    58    26    29    1
    59    26    27    1
    60    40    43    1
    61    40    41    1
