@<TRIPOS>MOLECULE
mol_data/opt/cam/geoms/mol2/4fi4fi4fi.out
 44 46 0 0 0
SMALL
GASTEIGER

@<TRIPOS>ATOM
      1 C           0.0313    0.5908   -1.4459 C.ar    1  LIG1        0.1175
      2 C           1.4068    0.6005   -1.2624 C.ar    1  LIG1       -0.0121
      3 C          -0.7903    1.2338   -0.5266 C.ar    1  LIG1       -0.0199
      4 C           1.9845    1.2471   -0.1680 C.ar    1  LIG1       -0.0080
      5 H           2.0512    0.0917   -1.9742 H       1  LIG1        0.0660
      6 C          -0.2157    1.8636    0.5647 C.ar    1  LIG1       -0.0548
      7 C           1.1649    1.8882    0.7739 C.ar    1  LIG1       -0.0424
      8 H          -0.8619    2.3497    1.2902 H       1  LIG1        0.0622
      9 H          -1.8641    1.2200   -0.6748 H       1  LIG1        0.0654
     10 O          -0.5627   -0.0293   -2.5058 O.3     1  LIG1       -0.5067
     11 H           0.1177   -0.4498   -3.0441 H       1  LIG1        0.2921
     12 C           1.7183    2.5720    1.9997 C.3     1  LIG1       -0.0391
     13 H           0.9477    2.6537    2.7700 H       1  LIG1        0.0278
     14 H           2.0708    3.5864    1.7857 H       1  LIG1        0.0278
     15 H           2.5638    2.0241    2.4211 H       1  LIG1        0.0278
     16 C           4.2028    0.0636    0.0527 C.ar    1  LIG1        0.1251
     17 C           5.5867    0.1034    0.1522 C.ar    1  LIG1       -0.0115
     18 C           3.4695    1.2517   -0.0475 C.ar    1  LIG1        0.0242
     19 C           6.2867    1.3090    0.1482 C.ar    1  LIG1       -0.0080
     20 H           6.1414   -0.8266    0.2444 H       1  LIG1        0.0660
     21 C           4.1856    2.4460   -0.0424 C.ar    1  LIG1       -0.0470
     22 C           5.5746    2.5137    0.0526 C.ar    1  LIG1       -0.0418
     23 H           3.6255    3.3732   -0.1212 H       1  LIG1        0.0628
     24 O           3.5211   -1.1187    0.0510 O.3     1  LIG1       -0.5061
     25 H           4.1489   -1.8382    0.1847 H       1  LIG1        0.2922
     26 C           6.2514    3.8619    0.0691 C.3     1  LIG1       -0.0391
     27 H           5.5426    4.6404    0.3603 H       1  LIG1        0.0278
     28 H           6.6499    4.1377   -0.9127 H       1  LIG1        0.0278
     29 H           7.0886    3.8846    0.7701 H       1  LIG1        0.0278
     30 C           8.4392    0.7024    1.3139 C.ar    1  LIG1        0.1246
     31 C           9.8293    0.6814    1.3544 C.ar    1  LIG1       -0.0193
     32 C           7.7747    1.2757    0.2208 C.ar    1  LIG1        0.0242
     33 C          10.5714    1.2191    0.3115 C.ar    1  LIG1       -0.0554
     34 H          10.3339    0.2446    2.2130 H       1  LIG1        0.0654
     35 C           8.5510    1.8016   -0.8103 C.ar    1  LIG1       -0.0476
     36 C           9.9448    1.7850   -0.7947 C.ar    1  LIG1       -0.0496
     37 H           8.0383    2.2334   -1.6651 H       1  LIG1        0.0627
     38 H          11.6560    1.1947    0.3634 H       1  LIG1        0.0621
     39 O           7.6838    0.1820    2.3236 O.3     1  LIG1       -0.5062
     40 H           8.2693   -0.1357    3.0206 H       1  LIG1        0.2922
     41 C          10.7395    2.3355   -1.9502 C.3     1  LIG1       -0.0397
     42 H          10.2524    3.2100   -2.3892 H       1  LIG1        0.0278
     43 H          10.8532    1.5930   -2.7476 H       1  LIG1        0.0278
     44 H          11.7430    2.6331   -1.6367 H       1  LIG1        0.0278
@<TRIPOS>BOND
     1    11    10    1
     2    43    41    1
     3    10     1    1
     4    42    41    1
     5     5     2    1
     6    41    44    1
     7    41    36    1
     8    37    35    1
     9     1     2   ar
    10     1     3   ar
    11     2     4   ar
    12    28    26    1
    13    35    36   ar
    14    35    32   ar
    15    36    33   ar
    16     9     3    1
    17     3     6   ar
    18     4    18    1
    19     4     7   ar
    20    23    21    1
    21    18    21   ar
    22    18    16   ar
    23    21    22   ar
    24    24    16    1
    25    24    25    1
    26    22    26    1
    27    22    19   ar
    28    16    17   ar
    29    26    27    1
    30    26    29    1
    31    19    17   ar
    32    19    32    1
    33    17    20    1
    34    32    30   ar
    35    33    38    1
    36    33    31   ar
    37     6     7   ar
    38     6     8    1
    39     7    12    1
    40    30    31   ar
    41    30    39    1
    42    31    34    1
    43    14    12    1
    44    12    15    1
    45    12    13    1
    46    39    40    1
