@<TRIPOS>MOLECULE
mol_data/opt/cam/geoms/mol2/4fi4fi-4fi-4fi.out
 58 61 0 0 0
SMALL
GASTEIGER

@<TRIPOS>ATOM
      1 C          -0.2628    0.0146   -0.1144 C.ar    1  LIG1        0.1175
      2 C           1.1267    0.0024   -0.1228 C.ar    1  LIG1       -0.0121
      3 C          -0.9386    1.2307   -0.0980 C.ar    1  LIG1       -0.0199
      4 C           1.8566    1.1941   -0.1077 C.ar    1  LIG1       -0.0080
      5 H           1.6629   -0.9430   -0.1485 H       1  LIG1        0.0660
      6 C          -0.2133    2.4103   -0.0787 C.ar    1  LIG1       -0.0548
      7 C           1.1838    2.4284   -0.0792 C.ar    1  LIG1       -0.0424
      8 H          -0.7480    3.3552   -0.0504 H       1  LIG1        0.0622
      9 H          -2.0226    1.2316   -0.0951 H       1  LIG1        0.0654
     10 O          -1.0082   -1.1236   -0.1288 O.3     1  LIG1       -0.5067
     11 H          -0.4230   -1.8900   -0.1371 H       1  LIG1        0.2921
     12 C           1.9279    3.7386   -0.0029 C.3     1  LIG1       -0.0391
     13 H           1.2315    4.5686    0.1318 H       1  LIG1        0.0278
     14 H           2.5112    3.9343   -0.9073 H       1  LIG1        0.0278
     15 H           2.6290    3.7465    0.8363 H       1  LIG1        0.0278
     16 C           4.0813    1.5695   -1.2115 C.ar    1  LIG1        0.1251
     17 C           5.4691    1.4830   -1.2057 C.ar    1  LIG1       -0.0115
     18 C           3.3454    1.1174   -0.1124 C.ar    1  LIG1        0.0242
     19 C           6.1567    0.9352   -0.1209 C.ar    1  LIG1       -0.0080
     20 H           6.0096    1.8179   -2.0850 H       1  LIG1        0.0660
     21 C           4.0462    0.5673    0.9609 C.ar    1  LIG1       -0.0470
     22 C           5.4342    0.4693    0.9934 C.ar    1  LIG1       -0.0418
     23 H           3.4746    0.2230    1.8184 H       1  LIG1        0.0628
     24 O           3.4901    2.0980   -2.3172 O.3     1  LIG1       -0.5061
     25 H           2.5312    2.0012   -2.2309 H       1  LIG1        0.2922
     26 C           6.1186   -0.1039    2.2082 C.3     1  LIG1       -0.0391
     27 H           6.9864    0.4932    2.4977 H       1  LIG1        0.0278
     28 H           6.4811   -1.1214    2.0333 H       1  LIG1        0.0278
     29 H           5.4299   -0.1412    3.0553 H       1  LIG1        0.0278
     30 C           8.3925    2.0628   -0.2348 C.ar    1  LIG1        0.1251
     31 C           9.7812    2.0044   -0.2855 C.ar    1  LIG1       -0.0115
     32 C           7.6453    0.8823   -0.1725 C.ar    1  LIG1        0.0242
     33 C          10.4540    0.7870   -0.2912 C.ar    1  LIG1       -0.0080
     34 H          10.3334    2.9362   -0.3347 H       1  LIG1        0.0660
     35 C           8.3377   -0.3295   -0.1678 C.ar    1  LIG1       -0.0470
     36 C           9.7236   -0.4136   -0.2272 C.ar    1  LIG1       -0.0418
     37 H           7.7605   -1.2488   -0.1221 H       1  LIG1        0.0628
     38 O           7.8202    3.2973   -0.2379 O.3     1  LIG1       -0.5061
     39 H           6.8589    3.1932   -0.2138 H       1  LIG1        0.2922
     40 C          10.4006   -1.7584   -0.2053 C.3     1  LIG1       -0.0391
     41 H          11.2153   -1.7840    0.5240 H       1  LIG1        0.0278
     42 H          10.8328   -1.9947   -1.1810 H       1  LIG1        0.0278
     43 H           9.6897   -2.5460    0.0549 H       1  LIG1        0.0278
     44 C          12.6811    0.2885   -1.3863 C.ar    1  LIG1        0.1246
     45 C          14.0689    0.3493   -1.3764 C.ar    1  LIG1       -0.0193
     46 C          11.9441    0.8087   -0.3133 C.ar    1  LIG1        0.0242
     47 C          14.7392    0.9345   -0.3089 C.ar    1  LIG1       -0.0554
     48 H          14.6301   -0.0584   -2.2140 H       1  LIG1        0.0654
     49 C          12.6472    1.3965    0.7356 C.ar    1  LIG1       -0.0476
     50 C          14.0404    1.4720    0.7660 C.ar    1  LIG1       -0.0496
     51 H          12.0743    1.8036    1.5644 H       1  LIG1        0.0627
     52 H          15.8246    0.9719   -0.3196 H       1  LIG1        0.0621
     53 O          11.9920   -0.2595   -2.4291 O.3     1  LIG1       -0.5062
     54 H          12.6184   -0.5474   -3.1031 H       1  LIG1        0.2922
     55 C          14.7516    2.1253    1.9224 C.3     1  LIG1       -0.0397
     56 H          14.4052    1.7288    2.8813 H       1  LIG1        0.0278
     57 H          14.5789    3.2064    1.9389 H       1  LIG1        0.0278
     58 H          15.8306    1.9649    1.8655 H       1  LIG1        0.0278
@<TRIPOS>BOND
     1    54    53    1
     2    53    44    1
     3    24    25    1
     4    24    16    1
     5    48    45    1
     6    20    17    1
     7    44    45   ar
     8    44    46   ar
     9    45    47   ar
    10    16    17   ar
    11    16    18   ar
    12    17    19   ar
    13    42    40    1
    14    14    12    1
    15    34    31    1
    16    52    47    1
    17    46    33    1
    18    46    49   ar
    19    47    50   ar
    20    33    31   ar
    21    33    36   ar
    22    31    30   ar
    23    38    30    1
    24    38    39    1
    25    30    32   ar
    26    36    40    1
    27    36    35   ar
    28    40    43    1
    29    40    41    1
    30    32    35   ar
    31    32    19    1
    32    35    37    1
    33     5     2    1
    34    11    10    1
    35    10     1    1
    36     2     1   ar
    37     2     4   ar
    38    19    22   ar
    39     1     3   ar
    40    18     4    1
    41    18    21   ar
    42     4     7   ar
    43     3     9    1
    44     3     6   ar
    45     7     6   ar
    46     7    12    1
    47     6     8    1
    48    12    13    1
    49    12    15    1
    50    49    50   ar
    51    49    51    1
    52    50    55    1
    53    21    22   ar
    54    21    23    1
    55    22    26    1
    56    58    55    1
    57    55    57    1
    58    55    56    1
    59    28    26    1
    60    26    27    1
    61    26    29    1
