@<TRIPOS>MOLECULE
mol_data/opt/cam/geoms/mol2/4fi4fi4fi4fi.out
 58 61 0 0 0
SMALL
GASTEIGER

@<TRIPOS>ATOM
      1 C          -0.0484    1.3018   -1.7742 C.ar    1  LIG1        0.1175
      2 C           1.3269    1.2784   -1.5889 C.ar    1  LIG1       -0.0121
      3 C          -0.8913    1.3443   -0.6692 C.ar    1  LIG1       -0.0199
      4 C           1.8828    1.2976   -0.3084 C.ar    1  LIG1       -0.0080
      5 H           1.9884    1.2374   -2.4501 H       1  LIG1        0.0660
      6 C          -0.3374    1.3505    0.6003 C.ar    1  LIG1       -0.0548
      7 C           1.0422    1.3268    0.8151 C.ar    1  LIG1       -0.0424
      8 H          -0.9995    1.3659    1.4615 H       1  LIG1        0.0622
      9 H          -1.9645    1.3598   -0.8214 H       1  LIG1        0.0654
     10 O          -0.6217    1.2870   -3.0121 O.3     1  LIG1       -0.5067
     11 H           0.0734    1.2332   -3.6780 H       1  LIG1        0.2921
     12 C           1.5750    1.3092    2.2264 C.3     1  LIG1       -0.0391
     13 H           0.8071    0.9557    2.9186 H       1  LIG1        0.0278
     14 H           1.8840    2.3034    2.5657 H       1  LIG1        0.0278
     15 H           2.4455    0.6566    2.3213 H       1  LIG1        0.0278
     16 C           4.1551    0.2614   -0.6709 C.ar    1  LIG1        0.1251
     17 C           5.5363    0.3069   -0.5415 C.ar    1  LIG1       -0.0115
     18 C           3.3670    1.3071   -0.1771 C.ar    1  LIG1        0.0242
     19 C           6.1799    1.3830    0.0682 C.ar    1  LIG1       -0.0080
     20 H           6.1345   -0.5196   -0.9156 H       1  LIG1        0.0660
     21 C           4.0265    2.3693    0.4361 C.ar    1  LIG1       -0.0470
     22 C           5.4115    2.4416    0.5757 C.ar    1  LIG1       -0.0418
     23 H           3.4229    3.1856    0.8224 H       1  LIG1        0.0628
     24 O           3.5285   -0.7906   -1.2740 O.3     1  LIG1       -0.5061
     25 H           4.1901   -1.4525   -1.5062 H       1  LIG1        0.2922
     26 C           6.0243    3.6285    1.2770 C.3     1  LIG1       -0.0391
     27 H           5.2870    4.1122    1.9219 H       1  LIG1        0.0278
     28 H           6.3844    4.3856    0.5727 H       1  LIG1        0.0278
     29 H           6.8770    3.3360    1.8932 H       1  LIG1        0.0278
     30 C           8.3699    0.3650    0.7986 C.ar    1  LIG1        0.1251
     31 C           9.7571    0.3896    0.8407 C.ar    1  LIG1       -0.0115
     32 C           7.6674    1.3812    0.1403 C.ar    1  LIG1        0.0242
     33 C          10.4899    1.4067    0.2309 C.ar    1  LIG1       -0.0080
     34 H          10.2887   -0.3973    1.3692 H       1  LIG1        0.0660
     35 C           8.4165    2.3915   -0.4578 C.ar    1  LIG1       -0.0470
     36 C           9.8094    2.4373   -0.4339 C.ar    1  LIG1       -0.0418
     37 H           7.8806    3.1831   -0.9732 H       1  LIG1        0.0628
     38 O           7.6553   -0.6352    1.3915 O.3     1  LIG1       -0.5061
     39 H           8.2662   -1.2211    1.8532 H       1  LIG1        0.2922
     40 C          10.5254    3.5876   -1.0970 C.3     1  LIG1       -0.0391
     41 H           9.8513    4.4390   -1.2154 H       1  LIG1        0.0278
     42 H          10.8948    3.3258   -2.0939 H       1  LIG1        0.0278
     43 H          11.3886    3.9154   -0.5138 H       1  LIG1        0.0278
     44 C          12.6615    1.3838    1.5112 C.ar    1  LIG1        0.1246
     45 C          14.0504    1.3278    1.5375 C.ar    1  LIG1       -0.0193
     46 C          11.9780    1.3524    0.2873 C.ar    1  LIG1        0.0242
     47 C          14.7726    1.2324    0.3551 C.ar    1  LIG1       -0.0554
     48 H          14.5707    1.3638    2.4917 H       1  LIG1        0.0654
     49 C          12.7336    1.2520   -0.8789 C.ar    1  LIG1       -0.0476
     50 C          14.1267    1.1874   -0.8763 C.ar    1  LIG1       -0.0496
     51 H          12.2053    1.2131   -1.8275 H       1  LIG1        0.0627
     52 H          15.8571    1.1915    0.3968 H       1  LIG1        0.0621
     53 O          11.9237    1.4776    2.6547 O.3     1  LIG1       -0.5062
     54 H          12.5213    1.5304    3.4095 H       1  LIG1        0.2922
     55 C          14.8965    1.0494   -2.1639 C.3     1  LIG1       -0.0397
     56 H          14.4867    1.6942   -2.9461 H       1  LIG1        0.0278
     57 H          14.8642    0.0218   -2.5415 H       1  LIG1        0.0278
     58 H          15.9475    1.3150   -2.0282 H       1  LIG1        0.0278
@<TRIPOS>BOND
     1    11    10    1
     2    10     1    1
     3    56    55    1
     4    57    55    1
     5     5     2    1
     6    55    58    1
     7    55    50    1
     8    42    40    1
     9    51    49    1
    10     1     2   ar
    11     1     3   ar
    12     2     4   ar
    13    25    24    1
    14    24    16    1
    15    41    40    1
    16    40    43    1
    17    40    36    1
    18    37    35    1
    19    20    17    1
    20    49    50   ar
    21    49    46   ar
    22    50    47   ar
    23     9     3    1
    24    16    17   ar
    25    16    18   ar
    26     3     6   ar
    27    17    19   ar
    28    35    36   ar
    29    35    32   ar
    30    36    33   ar
    31     4    18    1
    32     4     7   ar
    33    18    21   ar
    34    19    32    1
    35    19    22   ar
    36    32    30   ar
    37    33    46    1
    38    33    31   ar
    39    46    44   ar
    40    47    52    1
    41    47    45   ar
    42    21    22   ar
    43    21    23    1
    44    28    26    1
    45    22    26    1
    46     6     7   ar
    47     6     8    1
    48    30    31   ar
    49    30    38    1
    50     7    12    1
    51    31    34    1
    52    26    29    1
    53    26    27    1
    54    38    39    1
    55    44    45   ar
    56    44    53    1
    57    45    48    1
    58    12    15    1
    59    12    14    1
    60    12    13    1
    61    53    54    1
