@<TRIPOS>MOLECULE
mol_data/opt/cam/geoms/mol2/4fi4fi-4fi.out
 44 46 0 0 0
SMALL
GASTEIGER

@<TRIPOS>ATOM
      1 C          -0.1499    0.1622   -0.6708 C.ar    1  LIG1        0.1175
      2 C           1.2390    0.1341   -0.6429 C.ar    1  LIG1       -0.0121
      3 C          -0.8228    1.2996   -0.2363 C.ar    1  LIG1       -0.0199
      4 C           1.9726    1.2288   -0.1776 C.ar    1  LIG1       -0.0080
      5 H           1.7735   -0.7455   -0.9931 H       1  LIG1        0.0660
      6 C          -0.0945    2.3822    0.2287 C.ar    1  LIG1       -0.0548
      7 C           1.3018    2.3787    0.2754 C.ar    1  LIG1       -0.0424
      8 H          -0.6267    3.2610    0.5807 H       1  LIG1        0.0622
      9 H          -1.9063    1.3151   -0.2648 H       1  LIG1        0.0654
     10 O          -0.8969   -0.8847   -1.1175 O.3     1  LIG1       -0.5067
     11 H          -0.3112   -1.6029   -1.3841 H       1  LIG1        0.2921
     12 C           2.0474    3.5617    0.8419 C.3     1  LIG1       -0.0391
     13 H           1.3495    4.2984    1.2450 H       1  LIG1        0.0278
     14 H           2.6634    4.0590    0.0873 H       1  LIG1        0.0278
     15 H           2.7200    3.2548    1.6476 H       1  LIG1        0.0278
     16 C           4.2338    1.9457   -1.0040 C.ar    1  LIG1        0.1251
     17 C           5.6190    1.8390   -0.9922 C.ar    1  LIG1       -0.0115
     18 C           3.4604    1.1370   -0.1675 C.ar    1  LIG1        0.0242
     19 C           6.2646    0.9231   -0.1664 C.ar    1  LIG1       -0.0080
     20 H           6.1910    2.4725   -1.6609 H       1  LIG1        0.0660
     21 C           4.1232    0.2221    0.6515 C.ar    1  LIG1       -0.0470
     22 C           5.5078    0.0942    0.6809 C.ar    1  LIG1       -0.0418
     23 H           3.5237   -0.4006    1.3098 H       1  LIG1        0.0628
     24 O           3.6803    2.8543   -1.8570 O.3     1  LIG1       -0.5061
     25 H           2.7195    2.7426   -1.8425 H       1  LIG1        0.2922
     26 C           6.1545   -0.8918    1.6170 C.3     1  LIG1       -0.0391
     27 H           6.9645   -0.4289    2.1881 H       1  LIG1        0.0278
     28 H           6.5871   -1.7295    1.0640 H       1  LIG1        0.0278
     29 H           5.4251   -1.2881    2.3269 H       1  LIG1        0.0278
     30 C           8.4753   -0.2291   -0.6084 C.ar    1  LIG1        0.1246
     31 C           9.8643   -0.2017   -0.6334 C.ar    1  LIG1       -0.0193
     32 C           7.7547    0.8943   -0.1808 C.ar    1  LIG1        0.0242
     33 C          10.5519    0.9406   -0.2426 C.ar    1  LIG1       -0.0554
     34 H          10.4122   -1.0776   -0.9728 H       1  LIG1        0.0654
     35 C           8.4755    2.0258    0.1950 C.ar    1  LIG1       -0.0476
     36 C           9.8697    2.0764    0.1794 C.ar    1  LIG1       -0.0496
     37 H           7.9154    2.8991    0.5182 H       1  LIG1        0.0627
     38 H          11.6376    0.9430   -0.2719 H       1  LIG1        0.0621
     39 O           7.7710   -1.3271   -1.0111 O.3     1  LIG1       -0.5062
     40 H           8.3897   -2.0067   -1.3028 H       1  LIG1        0.2922
     41 C          10.6018    3.3157    0.6242 C.3     1  LIG1       -0.0397
     42 H          10.5752    3.4272    1.7133 H       1  LIG1        0.0278
     43 H          10.1564    4.2182    0.1963 H       1  LIG1        0.0278
     44 H          11.6515    3.2857    0.3229 H       1  LIG1        0.0278
@<TRIPOS>BOND
     1    24    25    1
     2    24    16    1
     3    20    17    1
     4    11    10    1
     5    40    39    1
     6    10     1    1
     7    39    30    1
     8    16    17   ar
     9    16    18   ar
    10     5     2    1
    11    17    19   ar
    12    34    31    1
    13     1     2   ar
    14     1     3   ar
    15     2     4   ar
    16    31    30   ar
    17    31    33   ar
    18    30    32   ar
    19    38    33    1
    20     9     3    1
    21    33    36   ar
    22     3     6   ar
    23    32    19    1
    24    32    35   ar
    25     4    18    1
    26     4     7   ar
    27    18    21   ar
    28    19    22   ar
    29    14    12    1
    30    36    35   ar
    31    36    41    1
    32    35    37    1
    33    43    41    1
    34     6     7   ar
    35     6     8    1
    36     7    12    1
    37    44    41    1
    38    41    42    1
    39    21    22   ar
    40    21    23    1
    41    22    26    1
    42    12    13    1
    43    12    15    1
    44    28    26    1
    45    26    27    1
    46    26    29    1
