@<TRIPOS>MOLECULE
mol_data/opt/cam/geoms/mol2/4fi4fi-.out
 30 31 0 0 0
SMALL
GASTEIGER

@<TRIPOS>ATOM
      1 C          -0.1290    0.6677   -1.1329 C.ar    1  LIG1        0.1175
      2 C           1.2588    0.5865   -1.1790 C.ar    1  LIG1       -0.0121
      3 C          -0.7377    1.4224   -0.1364 C.ar    1  LIG1       -0.0199
      4 C           2.0535    1.2450   -0.2329 C.ar    1  LIG1       -0.0080
      5 H           1.7407   -0.0195   -1.9432 H       1  LIG1        0.0660
      6 C           0.0520    2.0816    0.7921 C.ar    1  LIG1       -0.0548
      7 C           1.4465    2.0169    0.7704 C.ar    1  LIG1       -0.0424
      8 H          -0.4311    2.6778    1.5608 H       1  LIG1        0.0622
      9 H          -1.8195    1.4843   -0.1070 H       1  LIG1        0.0654
     10 O          -0.9320    0.0337   -2.0300 O.3     1  LIG1       -0.5067
     11 H          -0.3879   -0.4632   -2.6522 H       1  LIG1        0.2921
     12 C           2.2536    2.7712    1.7963 C.3     1  LIG1       -0.0391
     13 H           1.6349    3.5194    2.2967 H       1  LIG1        0.0278
     14 H           3.1065    3.2807    1.3418 H       1  LIG1        0.0278
     15 H           2.6564    2.1085    2.5683 H       1  LIG1        0.0278
     16 C           4.2062    1.6416   -1.4509 C.ar    1  LIG1        0.1246
     17 C           5.5894    1.5127   -1.5566 C.ar    1  LIG1       -0.0193
     18 C           3.5356    1.1163   -0.3404 C.ar    1  LIG1        0.0242
     19 C           6.3028    0.8595   -0.5667 C.ar    1  LIG1       -0.0554
     20 H           6.0831    1.9369   -2.4237 H       1  LIG1        0.0654
     21 C           4.2849    0.4647    0.6419 C.ar    1  LIG1       -0.0476
     22 C           5.6642    0.3194    0.5527 C.ar    1  LIG1       -0.0496
     23 H           3.7599    0.0483    1.4973 H       1  LIG1        0.0627
     24 H           7.3811    0.7671   -0.6634 H       1  LIG1        0.0621
     25 O           3.5596    2.2957   -2.4538 O.3     1  LIG1       -0.5062
     26 H           2.6179    2.3401   -2.2372 H       1  LIG1        0.2922
     27 C           6.4464   -0.4097    1.6141 C.3     1  LIG1       -0.0397
     28 H           7.3163    0.1689    1.9386 H       1  LIG1        0.0278
     29 H           6.8177   -1.3728    1.2481 H       1  LIG1        0.0278
     30 H           5.8311   -0.6083    2.4946 H       1  LIG1        0.0278
@<TRIPOS>BOND
     1    11    10    1
     2    25    26    1
     3    25    16    1
     4    20    17    1
     5    10     1    1
     6     5     2    1
     7    17    16   ar
     8    17    19   ar
     9    16    18   ar
    10     2     1   ar
    11     2     4   ar
    12     1     3   ar
    13    24    19    1
    14    19    22   ar
    15    18     4    1
    16    18    21   ar
    17     4     7   ar
    18     3     9    1
    19     3     6   ar
    20    22    21   ar
    21    22    27    1
    22    21    23    1
    23     7     6   ar
    24     7    12    1
    25     6     8    1
    26    29    27    1
    27    14    12    1
    28    27    28    1
    29    27    30    1
    30    12    13    1
    31    12    15    1
