@<TRIPOS>MOLECULE
mol_data/opt/cam/geoms/mol2/4fi4fi4fi-4fi.out
 58 61 0 0 0
SMALL
GASTEIGER

@<TRIPOS>ATOM
      1 C          -0.1777    0.7895   -1.4468 C.ar    1  LIG1        0.1175
      2 C           1.2054    0.7389   -1.3421 C.ar    1  LIG1       -0.0121
      3 C          -0.9225    1.3868   -0.4355 C.ar    1  LIG1       -0.0199
      4 C           1.8642    1.2800   -0.2364 C.ar    1  LIG1       -0.0080
      5 H           1.7904    0.2657   -2.1260 H       1  LIG1        0.0660
      6 C          -0.2665    1.9113    0.6654 C.ar    1  LIG1       -0.0548
      7 C           1.1234    1.8740    0.7963 C.ar    1  LIG1       -0.0424
      8 H          -0.8538    2.3615    1.4608 H       1  LIG1        0.0622
      9 H          -2.0025    1.4202   -0.5227 H       1  LIG1        0.0654
     10 O          -0.8525    0.2739   -2.5132 O.3     1  LIG1       -0.5067
     11 H          -0.2212   -0.1269   -3.1218 H       1  LIG1        0.2921
     12 C           1.7696    2.4434    2.0349 C.3     1  LIG1       -0.0391
     13 H           1.0437    2.5036    2.8492 H       1  LIG1        0.0278
     14 H           2.1585    3.4540    1.8728 H       1  LIG1        0.0278
     15 H           2.6079    1.8303    2.3727 H       1  LIG1        0.0278
     16 C           4.0421    0.0063   -0.2020 C.ar    1  LIG1        0.1251
     17 C           5.4315   -0.0104   -0.1815 C.ar    1  LIG1       -0.0115
     18 C           3.3532    1.2253   -0.1988 C.ar    1  LIG1        0.0242
     19 C           6.1769    1.1690   -0.1567 C.ar    1  LIG1       -0.0080
     20 H           5.9574   -0.9621   -0.1906 H       1  LIG1        0.0660
     21 C           4.1130    2.3925   -0.1742 C.ar    1  LIG1       -0.0470
     22 C           5.5073    2.4049   -0.1494 C.ar    1  LIG1       -0.0418
     23 H           3.5853    3.3416   -0.1733 H       1  LIG1        0.0628
     24 O           3.3135   -1.1447   -0.2298 O.3     1  LIG1       -0.5061
     25 H           3.9146   -1.8979   -0.1909 H       1  LIG1        0.2922
     26 C           6.2543    3.7133   -0.0715 C.3     1  LIG1       -0.0391
     27 H           5.5588    4.5481    0.0355 H       1  LIG1        0.0278
     28 H           6.8621    3.8927   -0.9627 H       1  LIG1        0.0278
     29 H           6.9354    3.7265    0.7839 H       1  LIG1        0.0278
     30 C           8.4311    1.5206   -1.2085 C.ar    1  LIG1        0.1251
     31 C           9.8160    1.4171   -1.1702 C.ar    1  LIG1       -0.0115
     32 C           7.6639    1.0780   -0.1280 C.ar    1  LIG1        0.0242
     33 C          10.4673    0.8610   -0.0727 C.ar    1  LIG1       -0.0080
     34 H          10.3832    1.7597   -2.0284 H       1  LIG1        0.0660
     35 C           8.3325    0.5205    0.9627 C.ar    1  LIG1       -0.0470
     36 C           9.7168    0.4029    1.0247 C.ar    1  LIG1       -0.0418
     37 H           7.7380    0.1848    1.8079 H       1  LIG1        0.0628
     38 O           7.8715    2.0581   -2.3300 O.3     1  LIG1       -0.5061
     39 H           6.9107    1.9658   -2.2677 H       1  LIG1        0.2922
     40 C          10.3700   -0.1795    2.2499 C.3     1  LIG1       -0.0391
     41 H          11.1969    0.4463    2.5975 H       1  LIG1        0.0278
     42 H          10.7814   -1.1702    2.0399 H       1  LIG1        0.0278
     43 H           9.6503   -0.2720    3.0663 H       1  LIG1        0.0278
     44 C          12.6678   -0.3894   -0.0853 C.ar    1  LIG1        0.1246
     45 C          14.0566   -0.3840   -0.1313 C.ar    1  LIG1       -0.0193
     46 C          11.9569    0.8182   -0.0884 C.ar    1  LIG1        0.0242
     47 C          14.7533    0.8167   -0.1871 C.ar    1  LIG1       -0.0554
     48 H          14.5971   -1.3277   -0.1357 H       1  LIG1        0.0654
     49 C          12.6864    2.0034   -0.1547 C.ar    1  LIG1       -0.0476
     50 C          14.0805    2.0338   -0.1991 C.ar    1  LIG1       -0.0496
     51 H          12.1339    2.9390   -0.1655 H       1  LIG1        0.0627
     52 H          15.8385    0.7997   -0.2255 H       1  LIG1        0.0621
     53 O          11.9542   -1.5528   -0.0557 O.3     1  LIG1       -0.5062
     54 H          12.5665   -2.2970   -0.0861 H       1  LIG1        0.2922
     55 C          14.8233    3.3439   -0.2360 C.3     1  LIG1       -0.0397
     56 H          14.8543    3.8142    0.7527 H       1  LIG1        0.0278
     57 H          14.3464    4.0544   -0.9167 H       1  LIG1        0.0278
     58 H          15.8557    3.2059   -0.5655 H       1  LIG1        0.0278
@<TRIPOS>BOND
     1    11    10    1
     2    10     1    1
     3    38    39    1
     4    38    30    1
     5     5     2    1
     6    34    31    1
     7     1     2   ar
     8     1     3   ar
     9     2     4   ar
    10    30    31   ar
    11    30    32   ar
    12    31    33   ar
    13    28    26    1
    14    57    55    1
    15    58    55    1
    16     9     3    1
    17     3     6   ar
    18     4    18    1
    19     4     7   ar
    20    55    50    1
    21    55    56    1
    22    24    16    1
    23    24    25    1
    24    52    47    1
    25    16    18   ar
    26    16    17   ar
    27    50    47   ar
    28    50    49   ar
    29    18    21   ar
    30    20    17    1
    31    47    45   ar
    32    17    19   ar
    33    21    23    1
    34    21    22   ar
    35    51    49    1
    36    19    22   ar
    37    19    32    1
    38    49    46   ar
    39    22    26    1
    40    48    45    1
    41    45    44   ar
    42    32    35   ar
    43    46    44   ar
    44    46    33    1
    45    54    53    1
    46    44    53    1
    47    33    36   ar
    48    26    27    1
    49    26    29    1
    50     6     7   ar
    51     6     8    1
    52     7    12    1
    53    35    36   ar
    54    35    37    1
    55    36    40    1
    56    14    12    1
    57    12    15    1
    58    12    13    1
    59    42    40    1
    60    40    41    1
    61    40    43    1
