@<TRIPOS>MOLECULE
mol_data/opt/cam/geoms/mol2/4fi4fi.out
 30 31 0 0 0
SMALL
GASTEIGER

@<TRIPOS>ATOM
      1 C           0.0536    0.1745   -0.8173 C.ar    1  LIG1        0.1175
      2 C           1.4355    0.1892   -0.6848 C.ar    1  LIG1       -0.0121
      3 C          -0.7007    1.2086   -0.2742 C.ar    1  LIG1       -0.0199
      4 C           2.0829    1.2278   -0.0144 C.ar    1  LIG1       -0.0080
      5 H           2.0282   -0.6204   -1.1024 H       1  LIG1        0.0660
      6 C          -0.0554    2.2322    0.4001 C.ar    1  LIG1       -0.0548
      7 C           1.3324    2.2712    0.5479 C.ar    1  LIG1       -0.0424
      8 H          -0.6499    3.0300    0.8363 H       1  LIG1        0.0622
      9 H          -1.7794    1.1891   -0.3796 H       1  LIG1        0.0654
     10 O          -0.6101   -0.8231   -1.4685 O.3     1  LIG1       -0.5067
     11 H           0.0282   -1.4784   -1.7729 H       1  LIG1        0.2921
     12 C           1.9725    3.4021    1.3139 C.3     1  LIG1       -0.0391
     13 H           1.2265    3.9238    1.9180 H       1  LIG1        0.0278
     14 H           2.4322    4.1433    0.6523 H       1  LIG1        0.0278
     15 H           2.7589    3.0427    1.9818 H       1  LIG1        0.0278
     16 C           4.2505    0.1916    0.7516 C.ar    1  LIG1        0.1246
     17 C           5.6401    0.1946    0.8084 C.ar    1  LIG1       -0.0193
     18 C           3.5718    1.2077    0.0655 C.ar    1  LIG1        0.0242
     19 C           6.3669    1.1975    0.1805 C.ar    1  LIG1       -0.0554
     20 H           6.1565   -0.5925    1.3529 H       1  LIG1        0.0654
     21 C           4.3319    2.1959   -0.5563 C.ar    1  LIG1       -0.0476
     22 C           5.7257    2.2152   -0.5192 C.ar    1  LIG1       -0.0496
     23 H           3.8066    2.9767   -1.0994 H       1  LIG1        0.0627
     24 H           7.4514    1.1830    0.2382 H       1  LIG1        0.0621
     25 O           3.5073   -0.7785    1.3573 O.3     1  LIG1       -0.5062
     26 H           4.0995   -1.3864    1.8149 H       1  LIG1        0.2922
     27 C           6.5052    3.2865   -1.2364 C.3     1  LIG1       -0.0397
     28 H           6.0017    4.2549   -1.1764 H       1  LIG1        0.0278
     29 H           6.6266    3.0496   -2.2990 H       1  LIG1        0.0278
     30 H           7.5053    3.4020   -0.8117 H       1  LIG1        0.0278
@<TRIPOS>BOND
     1    29    27    1
     2    11    10    1
     3    10     1    1
     4    27    28    1
     5    27    30    1
     6    27    22    1
     7     5     2    1
     8    23    21    1
     9     1     2   ar
    10     1     3   ar
    11     2     4   ar
    12    21    22   ar
    13    21    18   ar
    14    22    19   ar
    15     9     3    1
    16     3     6   ar
    17     4    18    1
    18     4     7   ar
    19    18    16   ar
    20    19    24    1
    21    19    17   ar
    22     6     7   ar
    23     6     8    1
    24     7    12    1
    25    14    12    1
    26    16    17   ar
    27    16    25    1
    28    17    20    1
    29    12    13    1
    30    12    15    1
    31    25    26    1
