@<TRIPOS>MOLECULE
mol_data/opt/cam/geoms/mol2/4fi4fi-4fi4fi-.out
 58 61 0 0 0
SMALL
GASTEIGER

@<TRIPOS>ATOM
      1 C          -0.2666    0.3602   -0.8776 C.ar    1  LIG1        0.1175
      2 C           1.1216    0.3124   -0.8430 C.ar    1  LIG1       -0.0121
      3 C          -0.9342    1.3998   -0.2380 C.ar    1  LIG1       -0.0199
      4 C           1.8591    1.2896   -0.1691 C.ar    1  LIG1       -0.0080
      5 H           1.6523   -0.4891   -1.3509 H       1  LIG1        0.0660
      6 C          -0.2018    2.3648    0.4335 C.ar    1  LIG1       -0.0548
      7 C           1.1939    2.3379    0.4911 C.ar    1  LIG1       -0.0424
      8 H          -0.7306    3.1646    0.9438 H       1  LIG1        0.0622
      9 H          -2.0171    1.4319   -0.2725 H       1  LIG1        0.0654
     10 O          -1.0183   -0.5726   -1.5240 O.3     1  LIG1       -0.5067
     11 H          -0.4369   -1.2317   -1.9210 H       1  LIG1        0.2921
     12 C           1.9437    3.3823    1.2805 C.3     1  LIG1       -0.0391
     13 H           1.2490    4.0220    1.8285 H       1  LIG1        0.0278
     14 H           2.5554    4.0228    0.6386 H       1  LIG1        0.0278
     15 H           2.6209    2.9191    2.0032 H       1  LIG1        0.0278
     16 C           4.1343    2.1280   -0.8237 C.ar    1  LIG1        0.1251
     17 C           5.5182    2.0068   -0.8208 C.ar    1  LIG1       -0.0115
     18 C           3.3459    1.1819   -0.1635 C.ar    1  LIG1        0.0242
     19 C           6.1471    0.9428   -0.1799 C.ar    1  LIG1       -0.0080
     20 H           6.1019    2.7508   -1.3512 H       1  LIG1        0.0660
     21 C           3.9924    0.1215    0.4722 C.ar    1  LIG1       -0.0470
     22 C           5.3756   -0.0243    0.4883 C.ar    1  LIG1       -0.0418
     23 H           3.3807   -0.6086    0.9950 H       1  LIG1        0.0628
     24 O           3.5971    3.1877   -1.4917 O.3     1  LIG1       -0.5061
     25 H           2.6351    3.0862   -1.5046 H       1  LIG1        0.2922
     26 C           6.0036   -1.1771    1.2257 C.3     1  LIG1       -0.0391
     27 H           6.8280   -0.8429    1.8620 H       1  LIG1        0.0278
     28 H           6.4122   -1.9124    0.5276 H       1  LIG1        0.0278
     29 H           5.2692   -1.6773    1.8607 H       1  LIG1        0.0278
     30 C           8.3537   -0.1301   -0.8078 C.ar    1  LIG1        0.1251
     31 C           9.7425   -0.1067   -0.8171 C.ar    1  LIG1       -0.0115
     32 C           7.6362    0.9011   -0.1908 C.ar    1  LIG1        0.0242
     33 C          10.4600    0.9325   -0.2227 C.ar    1  LIG1       -0.0080
     34 H          10.2897   -0.9057   -1.3117 H       1  LIG1        0.0660
     35 C           8.3681    1.9330    0.3931 C.ar    1  LIG1       -0.0470
     36 C           9.7622    1.9793    0.4035 C.ar    1  LIG1       -0.0418
     37 H           7.8149    2.7303    0.8808 H       1  LIG1        0.0628
     38 O           7.6518   -1.1309   -1.4114 O.3     1  LIG1       -0.5061
     39 H           8.2704   -1.7507   -1.8156 H       1  LIG1        0.2922
     40 C          10.4793    3.1019    1.1115 C.3     1  LIG1       -0.0391
     41 H           9.7681    3.7398    1.6399 H       1  LIG1        0.0278
     42 H          11.0443    3.7305    0.4172 H       1  LIG1        0.0278
     43 H          11.1953    2.7138    1.8412 H       1  LIG1        0.0278
     44 C          12.6651    1.8401   -1.0051 C.ar    1  LIG1        0.1246
     45 C          14.0552    1.7880   -1.0513 C.ar    1  LIG1       -0.0193
     46 C          11.9496    0.8936   -0.2643 C.ar    1  LIG1        0.0242
     47 C          14.7339    0.7923   -0.3692 C.ar    1  LIG1       -0.0554
     48 H          14.5821    2.5324   -1.6376 H       1  LIG1        0.0654
     49 C          12.6628   -0.1066    0.4011 C.ar    1  LIG1       -0.0476
     50 C          14.0512   -0.1768    0.3697 C.ar    1  LIG1       -0.0496
     51 H          12.1025   -0.8428    0.9711 H       1  LIG1        0.0627
     52 H          15.8191    0.7631   -0.4156 H       1  LIG1        0.0621
     53 O          12.0493    2.8320   -1.7073 O.3     1  LIG1       -0.5062
     54 H          11.0935    2.6863   -1.6735 H       1  LIG1        0.2922
     55 C          14.7995   -1.2502    1.1166 C.3     1  LIG1       -0.0397
     56 H          15.3636   -0.8338    1.9577 H       1  LIG1        0.0278
     57 H          15.5176   -1.7619    0.4689 H       1  LIG1        0.0278
     58 H          14.1179   -2.0031    1.5188 H       1  LIG1        0.0278
@<TRIPOS>BOND
     1    11    10    1
     2    39    38    1
     3    53    54    1
     4    53    44    1
     5    48    45    1
     6    10     1    1
     7    25    24    1
     8    24    16    1
     9    38    30    1
    10    20    17    1
    11     5     2    1
    12    34    31    1
    13    45    44   ar
    14    45    47   ar
    15    44    46   ar
    16     1     2   ar
    17     1     3   ar
    18     2     4   ar
    19    16    17   ar
    20    16    18   ar
    21    17    19   ar
    22    31    30   ar
    23    31    33   ar
    24    30    32   ar
    25    52    47    1
    26    47    50   ar
    27     9     3    1
    28    46    33    1
    29    46    49   ar
    30     3     6   ar
    31    33    36   ar
    32    32    19    1
    33    32    35   ar
    34    19    22   ar
    35     4    18    1
    36     4     7   ar
    37    18    21   ar
    38    50    49   ar
    39    50    55    1
    40    35    36   ar
    41    35    37    1
    42    49    51    1
    43    36    40    1
    44    42    40    1
    45     6     7   ar
    46     6     8    1
    47    57    55    1
    48    21    22   ar
    49    21    23    1
    50    22    26    1
    51     7    12    1
    52    28    26    1
    53    14    12    1
    54    40    41    1
    55    40    43    1
    56    55    58    1
    57    55    56    1
    58    26    29    1
    59    26    27    1
    60    12    13    1
    61    12    15    1
