@<TRIPOS>MOLECULE
mol_data/opt/cam/geoms/mol2/4fi4fi-4fi-4fi-.out
 58 61 0 0 0
SMALL
GASTEIGER

@<TRIPOS>ATOM
      1 C          -0.2904    0.1213   -0.3066 C.ar    1  LIG1        0.1175
      2 C           1.0966    0.0723   -0.2368 C.ar    1  LIG1       -0.0121
      3 C          -0.9328    1.3552   -0.3411 C.ar    1  LIG1       -0.0199
      4 C           1.8560    1.2447   -0.1938 C.ar    1  LIG1       -0.0080
      5 H           1.6075   -0.8872   -0.2223 H       1  LIG1        0.0660
      6 C          -0.1782    2.5154   -0.2941 C.ar    1  LIG1       -0.0548
      7 C           1.2168    2.4967   -0.2166 C.ar    1  LIG1       -0.0424
      8 H          -0.6880    3.4742   -0.3062 H       1  LIG1        0.0622
      9 H          -2.0147    1.3847   -0.3989 H       1  LIG1        0.0654
     10 O          -1.0647   -0.9961   -0.3508 O.3     1  LIG1       -0.5067
     11 H          -0.5021   -1.7787   -0.3193 H       1  LIG1        0.2921
     12 C           1.9905    3.7878   -0.1131 C.3     1  LIG1       -0.0391
     13 H           1.3102    4.6376   -0.0304 H       1  LIG1        0.0278
     14 H           2.6309    3.9553   -0.9839 H       1  LIG1        0.0278
     15 H           2.6408    3.7896    0.7662 H       1  LIG1        0.0278
     16 C           4.1465    1.5464   -1.1782 C.ar    1  LIG1        0.1251
     17 C           5.5293    1.4257   -1.0942 C.ar    1  LIG1       -0.0115
     18 C           3.3402    1.1294   -0.1148 C.ar    1  LIG1        0.0242
     19 C           6.1407    0.8769    0.0348 C.ar    1  LIG1       -0.0080
     20 H           6.1256    1.7349   -1.9465 H       1  LIG1        0.0660
     21 C           3.9662    0.5781    1.0027 C.ar    1  LIG1       -0.0470
     22 C           5.3475    0.4453    1.1136 C.ar    1  LIG1       -0.0418
     23 H           3.3396    0.2610    1.8317 H       1  LIG1        0.0628
     24 O           3.6315    2.0728   -2.3212 O.3     1  LIG1       -0.5061
     25 H           2.6666    2.0060   -2.2860 H       1  LIG1        0.2922
     26 C           5.9481   -0.1282    2.3719 C.3     1  LIG1       -0.0391
     27 H           6.8139    0.4499    2.7035 H       1  LIG1        0.0278
     28 H           6.2911   -1.1578    2.2314 H       1  LIG1        0.0278
     29 H           5.2130   -0.1349    3.1796 H       1  LIG1        0.0278
     30 C           8.4043    1.9524    0.0357 C.ar    1  LIG1        0.1251
     31 C           9.7934    1.8626    0.0617 C.ar    1  LIG1       -0.0115
     32 C           7.6285    0.7883    0.0661 C.ar    1  LIG1        0.0242
     33 C          10.4408    0.6275    0.1045 C.ar    1  LIG1       -0.0080
     34 H          10.3675    2.7824    0.0177 H       1  LIG1        0.0660
     35 C           8.2918   -0.4376    0.1181 C.ar    1  LIG1       -0.0470
     36 C           9.6776   -0.5547    0.1404 C.ar    1  LIG1       -0.0418
     37 H           7.6912   -1.3427    0.1385 H       1  LIG1        0.0628
     38 O           7.8622    3.1962   -0.0116 O.3     1  LIG1       -0.5061
     39 H           6.8985    3.1159   -0.0423 H       1  LIG1        0.2922
     40 C          10.3171   -1.9178    0.2145 C.3     1  LIG1       -0.0391
     41 H          11.1333   -1.9384    0.9406 H       1  LIG1        0.0278
     42 H          10.7419   -2.2253   -0.7459 H       1  LIG1        0.0278
     43 H           9.5818   -2.6718    0.5043 H       1  LIG1        0.0278
     44 C          12.6228    1.1532    1.2180 C.ar    1  LIG1        0.1246
     45 C          14.0158    1.1281    1.2431 C.ar    1  LIG1       -0.0193
     46 C          11.9315    0.6016    0.1330 C.ar    1  LIG1        0.0242
     47 C          14.7194    0.5668    0.1920 C.ar    1  LIG1       -0.0554
     48 H          14.5241    1.5560    2.0999 H       1  LIG1        0.0654
     49 C          12.6716    0.0436   -0.9123 C.ar    1  LIG1       -0.0476
     50 C          14.0609    0.0157   -0.9105 C.ar    1  LIG1       -0.0496
     51 H          12.1326   -0.3700   -1.7603 H       1  LIG1        0.0627
     52 H          15.8054    0.5570    0.2261 H       1  LIG1        0.0621
     53 O          11.9896    1.7160    2.2819 O.3     1  LIG1       -0.5062
     54 H          11.0351    1.6820    2.1284 H       1  LIG1        0.2922
     55 C          14.8360   -0.5741   -2.0599 C.3     1  LIG1       -0.0397
     56 H          15.5621   -1.3162   -1.7143 H       1  LIG1        0.0278
     57 H          15.3947    0.1949   -2.6035 H       1  LIG1        0.0278
     58 H          14.1727   -1.0659   -2.7751 H       1  LIG1        0.0278
@<TRIPOS>BOND
     1    58    55    1
     2    57    55    1
     3    24    25    1
     4    24    16    1
     5    55    56    1
     6    55    50    1
     7    20    17    1
     8    51    49    1
     9    16    17   ar
    10    16    18   ar
    11    17    19   ar
    12    14    12    1
    13    49    50   ar
    14    49    46   ar
    15    50    47   ar
    16    42    40    1
    17     9     3    1
    18    10    11    1
    19    10     1    1
    20     3     1   ar
    21     3     6   ar
    22     1     2   ar
    23     8     6    1
    24     6     7   ar
    25     2     5    1
    26     2     4   ar
    27     7     4   ar
    28     7    12    1
    29     4    18    1
    30    18    21   ar
    31    12    13    1
    32    12    15    1
    33    39    38    1
    34    38    30    1
    35    34    31    1
    36    19    32    1
    37    19    22   ar
    38    30    31   ar
    39    30    32   ar
    40    31    33   ar
    41    32    35   ar
    42    33    46    1
    43    33    36   ar
    44    35    37    1
    45    35    36   ar
    46    46    44   ar
    47    36    40    1
    48    47    52    1
    49    47    45   ar
    50    40    43    1
    51    40    41    1
    52    21    22   ar
    53    21    23    1
    54    22    26    1
    55    44    45   ar
    56    44    53    1
    57    45    48    1
    58    54    53    1
    59    28    26    1
    60    26    27    1
    61    26    29    1
