@<TRIPOS>MOLECULE
mol_data/opt/cam/geoms/mol2/4fi4fi4fi4fi-.out
 58 61 0 0 0
SMALL
GASTEIGER

@<TRIPOS>ATOM
      1 C          -0.0372    2.9821   -0.6309 C.ar    1  LIG1        0.1175
      2 C           1.3371    2.7830   -0.5762 C.ar    1  LIG1       -0.0121
      3 C          -0.8948    1.9403   -0.3001 C.ar    1  LIG1       -0.0199
      4 C           1.8721    1.5492   -0.2010 C.ar    1  LIG1       -0.0080
      5 H           2.0127    3.5929   -0.8410 H       1  LIG1        0.0660
      6 C          -0.3592    0.7201    0.0821 C.ar    1  LIG1       -0.0548
      7 C           1.0158    0.4919    0.1423 C.ar    1  LIG1       -0.0424
      8 H          -1.0341   -0.0872    0.3520 H       1  LIG1        0.0622
      9 H          -1.9658    2.1023   -0.3423 H       1  LIG1        0.0654
     10 O          -0.5914    4.1726   -1.0000 O.3     1  LIG1       -0.5067
     11 H           0.1133    4.7960   -1.2104 H       1  LIG1        0.2921
     12 C           1.5415   -0.8489    0.5816 C.3     1  LIG1       -0.0391
     13 H           0.7458   -1.4490    1.0290 H       1  LIG1        0.0278
     14 H           2.3414   -0.7434    1.3197 H       1  LIG1        0.0278
     15 H           1.9544   -1.4039   -0.2650 H       1  LIG1        0.0278
     16 C           4.0722    0.5586   -0.9637 C.ar    1  LIG1        0.1251
     17 C           5.4577    0.4977   -0.8784 C.ar    1  LIG1       -0.0115
     18 C           3.3550    1.4232   -0.1321 C.ar    1  LIG1        0.0242
     19 C           6.1689    1.2848    0.0264 C.ar    1  LIG1       -0.0080
     20 H           6.0030   -0.1829   -1.5282 H       1  LIG1        0.0660
     21 C           4.0860    2.2166    0.7511 C.ar    1  LIG1       -0.0470
     22 C           5.4740    2.1732    0.8597 C.ar    1  LIG1       -0.0418
     23 H           3.5338    2.9007    1.3892 H       1  LIG1        0.0628
     24 O           3.3766   -0.2002   -1.8594 O.3     1  LIG1       -0.5061
     25 H           3.9971   -0.7361   -2.3668 H       1  LIG1        0.2922
     26 C           6.1827    3.0724    1.8374 C.3     1  LIG1       -0.0391
     27 H           5.5058    3.8399    2.2187 H       1  LIG1        0.0278
     28 H           7.0365    3.5745    1.3737 H       1  LIG1        0.0278
     29 H           6.5657    2.5010    2.6870 H       1  LIG1        0.0278
     30 C           8.3706    0.7244    1.1417 C.ar    1  LIG1        0.1251
     31 C           9.7551    0.6247    1.0884 C.ar    1  LIG1       -0.0115
     32 C           7.6549    1.1842    0.0301 C.ar    1  LIG1        0.0242
     33 C          10.4695    0.9726   -0.0592 C.ar    1  LIG1       -0.0080
     34 H          10.3004    0.2536    1.9529 H       1  LIG1        0.0660
     35 C           8.3830    1.5213   -1.1089 C.ar    1  LIG1       -0.0470
     36 C           9.7732    1.4368   -1.1883 C.ar    1  LIG1       -0.0418
     37 H           7.8323    1.8914   -1.9689 H       1  LIG1        0.0628
     38 O           7.6689    0.3622    2.2519 O.3     1  LIG1       -0.5061
     39 H           8.2826    0.0503    2.9274 H       1  LIG1        0.2922
     40 C          10.4912    1.8829   -2.4377 C.3     1  LIG1       -0.0391
     41 H           9.7883    2.3166   -3.1517 H       1  LIG1        0.0278
     42 H          11.0070    1.0550   -2.9323 H       1  LIG1        0.0278
     43 H          11.2499    2.6361   -2.2080 H       1  LIG1        0.0278
     44 C          12.6015   -0.0888   -0.8534 C.ar    1  LIG1        0.1246
     45 C          13.9883   -0.2030   -0.8235 C.ar    1  LIG1       -0.0193
     46 C          11.9552    0.8523   -0.0454 C.ar    1  LIG1        0.0242
     47 C          14.7322    0.6108    0.0139 C.ar    1  LIG1       -0.0554
     48 H          14.4607   -0.9448   -1.4577 H       1  LIG1        0.0654
     49 C          12.7329    1.6484    0.7992 C.ar    1  LIG1       -0.0476
     50 C          14.1193    1.5522    0.8443 C.ar    1  LIG1       -0.0496
     51 H          12.2262    2.3742    1.4295 H       1  LIG1        0.0627
     52 H          15.8139    0.5094    0.0278 H       1  LIG1        0.0621
     53 O          11.9188   -0.9251   -1.6854 O.3     1  LIG1       -0.5062
     54 H          10.9715   -0.8126   -1.5249 H       1  LIG1        0.2922
     55 C          14.9379    2.4396    1.7455 C.3     1  LIG1       -0.0397
     56 H          15.5331    3.1556    1.1692 H       1  LIG1        0.0278
     57 H          15.6356    1.8571    2.3545 H       1  LIG1        0.0278
     58 H          14.3012    3.0122    2.4237 H       1  LIG1        0.0278
@<TRIPOS>BOND
     1    41    40    1
     2    42    40    1
     3    40    43    1
     4    40    36    1
     5    25    24    1
     6    37    35    1
     7    24    16    1
     8    53    54    1
     9    53    44    1
    10    20    17    1
    11    48    45    1
    12    11    10    1
    13    36    35   ar
    14    36    33   ar
    15    35    32   ar
    16    10     1    1
    17    16    17   ar
    18    16    18   ar
    19    17    19   ar
    20    44    45   ar
    21    44    46   ar
    22     5     2    1
    23    45    47   ar
    24     1     2   ar
    25     1     3   ar
    26     2     4   ar
    27     9     3    1
    28     3     6   ar
    29    15    12    1
    30     4    18    1
    31     4     7   ar
    32    18    21   ar
    33    33    46    1
    34    33    31   ar
    35    46    49   ar
    36    47    52    1
    37    47    50   ar
    38    19    32    1
    39    19    22   ar
    40    32    30   ar
    41     6     7   ar
    42     6     8    1
    43     7    12    1
    44    12    13    1
    45    12    14    1
    46    21    22   ar
    47    21    23    1
    48    49    50   ar
    49    49    51    1
    50    50    55    1
    51    22    26    1
    52    31    30   ar
    53    31    34    1
    54    30    38    1
    55    56    55    1
    56    28    26    1
    57    55    57    1
    58    55    58    1
    59    26    27    1
    60    26    29    1
    61    38    39    1
