@<TRIPOS>MOLECULE
mol_data/opt/cam/geoms/mol2/4fi4fi4fi-4fi-.out
 58 61 0 0 0
SMALL
GASTEIGER

@<TRIPOS>ATOM
      1 C          -0.1908    0.7658   -1.4033 C.ar    1  LIG1        0.1175
      2 C           1.1933    0.7229   -1.3072 C.ar    1  LIG1       -0.0121
      3 C          -0.9312    1.3749   -0.3959 C.ar    1  LIG1       -0.0199
      4 C           1.8563    1.2836   -0.2140 C.ar    1  LIG1       -0.0080
      5 H           1.7751    0.2409   -2.0883 H       1  LIG1        0.0660
      6 C          -0.2706    1.9191    0.6926 C.ar    1  LIG1       -0.0548
      7 C           1.1203    1.8901    0.8147 C.ar    1  LIG1       -0.0424
      8 H          -0.8547    2.3788    1.4848 H       1  LIG1        0.0622
      9 H          -2.0119    1.4023   -0.4764 H       1  LIG1        0.0654
     10 O          -0.8707    0.2317   -2.4568 O.3     1  LIG1       -0.5067
     11 H          -0.2428   -0.1749   -3.0651 H       1  LIG1        0.2921
     12 C           1.7734    2.4809    2.0396 C.3     1  LIG1       -0.0391
     13 H           1.0489    2.5673    2.8526 H       1  LIG1        0.0278
     14 H           2.1732    3.4832    1.8545 H       1  LIG1        0.0278
     15 H           2.6050    1.8663    2.3914 H       1  LIG1        0.0278
     16 C           4.0408    0.0214   -0.1661 C.ar    1  LIG1        0.1251
     17 C           5.4305    0.0122   -0.1542 C.ar    1  LIG1       -0.0115
     18 C           3.3457    1.2371   -0.1853 C.ar    1  LIG1        0.0242
     19 C           6.1685    1.1967   -0.1604 C.ar    1  LIG1       -0.0080
     20 H           5.9610   -0.9369   -0.1457 H       1  LIG1        0.0660
     21 C           4.0989    2.4084   -0.1913 C.ar    1  LIG1       -0.0470
     22 C           5.4934    2.4291   -0.1762 C.ar    1  LIG1       -0.0418
     23 H           3.5658    3.3543   -0.2080 H       1  LIG1        0.0628
     24 O           3.3174   -1.1322   -0.1632 O.3     1  LIG1       -0.5061
     25 H           3.9200   -1.8833   -0.1109 H       1  LIG1        0.2922
     26 C           6.2329    3.7434   -0.1328 C.3     1  LIG1       -0.0391
     27 H           5.5327    4.5759   -0.0412 H       1  LIG1        0.0278
     28 H           6.8332    3.9081   -1.0321 H       1  LIG1        0.0278
     29 H           6.9176    3.7825    0.7190 H       1  LIG1        0.0278
     30 C           8.4090    1.5325   -1.2434 C.ar    1  LIG1        0.1251
     31 C           9.7962    1.4410   -1.2163 C.ar    1  LIG1       -0.0115
     32 C           7.6565    1.1155   -0.1416 C.ar    1  LIG1        0.0242
     33 C          10.4664    0.9229   -0.1065 C.ar    1  LIG1       -0.0080
     34 H          10.3498    1.7486   -2.0975 H       1  LIG1        0.0660
     35 C           8.3405    0.5954    0.9573 C.ar    1  LIG1       -0.0470
     36 C           9.7275    0.4934    1.0115 C.ar    1  LIG1       -0.0418
     37 H           7.7561    0.2787    1.8168 H       1  LIG1        0.0628
     38 O           7.8349    2.0298   -2.3722 O.3     1  LIG1       -0.5061
     39 H           6.8744    1.9407   -2.2951 H       1  LIG1        0.2922
     40 C          10.3942   -0.0457    2.2515 C.3     1  LIG1       -0.0391
     41 H          11.2546    0.5628    2.5401 H       1  LIG1        0.0278
     42 H          10.7639   -1.0655    2.1084 H       1  LIG1        0.0278
     43 H           9.6921   -0.0646    3.0879 H       1  LIG1        0.0278
     44 C          12.7084    2.0365   -0.2131 C.ar    1  LIG1        0.1246
     45 C          14.1003    1.9739   -0.2435 C.ar    1  LIG1       -0.0193
     46 C          11.9558    0.8588   -0.1365 C.ar    1  LIG1        0.0242
     47 C          14.7415    0.7485   -0.2075 C.ar    1  LIG1       -0.0554
     48 H          14.6571    2.9028   -0.2960 H       1  LIG1        0.0654
     49 C          12.6340   -0.3623   -0.1023 C.ar    1  LIG1       -0.0476
     50 C          14.0204   -0.4467   -0.1394 C.ar    1  LIG1       -0.0496
     51 H          12.0471   -1.2756   -0.0588 H       1  LIG1        0.0627
     52 H          15.8274    0.7171   -0.2346 H       1  LIG1        0.0621
     53 O          12.1389    3.2708   -0.2493 O.3     1  LIG1       -0.5062
     54 H          11.1770    3.1705   -0.2331 H       1  LIG1        0.2922
     55 C          14.7275   -1.7769   -0.1170 C.3     1  LIG1       -0.0397
     56 H          15.4481   -1.8339    0.7048 H       1  LIG1        0.0278
     57 H          15.2820   -1.9519   -1.0446 H       1  LIG1        0.0278
     58 H          14.0200   -2.6003    0.0044 H       1  LIG1        0.0278
@<TRIPOS>BOND
     1    11    10    1
     2    10     1    1
     3    38    39    1
     4    38    30    1
     5    34    31    1
     6     5     2    1
     7     1     2   ar
     8     1     3   ar
     9     2     4   ar
    10    30    31   ar
    11    30    32   ar
    12    31    33   ar
    13    57    55    1
    14    28    26    1
    15     9     3    1
    16     3     6   ar
    17    48    45    1
    18    53    54    1
    19    53    44    1
    20    45    44   ar
    21    45    47   ar
    22    52    47    1
    23     4    18    1
    24     4     7   ar
    25    44    46   ar
    26    23    21    1
    27    47    50   ar
    28    21    18   ar
    29    21    22   ar
    30    18    16   ar
    31    22    19   ar
    32    22    26    1
    33    16    24    1
    34    16    17   ar
    35    24    25    1
    36    19    17   ar
    37    19    32    1
    38    17    20    1
    39    32    35   ar
    40    50    55    1
    41    50    49   ar
    42    46    33    1
    43    46    49   ar
    44    26    27    1
    45    26    29    1
    46    55    58    1
    47    55    56    1
    48    33    36   ar
    49    49    51    1
    50     6     7   ar
    51     6     8    1
    52     7    12    1
    53    35    36   ar
    54    35    37    1
    55    36    40    1
    56    14    12    1
    57    12    15    1
    58    12    13    1
    59    42    40    1
    60    40    41    1
    61    40    43    1
