@<TRIPOS>MOLECULE
mol_data/opt/cam/geoms/mol2/4fi6al-4ll13dl.out
 60 63 0 0 0
SMALL
GASTEIGER

@<TRIPOS>ATOM
      1 C          -0.1239    0.0259   -0.8579 C.ar    1  LIG1        0.1175
      2 C           1.2605    0.0854   -0.7006 C.ar    1  LIG1       -0.0122
      3 C          -0.8968    1.1547   -0.5763 C.ar    1  LIG1       -0.0199
      4 C           1.8967    1.2632   -0.2741 C.ar    1  LIG1       -0.0100
      5 H           1.8677   -0.7866   -0.9350 H       1  LIG1        0.0660
      6 C          -0.2669    2.3155   -0.1426 C.ar    1  LIG1       -0.0548
      7 C           1.1235    2.4080    0.0176 C.ar    1  LIG1       -0.0425
      8 H          -0.8767    3.1848    0.0902 H       1  LIG1        0.0622
      9 H          -1.9738    1.1048   -0.6957 H       1  LIG1        0.0654
     10 O          -0.7733   -1.1007   -1.2821 O.3     1  LIG1       -0.5067
     11 H          -0.1222   -1.7919   -1.4606 H       1  LIG1        0.2921
     12 C           1.7241    3.7032    0.5195 C.3     1  LIG1       -0.0391
     13 H           0.9808    4.2741    1.0837 H       1  LIG1        0.0278
     14 H           2.0676    4.3456   -0.3002 H       1  LIG1        0.0278
     15 H           2.5844    3.5305    1.1715 H       1  LIG1        0.0278
     16 C           4.2090    2.1615   -0.7782 C.ar    1  LIG1        0.0362
     17 C           3.3795    1.2366   -0.1346 C.ar    1  LIG1        0.0041
     18 C           4.0088    0.2466    0.6354 C.ar    1  LIG1       -0.0086
     19 C           5.4003    0.2144    0.7231 C.ar    1  LIG1        0.1466
     20 C           6.1506    1.1641   -0.0142 C.ar    1  LIG1        0.1161
     21 N           5.5435    2.1248   -0.7215 N.ar    1  LIG1       -0.2506
     22 H           3.3994   -0.4635    1.1816 H       1  LIG1        0.0661
     23 H           3.7783    2.9502   -1.3896 H       1  LIG1        0.0836
     24 O           6.0982   -0.6428    1.5121 O.3     1  LIG1       -0.4929
     25 C           5.3845   -1.6362    2.2319 C.3     1  LIG1        0.0789
     26 H           6.1368   -2.2130    2.7709 H       1  LIG1        0.0660
     27 H           4.6863   -1.1920    2.9528 H       1  LIG1        0.0660
     28 H           4.8308   -2.3030    1.5589 H       1  LIG1        0.0660
     29 C           8.4404    0.0788   -0.3168 C.ar    1  LIG1        0.1302
     30 C           9.8298    0.1771   -0.2645 C.ar    1  LIG1       -0.0066
     31 C           7.6374    1.1962    0.0070 C.ar    1  LIG1        0.0490
     32 C          10.4827    1.3868    0.0448 C.ar    1  LIG1        0.0448
     33 H          10.4298   -0.6933   -0.4830 H       1  LIG1        0.0662
     34 C           8.2835    2.3961    0.3025 C.ar    1  LIG1       -0.0065
     35 C           9.6706    2.5065    0.3200 C.ar    1  LIG1        0.1301
     36 H           7.6819    3.2681    0.5346 H       1  LIG1        0.0662
     37 O           7.7875   -1.0515   -0.7004 O.3     1  LIG1       -0.4944
     38 C           8.5575   -2.1943   -1.0524 C.3     1  LIG1        0.0788
     39 H           7.8376   -2.9532   -1.3619 H       1  LIG1        0.0660
     40 H           9.2441   -1.9844   -1.8807 H       1  LIG1        0.0660
     41 H           9.1353   -2.5699   -0.1989 H       1  LIG1        0.0660
     42 O          10.2448    3.7327    0.6553 O.3     1  LIG1       -0.4944
     43 C          10.1042    4.7469   -0.3489 C.3     1  LIG1        0.0788
     44 H          10.5571    5.6531    0.0587 H       1  LIG1        0.0660
     45 H          10.6190    4.4591   -1.2734 H       1  LIG1        0.0660
     46 H           9.0497    4.9389   -0.5719 H       1  LIG1        0.0660
     47 C          11.9463    1.4397    0.0759 C.ar    1  LIG1        0.0714
     48 C          12.9273    0.5384   -0.3892 C.ar    1  LIG1        0.1186
     49 C          14.2099    1.1030   -0.0677 C.ar    1  LIG1        0.1552
     50 C          13.9843    2.3025    0.5686 C.ar    1  LIG1        0.0457
     51 N          12.6252    2.4852    0.6358 N.ar    1  LIG1       -0.3565
     52 H          12.1256    3.2769    1.0198 H       1  LIG1        0.1655
     53 H          14.6853    3.0254    0.9540 H       1  LIG1        0.0845
     54 N          12.5762   -1.6690   -1.6804 N.1     1  LIG1       -0.1907
     55 C          12.7246   -0.6672   -1.1004 C.1     1  LIG1        0.1050
     56 O          15.4410    0.6185   -0.3868 O.3     1  LIG1       -0.4923
     57 C          15.7626   -0.6688    0.1526 C.3     1  LIG1        0.0789
     58 H          16.7885   -0.8770   -0.1558 H       1  LIG1        0.0660
     59 H          15.7045   -0.6582    1.2481 H       1  LIG1        0.0660
     60 H          15.1033   -1.4495   -0.2395 H       1  LIG1        0.0660
@<TRIPOS>BOND
     1    40    38    1
     2    54    55    3
     3    11    10    1
     4    23    16    1
     5    39    38    1
     6    10     1    1
     7    45    43    1
     8    55    48    1
     9    38    37    1
    10    38    41    1
    11     5     2    1
    12     1     2   ar
    13     1     3   ar
    14    16    21   ar
    15    16    17   ar
    16    21    20   ar
    17     2     4   ar
    18    37    29    1
    19     9     3    1
    20     3     6   ar
    21    46    43    1
    22    33    30    1
    23    48    49   ar
    24    48    47   ar
    25    56    49    1
    26    56    57    1
    27    43    44    1
    28    43    42    1
    29    29    30   ar
    30    29    31   ar
    31    14    12    1
    32     4    17    1
    33     4     7   ar
    34    30    32   ar
    35    60    57    1
    36    58    57    1
    37     6     7   ar
    38     6     8    1
    39    17    18   ar
    40    49    50   ar
    41    20    31    1
    42    20    19   ar
    43    31    34   ar
    44     7    12    1
    45    32    47    1
    46    32    35   ar
    47    47    51   ar
    48    57    59    1
    49    34    35   ar
    50    34    36    1
    51    35    42    1
    52    12    13    1
    53    12    15    1
    54    50    51   ar
    55    50    53    1
    56    18    19   ar
    57    18    22    1
    58    51    52    1
    59    19    24    1
    60    24    25    1
    61    28    25    1
    62    25    26    1
    63    25    27    1
