@<TRIPOS>MOLECULE
mol_data/opt/cam/geoms/mol2/4fi6aa-12df6li.out
 50 53 0 0 0
SMALL
GASTEIGER

@<TRIPOS>ATOM
      1 C          -0.1967    0.3268   -0.7838 C.ar    1  LIG1        0.1175
      2 C           1.1893    0.3973   -0.7455 C.ar    1  LIG1       -0.0122
      3 C          -0.9458    1.0751    0.1186 C.ar    1  LIG1       -0.0199
      4 C           1.8464    1.2140    0.1806 C.ar    1  LIG1       -0.0101
      5 H           1.7779   -0.1738   -1.4593 H       1  LIG1        0.0660
      6 C          -0.2916    1.8730    1.0414 C.ar    1  LIG1       -0.0548
      7 C           1.1009    1.9681    1.1004 C.ar    1  LIG1       -0.0425
      8 H          -0.8822    2.4408    1.7545 H       1  LIG1        0.0622
      9 H          -2.0275    1.0137    0.0867 H       1  LIG1        0.0654
     10 O          -0.8699   -0.4490   -1.6765 O.3     1  LIG1       -0.5067
     11 H          -0.2385   -0.9110   -2.2401 H       1  LIG1        0.2921
     12 C           1.7357    2.8398    2.1559 C.3     1  LIG1       -0.0391
     13 H           1.0606    2.9568    3.0067 H       1  LIG1        0.0278
     14 H           1.9587    3.8447    1.7827 H       1  LIG1        0.0278
     15 H           2.6724    2.4188    2.5266 H       1  LIG1        0.0278
     16 C           4.0601    2.4187    0.0437 C.ar    1  LIG1        0.0361
     17 C           3.3314    1.2294    0.1536 C.ar    1  LIG1        0.0006
     18 C           4.0728    0.0493    0.1920 C.ar    1  LIG1       -0.0505
     19 C           5.4556    0.0950    0.1325 C.ar    1  LIG1       -0.0321
     20 C           6.0760    1.3421    0.0296 C.ar    1  LIG1        0.1074
     21 N           5.3821    2.4854   -0.0163 N.ar    1  LIG1       -0.2512
     22 H           3.5642   -0.9051    0.2829 H       1  LIG1        0.0625
     23 H           3.5343    3.3685   -0.0149 H       1  LIG1        0.0836
     24 H           6.0350   -0.8186    0.1699 H       1  LIG1        0.0640
     25 C           7.5339    1.4709   -0.0364 C.ar    1  LIG1        0.1748
     26 C           8.5653    0.5544   -0.0615 C.ar    1  LIG1        0.1409
     27 C           9.7695    1.3200   -0.1259 C.ar    1  LIG1        0.1813
     28 C           9.4041    2.6337   -0.1332 C.ar    1  LIG1        0.1834
     29 O           8.0398    2.7105   -0.0836 O.2     1  LIG1       -0.4480
     30 N           8.4217   -2.0170   -0.0334 N.1     1  LIG1       -0.1906
     31 C           8.4897   -0.8613   -0.0462 C.1     1  LIG1        0.1067
     32 O          10.9980    0.7637   -0.1802 O.3     1  LIG1       -0.5023
     33 H          11.6397    1.4404   -0.4328 H       1  LIG1        0.2923
     34 C           9.8981    4.9612   -0.9753 C.ar    1  LIG1        0.2255
     35 C          10.2138    3.8448   -0.1625 C.ar    1  LIG1        0.0826
     36 C          11.3772    3.9342    0.5887 C.ar    1  LIG1       -0.0415
     37 C          12.1916    5.0711    0.5339 C.ar    1  LIG1       -0.0314
     38 C          11.7581    6.0938   -0.2917 C.ar    1  LIG1        0.0343
     39 N          10.6408    6.0469   -1.0279 N.ar    1  LIG1       -0.2205
     40 H          11.6411    3.1129    1.2509 H       1  LIG1        0.0629
     41 H          12.3377    7.0111   -0.3727 H       1  LIG1        0.0833
     42 O           8.7894    4.8759   -1.7218 O.3     1  LIG1       -0.4792
     43 C           8.4575    6.0030   -2.5241 C.3     1  LIG1        0.0804
     44 H           7.5332    5.7330   -3.0327 H       1  LIG1        0.0660
     45 H           8.3068    6.8913   -1.9067 H       1  LIG1        0.0660
     46 H           9.2465    6.2146   -3.2495 H       1  LIG1        0.0660
     47 C          13.4539    5.1819    1.3431 C.3     1  LIG1       -0.0383
     48 H          13.9274    6.1553    1.1982 H       1  LIG1        0.0278
     49 H          14.1813    4.4142    1.0615 H       1  LIG1        0.0278
     50 H          13.2549    5.0645    2.4125 H       1  LIG1        0.0278
@<TRIPOS>BOND
     1    46    43    1
     2    44    43    1
     3    43    45    1
     4    43    42    1
     5    11    10    1
     6    42    34    1
     7    10     1    1
     8     5     2    1
     9    39    34   ar
    10    39    38   ar
    11    34    35   ar
    12     1     2   ar
    13     1     3   ar
    14     2     4   ar
    15    33    32    1
    16    41    38    1
    17    38    37   ar
    18    32    27    1
    19    35    28    1
    20    35    36   ar
    21    28    27   ar
    22    28    29   ar
    23    27    26   ar
    24    29    25   ar
    25    26    31    1
    26    26    25   ar
    27    31    30    3
    28    25    20    1
    29    21    20   ar
    30    21    16   ar
    31    23    16    1
    32    20    19   ar
    33    16    17   ar
    34     9     3    1
    35     3     6   ar
    36    19    24    1
    37    19    18   ar
    38    17     4    1
    39    17    18   ar
    40     4     7   ar
    41    18    22    1
    42    37    36   ar
    43    37    47    1
    44    36    40    1
    45     6     7   ar
    46     6     8    1
    47    49    47    1
    48     7    12    1
    49    48    47    1
    50    47    50    1
    51    14    12    1
    52    12    15    1
    53    12    13    1
