@<TRIPOS>MOLECULE
mol_data/opt/cam/geoms/mol2/4fl.out
 17 17 0 0 0
SMALL
GASTEIGER

@<TRIPOS>ATOM
      1 C           0.0313   -0.0092    0.0004 C.ar    1  LIG1        0.1171
      2 C           1.4153   -0.0887    0.0001 C.ar    1  LIG1       -0.0167
      3 C          -0.5840    1.2436    0.0003 C.ar    1  LIG1       -0.0167
      4 C           2.1935    1.0699   -0.0004 C.ar    1  LIG1       -0.0165
      5 H           1.9046   -1.0595    0.0002 H       1  LIG1        0.0655
      6 C           0.1834    2.3920   -0.0002 C.ar    1  LIG1       -0.0165
      7 C           1.5790    2.3160   -0.0006 C.ar    1  LIG1        0.1203
      8 H          -0.2786    3.3728   -0.0003 H       1  LIG1        0.0655
      9 H           3.2721    0.9771   -0.0007 H       1  LIG1        0.0655
     10 H          -1.6669    1.2942    0.0006 H       1  LIG1        0.0655
     11 O          -0.7798   -1.1084    0.0009 O.3     1  LIG1       -0.5068
     12 H          -0.2355   -1.9039    0.0010 H       1  LIG1        0.2921
     13 O           2.2393    3.5104   -0.0010 O.3     1  LIG1       -0.4951
     14 C           3.6475    3.4821   -0.0014 C.3     1  LIG1        0.0788
     15 H           3.9752    4.5217   -0.0018 H       1  LIG1        0.0660
     16 H           4.0441    2.9821    0.8909 H       1  LIG1        0.0660
     17 H           4.0436    2.9816   -0.8937 H       1  LIG1        0.0660
@<TRIPOS>BOND
     1    17    14    1
     2    15    14    1
     3    14    13    1
     4    14    16    1
     5    13     7    1
     6     9     4    1
     7     7     4   ar
     8     7     6   ar
     9     4     2   ar
    10     8     6    1
    11     6     3   ar
    12     2     5    1
    13     2     1   ar
    14     3     1   ar
    15     3    10    1
    16     1    11    1
    17    11    12    1
