@<TRIPOS>MOLECULE
mol_data/opt/cam/geoms/mol2/4fl12ia-6ld-4eh-.out
 55 58 0 0 0
SMALL
GASTEIGER

@<TRIPOS>ATOM
      1 C          -0.2662    0.4458   -0.5397 C.ar    1  LIG1        0.1178
      2 C           1.1020    0.5800   -0.7846 C.ar    1  LIG1       -0.0060
      3 C          -0.8212    1.0487    0.5877 C.ar    1  LIG1       -0.0167
      4 C           1.9352    1.2973    0.0861 C.ar    1  LIG1        0.0626
      5 H           1.5365    0.1458   -1.6814 H       1  LIG1        0.0662
      6 C          -0.0101    1.7690    1.4646 C.ar    1  LIG1       -0.0158
      7 C           1.3635    1.8963    1.2336 C.ar    1  LIG1        0.1310
      8 H          -0.4618    2.2223    2.3384 H       1  LIG1        0.0655
      9 H          -1.8859    0.9514    0.7702 H       1  LIG1        0.0655
     10 O          -1.1052   -0.2465   -1.3743 O.3     1  LIG1       -0.5067
     11 H          -0.5922   -0.6033   -2.1107 H       1  LIG1        0.2921
     12 O           2.2216    2.5516    2.0691 O.3     1  LIG1       -0.4944
     13 C           1.6938    3.1623    3.2334 C.3     1  LIG1        0.0788
     14 H           2.5428    3.6218    3.7413 H       1  LIG1        0.0660
     15 H           0.9584    3.9394    2.9872 H       1  LIG1        0.0660
     16 H           1.2271    2.4280    3.9033 H       1  LIG1        0.0660
     17 C           3.3706    1.3827   -0.2014 C.ar    1  LIG1        0.1422
     18 C           4.2992    0.4343   -0.5711 C.ar    1  LIG1       -0.0040
     19 C           5.5302    1.1411   -0.7294 C.ar    1  LIG1       -0.0122
     20 C           5.2807    2.4609   -0.4490 C.ar    1  LIG1        0.1411
     21 O           3.9648    2.6143   -0.1281 O.2     1  LIG1       -0.4543
     22 C           4.0951   -1.0418   -0.7438 C.3     1  LIG1       -0.0361
     23 H           4.8926   -1.6056   -0.2483 H       1  LIG1        0.0279
     24 H           4.1058   -1.3341   -1.8012 H       1  LIG1        0.0279
     25 H           3.1414   -1.3634   -0.3186 H       1  LIG1        0.0279
     26 H           6.4796    0.7186   -1.0284 H       1  LIG1        0.0658
     27 C           5.7546    4.9553   -0.6962 C.ar    1  LIG1        0.2260
     28 C           6.1650    3.6197   -0.4154 C.ar    1  LIG1        0.0800
     29 C           7.5198    3.4574   -0.1453 C.ar    1  LIG1       -0.0265
     30 C           8.4008    4.5529   -0.1370 C.ar    1  LIG1        0.0786
     31 C           7.8733    5.8364   -0.3788 C.ar    1  LIG1        0.0934
     32 N           6.5733    5.9987   -0.6711 N.ar    1  LIG1       -0.2110
     33 H           7.9072    2.4679    0.0710 H       1  LIG1        0.0640
     34 O           4.4670    5.1531   -1.0171 O.3     1  LIG1       -0.4792
     35 C           4.0506    6.4955   -1.2942 C.3     1  LIG1        0.0804
     36 H           2.9831    6.4225   -1.5027 H       1  LIG1        0.0660
     37 H           4.2318    7.1470   -0.4358 H       1  LIG1        0.0660
     38 H           4.5825    6.9019   -2.1587 H       1  LIG1        0.0660
     39 N          10.9267    4.0645    0.1898 N.1     1  LIG1       -0.1908
     40 C           9.7977    4.3153    0.0617 C.1     1  LIG1        0.1013
     41 C           9.4365    7.4942    0.7542 C.ar    1  LIG1        0.0340
     42 C          10.1926    8.6780    0.6525 C.ar    1  LIG1       -0.0440
     43 C           8.7068    7.0721   -0.3841 C.ar    1  LIG1        0.0188
     44 C          10.2305    9.4202   -0.5168 C.ar    1  LIG1       -0.0399
     45 H          10.7524    9.0108    1.5201 H       1  LIG1        0.0630
     46 C           8.7288    7.8397   -1.5486 C.ar    1  LIG1       -0.0307
     47 C           9.4917    9.0133   -1.6423 C.ar    1  LIG1        0.0252
     48 H           8.1404    7.5117   -2.4005 H       1  LIG1        0.0643
     49 H          10.8260   10.3282   -0.5628 H       1  LIG1        0.0636
     50 C           9.3868    6.8010    2.0012 C.1     1  LIG1       -0.0690
     51 C           9.3525    6.2545    3.0810 C.1     1  LIG1       -0.1139
     52 H           9.3348    5.7498    4.0187 H       1  LIG1        0.1232
     53 N           9.4734    9.7832   -2.8006 N.pl3   1  LIG1       -0.3579
     54 H          10.2696   10.3906   -2.9342 H       1  LIG1        0.1423
     55 H           9.2173    9.2945   -3.6469 H       1  LIG1        0.1423
@<TRIPOS>BOND
     1    55    53    1
     2    54    53    1
     3    53    47    1
     4    48    46    1
     5    38    35    1
     6    11    10    1
     7    24    22    1
     8     5     2    1
     9    47    46   ar
    10    47    44   ar
    11    46    43   ar
    12    36    35    1
    13    10     1    1
    14    35    34    1
    15    35    37    1
    16    26    19    1
    17    34    27    1
    18     2     1   ar
    19     2     4   ar
    20    22    18    1
    21    22    25    1
    22    22    23    1
    23    19    18   ar
    24    19    20   ar
    25    27    32   ar
    26    27    28   ar
    27    32    31   ar
    28    18    17   ar
    29    49    44    1
    30     1     3   ar
    31    44    42   ar
    32    20    28    1
    33    20    21   ar
    34    28    29   ar
    35    43    31    1
    36    43    41   ar
    37    31    30   ar
    38    17    21   ar
    39    17     4    1
    40    29    30   ar
    41    29    33    1
    42    30    40    1
    43    40    39    3
    44     4     7   ar
    45     3     9    1
    46     3     6   ar
    47    42    41   ar
    48    42    45    1
    49    41    50    1
    50     7     6   ar
    51     7    12    1
    52     6     8    1
    53    50    51    3
    54    12    13    1
    55    15    13    1
    56    51    52    1
    57    13    14    1
    58    13    16    1
