@<TRIPOS>MOLECULE
mol_data/opt/cam/geoms/mol2/4fl13hh-6fa-4df-.out
 51 54 0 0 0
SMALL
GASTEIGER

@<TRIPOS>ATOM
      1 C          -0.1840   -0.0079    0.2761 C.ar    1  LIG1        0.1177
      2 C           1.2018    0.0026    0.1364 C.ar    1  LIG1       -0.0075
      3 C          -0.8894    1.1938    0.3270 C.ar    1  LIG1       -0.0167
      4 C           1.9315    1.2035    0.0484 C.ar    1  LIG1        0.0452
      5 H           1.7561   -0.9308    0.1037 H       1  LIG1        0.0662
      6 C          -0.1915    2.3973    0.2484 C.ar    1  LIG1       -0.0159
      7 C           1.1975    2.4181    0.1145 C.ar    1  LIG1        0.1295
      8 H          -0.7471    3.3255    0.2961 H       1  LIG1        0.0655
      9 H          -1.9687    1.1796    0.4304 H       1  LIG1        0.0655
     10 O          -0.9019   -1.1716    0.3664 O.3     1  LIG1       -0.5067
     11 H          -0.2879   -1.9171    0.3430 H       1  LIG1        0.2921
     12 O           1.9182    3.5954    0.0443 O.3     1  LIG1       -0.4944
     13 C           1.2202    4.8330    0.0487 C.3     1  LIG1        0.0788
     14 H           1.9841    5.6049   -0.0554 H       1  LIG1        0.0660
     15 H           0.5203    4.9000   -0.7927 H       1  LIG1        0.0660
     16 H           0.6734    4.9856    0.9873 H       1  LIG1        0.0660
     17 C           3.3878    1.1500   -0.0899 C.ar    1  LIG1        0.0733
     18 C           4.2597    0.0719   -0.2898 C.ar    1  LIG1        0.0719
     19 C           5.5925    0.5724   -0.2757 C.ar    1  LIG1        0.0719
     20 C           5.5315    1.9478   -0.0607 C.ar    1  LIG1        0.0748
     21 N           4.1808    2.2783   -0.0010 N.ar    1  LIG1       -0.3510
     22 H           3.8063    3.1311    0.3906 H       1  LIG1        0.1660
     23 N           3.9101   -1.2936   -0.4762 N.pl3   1  LIG1       -0.3549
     24 H           3.6829   -1.5167   -1.4426 H       1  LIG1        0.1424
     25 H           4.6656   -1.9013   -0.1735 H       1  LIG1        0.1424
     26 N           6.7278   -0.2329   -0.4570 N.pl3   1  LIG1       -0.3549
     27 H           6.5987   -0.9074   -1.2054 H       1  LIG1        0.1424
     28 H           7.5674    0.3057   -0.6383 H       1  LIG1        0.1424
     29 C           6.4399    4.2486   -0.5756 C.ar    1  LIG1        0.2223
     30 C           6.5869    2.9464   -0.0092 C.ar    1  LIG1        0.0615
     31 C           7.8306    2.6870    0.5801 C.ar    1  LIG1       -0.0454
     32 C           8.8401    3.6471    0.5824 C.ar    1  LIG1       -0.0348
     33 C           8.5855    4.8883   -0.0090 C.ar    1  LIG1        0.0762
     34 N           7.3850    5.1666   -0.5621 N.ar    1  LIG1       -0.2124
     35 H           7.9917    1.7368    1.0805 H       1  LIG1        0.0626
     36 O           5.2824    4.6377   -1.1760 O.3     1  LIG1       -0.4919
     37 H           4.7154    3.8593   -1.3023 H       1  LIG1        0.2937
     38 H           9.7851    3.4308    1.0607 H       1  LIG1        0.0639
     39 C          10.9774    5.8455   -0.0047 C.ar    1  LIG1        0.0611
     40 C          11.8124    6.9812   -0.0203 C.ar    1  LIG1       -0.0403
     41 C           9.5678    6.0070   -0.0381 C.ar    1  LIG1        0.0213
     42 C          11.2910    8.2620   -0.0771 C.ar    1  LIG1       -0.0189
     43 H          12.8872    6.8357    0.0011 H       1  LIG1        0.0632
     44 C           9.0613    7.3103   -0.1150 C.ar    1  LIG1       -0.0098
     45 C           9.9005    8.4238   -0.1337 C.ar    1  LIG1        0.1176
     46 H           7.9836    7.4284   -0.1717 H       1  LIG1        0.0661
     47 H          11.9326    9.1357   -0.0890 H       1  LIG1        0.0654
     48 N          12.2170    3.5656   -0.0230 N.1     1  LIG1       -0.1908
     49 C          11.6309    4.5722   -0.0126 C.1     1  LIG1        0.0998
     50 O           9.4209    9.6948   -0.2010 O.3     1  LIG1       -0.5067
     51 H           8.4558    9.6672   -0.2537 H       1  LIG1        0.2921
@<TRIPOS>BOND
     1    24    23    1
     2    37    36    1
     3    27    26    1
     4    36    29    1
     5    15    13    1
     6    28    26    1
     7    29    34   ar
     8    29    30   ar
     9    34    33   ar
    10    23    18    1
    11    23    25    1
    12    26    19    1
    13    18    19   ar
    14    18    17   ar
    15    19    20   ar
    16    51    50    1
    17    50    45    1
    18    46    44    1
    19    45    44   ar
    20    45    42   ar
    21    44    41   ar
    22    17    21   ar
    23    17     4    1
    24    47    42    1
    25    42    40   ar
    26    20    30    1
    27    20    21   ar
    28    14    13    1
    29    41    33    1
    30    41    39   ar
    31    48    49    3
    32    40    39   ar
    33    40    43    1
    34    49    39    1
    35    30    31   ar
    36    33    32   ar
    37    21    22    1
    38    12    13    1
    39    12     7    1
    40     4     7   ar
    41     4     2   ar
    42    13    16    1
    43     5     2    1
    44     7     6   ar
    45     2     1   ar
    46     6     8    1
    47     6     3   ar
    48     1     3   ar
    49     1    10    1
    50     3     9    1
    51    11    10    1
    52    31    32   ar
    53    31    35    1
    54    32    38    1
