@<TRIPOS>MOLECULE
mol_data/opt/cam/geoms/mol2/4fl6hi-6dh-6ia.out
 55 58 0 0 0
SMALL
GASTEIGER

@<TRIPOS>ATOM
      1 C          -0.0508    0.1471   -1.0516 C.ar    1  LIG1        0.1177
      2 C           1.3329    0.2636   -0.9059 C.ar    1  LIG1       -0.0089
      3 C          -0.8747    1.1886   -0.6271 C.ar    1  LIG1       -0.0167
      4 C           1.9266    1.4043   -0.3451 C.ar    1  LIG1        0.0305
      5 H           1.9806   -0.5400   -1.2487 H       1  LIG1        0.0661
      6 C          -0.3093    2.3328   -0.0680 C.ar    1  LIG1       -0.0159
      7 C           1.0763    2.4489    0.0767 C.ar    1  LIG1        0.1281
      8 H          -0.9630    3.1323    0.2588 H       1  LIG1        0.0655
      9 H          -1.9493    1.0976   -0.7418 H       1  LIG1        0.0655
     10 O          -0.6478   -0.9554   -1.6032 O.3     1  LIG1       -0.5067
     11 H           0.0355   -1.5856   -1.8655 H       1  LIG1        0.2921
     12 O           1.6906    3.5530    0.6231 O.3     1  LIG1       -0.4945
     13 C           0.8842    4.5395    1.2534 C.3     1  LIG1        0.0788
     14 H           1.5788    5.2588    1.6890 H       1  LIG1        0.0660
     15 H           0.2334    5.0548    0.5356 H       1  LIG1        0.0660
     16 H           0.2683    4.1003    2.0471 H       1  LIG1        0.0660
     17 C           4.2652    2.4428   -0.6715 C.ar    1  LIG1        0.1247
     18 C           3.4054    1.4228   -0.1714 C.ar    1  LIG1        0.0255
     19 C           4.0306    0.3488    0.4594 C.ar    1  LIG1       -0.0457
     20 C           5.4219    0.2442    0.5894 C.ar    1  LIG1       -0.0237
     21 C           6.1639    1.2952    0.0242 C.ar    1  LIG1        0.0788
     22 N           5.5956    2.3520   -0.5731 N.ar    1  LIG1       -0.2315
     23 H           3.4046   -0.4304    0.8876 H       1  LIG1        0.0628
     24 N           3.7874    3.5460   -1.3497 N.pl3   1  LIG1       -0.3426
     25 H           4.5138    4.2390   -1.4816 H       1  LIG1        0.1437
     26 H           2.9291    3.9286   -0.9730 H       1  LIG1        0.1437
     27 C           6.0264   -0.9229    1.3365 C.3     1  LIG1       -0.0377
     28 H           6.9462   -0.6443    1.8566 H       1  LIG1        0.0278
     29 H           6.2712   -1.7626    0.6732 H       1  LIG1        0.0278
     30 H           5.3220   -1.3021    2.0829 H       1  LIG1        0.0278
     31 C           8.3558    2.4873    0.5032 C.ar    1  LIG1        0.1500
     32 C           7.6547    1.3448    0.0551 C.ar    1  LIG1        0.0383
     33 C           8.4270    0.2842   -0.4105 C.ar    1  LIG1       -0.0270
     34 C           9.8269    0.3539   -0.4259 C.ar    1  LIG1        0.0517
     35 C          10.4298    1.5445    0.0674 C.ar    1  LIG1        0.0947
     36 N           9.6940    2.5657    0.5059 N.ar    1  LIG1       -0.2338
     37 H           7.9360   -0.6039   -0.7979 H       1  LIG1        0.0644
     38 N           7.1746    4.5913    1.4837 N.1     1  LIG1       -0.1893
     39 C           7.6765    3.6464    1.0283 C.1     1  LIG1        0.1198
     40 N          10.5808   -0.7133   -0.8816 N.pl3   1  LIG1       -0.3563
     41 H          10.1066   -1.3619   -1.4939 H       1  LIG1        0.1424
     42 H          11.5256   -0.5014   -1.1701 H       1  LIG1        0.1424
     43 C          12.5733    2.8113   -0.4680 C.ar    1  LIG1        0.0474
     44 C          11.9131    1.7045    0.1224 C.ar    1  LIG1        0.0232
     45 C          12.6940    0.7620    0.8031 C.ar    1  LIG1       -0.0494
     46 C          14.0734    0.9338    0.8885 C.ar    1  LIG1       -0.0430
     47 C          14.6258    2.0557    0.2779 C.ar    1  LIG1        0.0279
     48 N          13.9038    2.9663   -0.3853 N.ar    1  LIG1       -0.2595
     49 H          12.2161   -0.0928    1.2729 H       1  LIG1        0.0625
     50 H          15.6988    2.2359    0.3179 H       1  LIG1        0.0829
     51 C          11.8338    3.8814   -1.2307 C.3     1  LIG1       -0.0217
     52 H          11.2235    4.4872   -0.5550 H       1  LIG1        0.0293
     53 H          11.1504    3.4530   -1.9713 H       1  LIG1        0.0293
     54 H          12.5597    4.5209   -1.7343 H       1  LIG1        0.0293
     55 H          14.6987    0.2230    1.4189 H       1  LIG1        0.0633
@<TRIPOS>BOND
     1    53    51    1
     2    11    10    1
     3    54    51    1
     4    10     1    1
     5    41    40    1
     6    25    24    1
     7    24    26    1
     8    24    17    1
     9     5     2    1
    10    51    52    1
    11    51    43    1
    12    42    40    1
    13     1     2   ar
    14     1     3   ar
    15     2     4   ar
    16    40    34    1
    17    37    33    1
    18     9     3    1
    19    17    22   ar
    20    17    18   ar
    21     3     6   ar
    22    22    21   ar
    23    43    48   ar
    24    43    44   ar
    25    34    33   ar
    26    34    35   ar
    27    33    32   ar
    28    48    47   ar
    29     4    18    1
    30     4     7   ar
    31    18    19   ar
    32     6     7   ar
    33     6     8    1
    34    21    32    1
    35    21    20   ar
    36    32    31   ar
    37    35    44    1
    38    35    36   ar
    39     7    12    1
    40    44    45   ar
    41    47    50    1
    42    47    46   ar
    43    19    20   ar
    44    19    23    1
    45    31    36   ar
    46    31    39    1
    47    15    13    1
    48    20    27    1
    49    12    13    1
    50    29    27    1
    51    45    46   ar
    52    45    49    1
    53    46    55    1
    54    39    38    3
    55    13    14    1
    56    13    16    1
    57    27    28    1
    58    27    30    1
