@<TRIPOS>MOLECULE
mol_data/opt/cam/geoms/mol2/4ga.out
 13 13 0 0 0
SMALL
GASTEIGER

@<TRIPOS>ATOM
      1 C           0.1272    0.1026    0.0004 C.ar    1  LIG1        0.0047
      2 C           1.5208    0.0940   -0.0000 C.ar    1  LIG1       -0.0486
      3 C          -0.5531    1.3202    0.0003 C.ar    1  LIG1       -0.0486
      4 C           2.2229    1.2931   -0.0005 C.ar    1  LIG1       -0.0607
      5 H           2.0618   -0.8468    0.0001 H       1  LIG1        0.0628
      6 C           0.1567    2.5132   -0.0002 C.ar    1  LIG1       -0.0607
      7 C           1.5470    2.5067   -0.0005 C.ar    1  LIG1       -0.0617
      8 H          -0.3834    3.4544   -0.0002 H       1  LIG1        0.0618
      9 H           3.3080    1.2736   -0.0007 H       1  LIG1        0.0618
     10 H          -1.6383    1.3343    0.0006 H       1  LIG1        0.0628
     11 S          -0.8439   -1.3895    0.0009 S.3     1  LIG1       -0.1426
     12 H           0.1837   -2.2529    0.0009 H       1  LIG1        0.1071
     13 H           2.0988    3.4404   -0.0009 H       1  LIG1        0.0618
@<TRIPOS>BOND
     1    13     7    1
     2     9     4    1
     3     7     4   ar
     4     7     6   ar
     5     4     2   ar
     6     8     6    1
     7     6     3   ar
     8     2     5    1
     9     2     1   ar
    10     3     1   ar
    11     3    10    1
    12     1    11    1
    13    12    11    1
