@<TRIPOS>MOLECULE
mol_data/opt/cam/geoms/mol2/4ga4ga4ga4ga.out
 46 49 0 0 0
SMALL
GASTEIGER

@<TRIPOS>ATOM
      1 C          -0.2561    1.1799    0.7849 C.ar    1  LIG1        0.0053
      2 C           1.1297    1.0718    0.8677 C.ar    1  LIG1       -0.0408
      3 C          -0.8665    1.3014   -0.4624 C.ar    1  LIG1       -0.0485
      4 C           1.9143    1.0692   -0.2867 C.ar    1  LIG1       -0.0158
      5 H           1.6121    1.0041    1.8371 H       1  LIG1        0.0635
      6 C          -0.0876    1.3170   -1.6108 C.ar    1  LIG1       -0.0602
      7 C           1.2935    1.2003   -1.5300 C.ar    1  LIG1       -0.0539
      8 H          -0.5660    1.4094   -2.5804 H       1  LIG1        0.0618
      9 H          -1.9465    1.3779   -0.5339 H       1  LIG1        0.0628
     10 S          -1.2971    1.2047    2.2280 S.3     1  LIG1       -0.1426
     11 H          -0.3691    0.7889    3.1039 H       1  LIG1        0.1071
     12 H           1.8969    1.1937   -2.4313 H       1  LIG1        0.0624
     13 C           4.0620   -0.0819    0.4353 C.ar    1  LIG1        0.0130
     14 C           5.4552   -0.0987    0.4829 C.ar    1  LIG1       -0.0402
     15 C           3.3969    0.9787   -0.1995 C.ar    1  LIG1       -0.0047
     16 C           6.2163    0.9078   -0.1083 C.ar    1  LIG1       -0.0158
     17 H           5.9634   -0.9085    0.9955 H       1  LIG1        0.0635
     18 C           4.1705    1.9839   -0.7839 C.ar    1  LIG1       -0.0524
     19 C           5.5546    1.9582   -0.7448 C.ar    1  LIG1       -0.0534
     20 H           3.6607    2.8067   -1.2744 H       1  LIG1        0.0624
     21 S           3.1185   -1.4160    1.1528 S.3     1  LIG1       -0.1420
     22 H           4.1729   -2.2151    1.3804 H       1  LIG1        0.1071
     23 H           6.1288    2.7482   -1.2165 H       1  LIG1        0.0624
     24 C           8.4824   -0.1779   -0.4888 C.ar    1  LIG1        0.0130
     25 C           9.8710   -0.1236   -0.3762 C.ar    1  LIG1       -0.0402
     26 C           7.7013    0.8939   -0.0286 C.ar    1  LIG1       -0.0047
     27 C          10.5149    0.9872    0.1652 C.ar    1  LIG1       -0.0158
     28 H          10.4686   -0.9643   -0.7116 H       1  LIG1        0.0635
     29 C           8.3580    1.9995    0.5163 C.ar    1  LIG1       -0.0524
     30 C           9.7383    2.0551    0.6155 C.ar    1  LIG1       -0.0534
     31 H           7.7584    2.8298    0.8751 H       1  LIG1        0.0624
     32 S           7.6933   -1.5906   -1.2417 S.3     1  LIG1       -0.1420
     33 H           8.8272   -2.1490   -1.6936 H       1  LIG1        0.1071
     34 H          10.2206    2.9311    1.0354 H       1  LIG1        0.0624
     35 C          12.8667    0.8722   -0.7863 C.ar    1  LIG1        0.0124
     36 C          14.2462    0.9144   -0.5803 C.ar    1  LIG1       -0.0480
     37 C          11.9959    1.0230    0.3050 C.ar    1  LIG1       -0.0047
     38 C          14.7694    1.1158    0.6883 C.ar    1  LIG1       -0.0607
     39 H          14.9202    0.7961   -1.4226 H       1  LIG1        0.0629
     40 C          12.5463    1.2297    1.5724 C.ar    1  LIG1       -0.0530
     41 C          13.9176    1.2777    1.7732 C.ar    1  LIG1       -0.0611
     42 H          11.8705    1.3419    2.4141 H       1  LIG1        0.0624
     43 H          15.8453    1.1470    0.8244 H       1  LIG1        0.0618
     44 S          12.1965    0.6695   -2.4286 S.3     1  LIG1       -0.1420
     45 H          13.3750    0.7630   -3.0646 H       1  LIG1        0.1071
     46 H          14.3171    1.4353    2.7690 H       1  LIG1        0.0618
@<TRIPOS>BOND
     1    45    44    1
     2     8     6    1
     3    12     7    1
     4    44    35    1
     5    33    32    1
     6     6     7   ar
     7     6     3   ar
     8     7     4   ar
     9    39    36    1
    10    20    18    1
    11    32    24    1
    12    23    19    1
    13    35    36   ar
    14    35    37   ar
    15    18    19   ar
    16    18    15   ar
    17    19    16   ar
    18    28    25    1
    19    36    38   ar
    20     9     3    1
    21    24    25   ar
    22    24    26   ar
    23     3     1   ar
    24    25    27   ar
    25     4    15    1
    26     4     2   ar
    27    15    13   ar
    28    16    26    1
    29    16    14   ar
    30    26    29   ar
    31    27    37    1
    32    27    30   ar
    33    37    40   ar
    34    13    14   ar
    35    13    21    1
    36    14    17    1
    37    29    30   ar
    38    29    31    1
    39    30    34    1
    40    38    43    1
    41    38    41   ar
    42     1     2   ar
    43     1    10    1
    44     2     5    1
    45    21    22    1
    46    40    41   ar
    47    40    42    1
    48    41    46    1
    49    10    11    1
