@<TRIPOS>MOLECULE
mol_data/opt/cam/geoms/mol2/4ga4ga-4ga.out
 35 37 0 0 0
SMALL
GASTEIGER

@<TRIPOS>ATOM
      1 C          -0.1347    0.1962   -0.4209 C.ar    1  LIG1        0.0053
      2 C           1.2551    0.1185   -0.3881 C.ar    1  LIG1       -0.0408
      3 C          -0.7706    1.3740   -0.0306 C.ar    1  LIG1       -0.0485
      4 C           2.0190    1.2044    0.0430 C.ar    1  LIG1       -0.0158
      5 H           1.7574   -0.7866   -0.7123 H       1  LIG1        0.0635
      6 C          -0.0131    2.4602    0.3835 C.ar    1  LIG1       -0.0602
      7 C           1.3727    2.3814    0.4234 C.ar    1  LIG1       -0.0539
      8 H          -0.5113    3.3748    0.6883 H       1  LIG1        0.0618
      9 H          -1.8537    1.4383   -0.0475 H       1  LIG1        0.0628
     10 S          -1.1517   -1.1537   -0.9765 S.3     1  LIG1       -0.1426
     11 H          -0.1827   -2.0816   -1.0136 H       1  LIG1        0.1071
     12 H           1.9604    3.2272    0.7636 H       1  LIG1        0.0624
     13 C           4.2199    0.1638    0.7733 C.ar    1  LIG1        0.0130
     14 C           5.6133    0.1570    0.7356 C.ar    1  LIG1       -0.0402
     15 C           3.5055    1.1334    0.0520 C.ar    1  LIG1       -0.0047
     16 C           6.3264    1.0976   -0.0056 C.ar    1  LIG1       -0.0158
     17 H           6.1613   -0.5818    1.3105 H       1  LIG1        0.0635
     18 C           4.2314    2.0792   -0.6747 C.ar    1  LIG1       -0.0524
     19 C           5.6161    2.0704   -0.7090 C.ar    1  LIG1       -0.0534
     20 H           3.6833    2.8263   -1.2394 H       1  LIG1        0.0624
     21 S           3.3352   -1.0172    1.7764 S.3     1  LIG1       -0.1420
     22 H           4.4294   -1.5909    2.3012 H       1  LIG1        0.1071
     23 H           6.1522    2.8074   -1.2971 H       1  LIG1        0.0624
     24 C           8.5772   -0.0068   -0.4129 C.ar    1  LIG1        0.0124
     25 C           9.9705    0.0681   -0.3890 C.ar    1  LIG1       -0.0480
     26 C           7.8145    1.1016   -0.0109 C.ar    1  LIG1       -0.0047
     27 C          10.6130    1.2286    0.0160 C.ar    1  LIG1       -0.0607
     28 H          10.5610   -0.7885   -0.6977 H       1  LIG1        0.0629
     29 C           8.4842    2.2611    0.3881 C.ar    1  LIG1       -0.0530
     30 C           9.8689    2.3348    0.4049 C.ar    1  LIG1       -0.0611
     31 H           7.8916    3.1143    0.7022 H       1  LIG1        0.0624
     32 H          11.6974    1.2645    0.0247 H       1  LIG1        0.0618
     33 S           7.7543   -1.4832   -0.9873 S.3     1  LIG1       -0.1420
     34 H           8.8715   -2.1063   -1.3945 H       1  LIG1        0.1071
     35 H          10.3620    3.2467    0.7236 H       1  LIG1        0.0618
@<TRIPOS>BOND
     1    34    33    1
     2    23    19    1
     3    20    18    1
     4    11    10    1
     5    33    24    1
     6    10     1    1
     7     5     2    1
     8    19    18   ar
     9    19    16   ar
    10    28    25    1
    11    18    15   ar
    12     1     2   ar
    13     1     3   ar
    14    24    25   ar
    15    24    26   ar
    16    25    27   ar
    17     2     4   ar
    18     9     3    1
    19     3     6   ar
    20    26    16    1
    21    26    29   ar
    22    16    14   ar
    23    27    32    1
    24    27    30   ar
    25     4    15    1
    26     4     7   ar
    27    15    13   ar
    28     6     7   ar
    29     6     8    1
    30    29    30   ar
    31    29    31    1
    32    30    35    1
    33     7    12    1
    34    14    13   ar
    35    14    17    1
    36    13    21    1
    37    21    22    1
