@<TRIPOS>MOLECULE
mol_data/opt/cam/geoms/mol2/4ga4ga-.out
 24 25 0 0 0
SMALL
GASTEIGER

@<TRIPOS>ATOM
      1 C          -0.0366    0.2353   -0.4262 C.ar    1  LIG1        0.0053
      2 C           1.3531    0.1881   -0.5000 C.ar    1  LIG1       -0.0408
      3 C          -0.6588    1.3103    0.2069 C.ar    1  LIG1       -0.0485
      4 C           2.1315    1.1994    0.0655 C.ar    1  LIG1       -0.0158
      5 H           1.8427   -0.6327   -1.0133 H       1  LIG1        0.0635
      6 C           0.1119    2.3258    0.7549 C.ar    1  LIG1       -0.0602
      7 C           1.4979    2.2752    0.6893 C.ar    1  LIG1       -0.0539
      8 H          -0.3756    3.1601    1.2486 H       1  LIG1        0.0618
      9 H          -1.7411    1.3489    0.2743 H       1  LIG1        0.0628
     10 S          -1.0716   -1.0207   -1.1453 S.3     1  LIG1       -0.1426
     11 H          -0.1009   -1.9197   -1.3716 H       1  LIG1        0.1071
     12 H           2.0971    3.0622    1.1344 H       1  LIG1        0.0624
     13 C           4.3862    0.0981    0.4585 C.ar    1  LIG1        0.0124
     14 C           5.7751    0.1297    0.3266 C.ar    1  LIG1       -0.0480
     15 C           3.6163    1.1635   -0.0354 C.ar    1  LIG1       -0.0047
     16 C           6.4071    1.2066   -0.2771 C.ar    1  LIG1       -0.0607
     17 H           6.3709   -0.6939    0.7068 H       1  LIG1        0.0629
     18 C           4.2759    2.2392   -0.6351 C.ar    1  LIG1       -0.0530
     19 C           5.6567    2.2709   -0.7595 C.ar    1  LIG1       -0.0611
     20 H           3.6772    3.0585   -1.0200 H       1  LIG1        0.0624
     21 H           7.4884    1.2104   -0.3671 H       1  LIG1        0.0618
     22 S           3.5802   -1.2641    1.2843 S.3     1  LIG1       -0.1420
     23 H           4.7126   -1.8619    1.6877 H       1  LIG1        0.1071
     24 H           6.1416    3.1172   -1.2337 H       1  LIG1        0.0618
@<TRIPOS>BOND
     1    11    10    1
     2    24    19    1
     3    10     1    1
     4    20    18    1
     5     5     2    1
     6    19    18   ar
     7    19    16   ar
     8    18    15   ar
     9     2     1   ar
    10     2     4   ar
    11     1     3   ar
    12    21    16    1
    13    16    14   ar
    14    15     4    1
    15    15    13   ar
    16     4     7   ar
    17     3     9    1
    18     3     6   ar
    19    14    13   ar
    20    14    17    1
    21    13    22    1
    22     7     6   ar
    23     7    12    1
    24     6     8    1
    25    22    23    1
