@<TRIPOS>MOLECULE
mol_data/opt/cam/geoms/mol2/4ga4ga4ga4ga-.out
 46 49 0 0 0
SMALL
GASTEIGER

@<TRIPOS>ATOM
      1 C          -0.2307    0.7024    0.9155 C.ar    1  LIG1        0.0053
      2 C           1.1578    0.5977    0.9081 C.ar    1  LIG1       -0.0408
      3 C          -0.8780    1.3825   -0.1149 C.ar    1  LIG1       -0.0485
      4 C           1.9087    1.1540   -0.1287 C.ar    1  LIG1       -0.0158
      5 H           1.6687    0.0938    1.7216 H       1  LIG1        0.0635
      6 C          -0.1328    1.9523   -1.1376 C.ar    1  LIG1       -0.0602
      7 C           1.2510    1.8402   -1.1509 C.ar    1  LIG1       -0.0539
      8 H          -0.6398    2.4787   -1.9396 H       1  LIG1        0.0618
      9 H          -1.9603    1.4601   -0.1190 H       1  LIG1        0.0628
     10 S          -1.2291    0.0257    2.2240 S.3     1  LIG1       -0.1426
     11 H          -0.2790   -0.7512    2.7673 H       1  LIG1        0.1071
     12 H           1.8279    2.2702   -1.9626 H       1  LIG1        0.0624
     13 C           4.0869   -0.1547   -0.0735 C.ar    1  LIG1        0.0130
     14 C           5.4810   -0.1617   -0.0666 C.ar    1  LIG1       -0.0402
     15 C           3.3939    1.0651   -0.1253 C.ar    1  LIG1       -0.0047
     16 C           6.2153    1.0208   -0.1323 C.ar    1  LIG1       -0.0158
     17 H           6.0118   -1.1054   -0.0036 H       1  LIG1        0.0635
     18 C           4.1409    2.2433   -0.1868 C.ar    1  LIG1       -0.0524
     19 C           5.5259    2.2322   -0.1913 C.ar    1  LIG1       -0.0534
     20 H           3.6096    3.1887   -0.2249 H       1  LIG1        0.0624
     21 S           3.1773   -1.6899   -0.0457 S.3     1  LIG1       -0.1420
     22 H           4.2463   -2.4791   -0.2364 H       1  LIG1        0.1071
     23 H           6.0789    3.1635   -0.2485 H       1  LIG1        0.0624
     24 C           8.4845    0.2970   -1.0200 C.ar    1  LIG1        0.0130
     25 C           9.8746    0.3261   -0.9204 C.ar    1  LIG1       -0.0402
     26 C           7.7023    1.0039   -0.0930 C.ar    1  LIG1       -0.0047
     27 C          10.5180    1.0472    0.0839 C.ar    1  LIG1       -0.0158
     28 H          10.4756   -0.2057   -1.6502 H       1  LIG1        0.0635
     29 C           8.3587    1.7352    0.8991 C.ar    1  LIG1       -0.0524
     30 C           9.7403    1.7632    0.9940 C.ar    1  LIG1       -0.0534
     31 H           7.7580    2.2778    1.6218 H       1  LIG1        0.0624
     32 S           7.6905   -0.5868   -2.3512 S.3     1  LIG1       -0.1420
     33 H           8.8271   -0.9568   -2.9617 H       1  LIG1        0.1071
     34 H          10.2215    2.3257    1.7867 H       1  LIG1        0.0624
     35 C          12.7989   -0.0530    0.2777 C.ar    1  LIG1        0.0124
     36 C          14.1874    0.0709    0.3422 C.ar    1  LIG1       -0.0480
     37 C          12.0031    1.0981    0.1606 C.ar    1  LIG1       -0.0047
     38 C          14.7921    1.3185    0.3040 C.ar    1  LIG1       -0.0607
     39 H          14.8036   -0.8180    0.4308 H       1  LIG1        0.0629
     40 C          12.6348    2.3440    0.1290 C.ar    1  LIG1       -0.0530
     41 C          14.0145    2.4644    0.1996 C.ar    1  LIG1       -0.0611
     42 H          12.0169    3.2310    0.0341 H       1  LIG1        0.0624
     43 H          15.8734    1.3906    0.3576 H       1  LIG1        0.0618
     44 S          12.0219   -1.6567    0.3829 S.3     1  LIG1       -0.1420
     45 H          13.1498   -2.3312    0.6569 H       1  LIG1        0.1071
     46 H          14.4781    3.4443    0.1685 H       1  LIG1        0.0618
@<TRIPOS>BOND
     1    33    32    1
     2    32    24    1
     3    12     7    1
     4     8     6    1
     5    28    25    1
     6     7     6   ar
     7     7     4   ar
     8     6     3   ar
     9    24    25   ar
    10    24    26   ar
    11    25    27   ar
    12    23    19    1
    13    22    21    1
    14    20    18    1
    15    19    18   ar
    16    19    16   ar
    17    18    15   ar
    18    16    26    1
    19    16    14   ar
    20     4    15    1
    21     4     2   ar
    22    15    13   ar
    23     9     3    1
    24     3     1   ar
    25    26    29   ar
    26    13    14   ar
    27    13    21    1
    28    14    17    1
    29    42    40    1
    30    27    37    1
    31    27    30   ar
    32    40    37   ar
    33    40    41   ar
    34    37    35   ar
    35    46    41    1
    36    41    38   ar
    37    35    36   ar
    38    35    44    1
    39    38    36   ar
    40    38    43    1
    41    36    39    1
    42    44    45    1
    43    29    30   ar
    44    29    31    1
    45     2     1   ar
    46     2     5    1
    47     1    10    1
    48    30    34    1
    49    10    11    1
