@<TRIPOS>MOLECULE
mol_data/opt/cam/geoms/mol2/4ga4ga.out
 24 25 0 0 0
SMALL
GASTEIGER

@<TRIPOS>ATOM
      1 C          -0.0372    0.2405    0.4328 C.ar    1  LIG1        0.0053
      2 C           1.3524    0.1941    0.5092 C.ar    1  LIG1       -0.0408
      3 C          -0.6585    1.3080   -0.2136 C.ar    1  LIG1       -0.0485
      4 C           2.1316    1.1986   -0.0670 C.ar    1  LIG1       -0.0158
      5 H           1.8411   -0.6207    1.0327 H       1  LIG1        0.0635
      6 C           0.1131    2.3170   -0.7724 C.ar    1  LIG1       -0.0602
      7 C           1.4990    2.2672   -0.7042 C.ar    1  LIG1       -0.0539
      8 H          -0.3737    3.1455   -1.2765 H       1  LIG1        0.0618
      9 H          -1.7407    1.3459   -0.2830 H       1  LIG1        0.0628
     10 S          -1.0733   -1.0070    1.1652 S.3     1  LIG1       -0.1426
     11 H          -0.1031   -1.9034    1.4031 H       1  LIG1        0.1071
     12 H           2.0988    3.0489   -1.1576 H       1  LIG1        0.0624
     13 C           4.3868    0.0927   -0.4440 C.ar    1  LIG1        0.0124
     14 C           5.7755    0.1258   -0.3105 C.ar    1  LIG1       -0.0480
     15 C           3.6163    1.1638    0.0364 C.ar    1  LIG1       -0.0047
     16 C           6.4068    1.2097    0.2814 C.ar    1  LIG1       -0.0607
     17 H           6.3718   -0.7023   -0.6802 H       1  LIG1        0.0629
     18 C           4.2751    2.2464    0.6244 C.ar    1  LIG1       -0.0530
     19 C           5.6557    2.2795    0.7503 C.ar    1  LIG1       -0.0611
     20 H           3.6760    3.0702    0.9988 H       1  LIG1        0.0624
     21 H           7.4879    1.2145    0.3729 H       1  LIG1        0.0618
     22 S           3.5819   -1.2790   -1.2549 S.3     1  LIG1       -0.1420
     23 H           4.7148   -1.8815   -1.6498 H       1  LIG1        0.1071
     24 H           6.1400    3.1313    1.2153 H       1  LIG1        0.0618
@<TRIPOS>BOND
     1    23    22    1
     2     8     6    1
     3    22    13    1
     4    12     7    1
     5     6     7   ar
     6     6     3   ar
     7     7     4   ar
     8    17    14    1
     9    13    14   ar
    10    13    15   ar
    11    14    16   ar
    12     9     3    1
    13     3     1   ar
    14     4    15    1
    15     4     2   ar
    16    15    18   ar
    17    16    21    1
    18    16    19   ar
    19     1     2   ar
    20     1    10    1
    21     2     5    1
    22    18    19   ar
    23    18    20    1
    24    19    24    1
    25    10    11    1
