@<TRIPOS>MOLECULE
mol_data/opt/cam/geoms/mol2/4ga4ga4ga-4ga.out
 46 49 0 0 0
SMALL
GASTEIGER

@<TRIPOS>ATOM
      1 C          -0.2690    0.3604    0.4868 C.ar    1  LIG1        0.0053
      2 C           1.1187    0.2472    0.4881 C.ar    1  LIG1       -0.0408
      3 C          -0.8715    1.4708   -0.1031 C.ar    1  LIG1       -0.0485
      4 C           1.9138    1.2291   -0.1055 C.ar    1  LIG1       -0.0158
      5 H           1.5952   -0.6026    0.9649 H       1  LIG1        0.0635
      6 C          -0.0830    2.4558   -0.6804 C.ar    1  LIG1       -0.0602
      7 C           1.3008    2.3407   -0.6856 C.ar    1  LIG1       -0.0539
      8 H          -0.5552    3.3178   -1.1402 H       1  LIG1        0.0618
      9 H          -1.9528    1.5612   -0.1134 H       1  LIG1        0.0628
     10 S          -1.3249   -0.8551    1.2437 S.3     1  LIG1       -0.1426
     11 H          -0.3795   -1.7854    1.4491 H       1  LIG1        0.1071
     12 H           1.9128    3.1049   -1.1525 H       1  LIG1        0.0624
     13 C           4.0958    0.0331   -0.6219 C.ar    1  LIG1        0.0130
     14 C           5.4879   -0.0003   -0.5614 C.ar    1  LIG1       -0.0402
     15 C           3.3980    1.1241   -0.0800 C.ar    1  LIG1       -0.0047
     16 C           6.2158    1.0322    0.0275 C.ar    1  LIG1       -0.0158
     17 H           6.0238   -0.8361   -0.9980 H       1  LIG1        0.0635
     18 C           4.1389    2.1593    0.4934 C.ar    1  LIG1       -0.0524
     19 C           5.5224    2.1238    0.5507 C.ar    1  LIG1       -0.0534
     20 H           3.6032    3.0013    0.9196 H       1  LIG1        0.0624
     21 S           3.1924   -1.2752   -1.4315 S.3     1  LIG1       -0.1420
     22 H           4.2773   -1.9506   -1.8424 H       1  LIG1        0.1071
     23 H           6.0701    2.9344    1.0191 H       1  LIG1        0.0624
     24 C           8.4362   -0.0456    0.6345 C.ar    1  LIG1        0.0130
     25 C           9.8296   -0.0062    0.6232 C.ar    1  LIG1       -0.0402
     26 C           7.7027    1.0028    0.0566 C.ar    1  LIG1       -0.0047
     27 C          10.5237    1.0580    0.0506 C.ar    1  LIG1       -0.0158
     28 H          10.3922   -0.8091    1.0873 H       1  LIG1        0.0635
     29 C           8.4094    2.0709   -0.5001 C.ar    1  LIG1       -0.0524
     30 C           9.7939    2.1077   -0.5074 C.ar    1  LIG1       -0.0534
     31 H           7.8467    2.8802   -0.9539 H       1  LIG1        0.0624
     32 S           7.5753   -1.3920    1.4278 S.3     1  LIG1       -0.1420
     33 H           8.6794   -2.0056    1.8819 H       1  LIG1        0.1071
     34 H          10.3154    2.9422   -0.9635 H       1  LIG1        0.0624
     35 C          12.8127    0.0936   -0.4789 C.ar    1  LIG1        0.0124
     36 C          14.2025    0.2028   -0.4172 C.ar    1  LIG1       -0.0480
     37 C          12.0108    1.1050    0.0742 C.ar    1  LIG1       -0.0047
     38 C          14.8033    1.3045    0.1735 C.ar    1  LIG1       -0.0607
     39 H          14.8234   -0.5790   -0.8427 H       1  LIG1        0.0629
     40 C          12.6388    2.2074    0.6594 C.ar    1  LIG1       -0.0530
     41 C          14.0202    2.3163    0.7136 C.ar    1  LIG1       -0.0611
     42 H          12.0160    2.9848    1.0899 H       1  LIG1        0.0624
     43 H          15.8858    1.3689    0.2082 H       1  LIG1        0.0618
     44 S          12.0436   -1.2988   -1.2891 S.3     1  LIG1       -0.1420
     45 H          13.1848   -1.8208   -1.7661 H       1  LIG1        0.1071
     46 H          14.4806    3.1814    1.1780 H       1  LIG1        0.0618
@<TRIPOS>BOND
     1    22    21    1
     2    45    44    1
     3    21    13    1
     4    44    35    1
     5    12     7    1
     6     8     6    1
     7    17    14    1
     8    34    30    1
     9    31    29    1
    10    39    36    1
    11     7     6   ar
    12     7     4   ar
    13     6     3   ar
    14    13    14   ar
    15    13    15   ar
    16    14    16   ar
    17    30    29   ar
    18    30    27   ar
    19    29    26   ar
    20    35    36   ar
    21    35    37   ar
    22    36    38   ar
    23     9     3    1
    24     4    15    1
    25     4     2   ar
    26     3     1   ar
    27    15    18   ar
    28    16    26    1
    29    16    19   ar
    30    27    37    1
    31    27    25   ar
    32    26    24   ar
    33    37    40   ar
    34    38    43    1
    35    38    41   ar
    36     1     2   ar
    37     1    10    1
    38     2     5    1
    39    18    19   ar
    40    18    20    1
    41    19    23    1
    42    25    24   ar
    43    25    28    1
    44    24    32    1
    45    40    41   ar
    46    40    42    1
    47    41    46    1
    48    10    11    1
    49    32    33    1
