@<TRIPOS>MOLECULE
mol_data/opt/cam/geoms/mol2/4ga4ga-4ga-.out
 35 37 0 0 0
SMALL
GASTEIGER

@<TRIPOS>ATOM
      1 C          -0.1339    0.1841   -0.4088 C.ar    1  LIG1        0.0053
      2 C           1.2561    0.1095   -0.3781 C.ar    1  LIG1       -0.0408
      3 C          -0.7717    1.3618   -0.0212 C.ar    1  LIG1       -0.0485
      4 C           2.0184    1.1984    0.0482 C.ar    1  LIG1       -0.0158
      5 H           1.7598   -0.7955   -0.7003 H       1  LIG1        0.0635
      6 C          -0.0158    2.4510    0.3881 C.ar    1  LIG1       -0.0602
      7 C           1.3702    2.3753    0.4259 C.ar    1  LIG1       -0.0539
      8 H          -0.5155    3.3654    0.6908 H       1  LIG1        0.0618
      9 H          -1.8549    1.4238   -0.0364 H       1  LIG1        0.0628
     10 S          -1.1489   -1.1698   -0.9583 S.3     1  LIG1       -0.1426
     11 H          -0.1780   -2.0956   -0.9943 H       1  LIG1        0.1071
     12 H           1.9567    3.2235    0.7624 H       1  LIG1        0.0624
     13 C           4.2228    0.1650    0.7780 C.ar    1  LIG1        0.0130
     14 C           5.6162    0.1611    0.7379 C.ar    1  LIG1       -0.0402
     15 C           3.5051    1.1307    0.0548 C.ar    1  LIG1       -0.0047
     16 C           6.3259    1.1007   -0.0076 C.ar    1  LIG1       -0.0158
     17 H           6.1667   -0.5746    1.3143 H       1  LIG1        0.0635
     18 C           4.2276    2.0757   -0.6762 C.ar    1  LIG1       -0.0524
     19 C           5.6123    2.0698   -0.7128 C.ar    1  LIG1       -0.0534
     20 H           3.6769    2.8198   -1.2424 H       1  LIG1        0.0624
     21 S           3.3424   -1.0147    1.7865 S.3     1  LIG1       -0.1420
     22 H           4.4387   -1.5843    2.3113 H       1  LIG1        0.1071
     23 H           6.1458    2.8060   -1.3043 H       1  LIG1        0.0624
     24 C           8.5784   -0.0001   -0.4152 C.ar    1  LIG1        0.0124
     25 C           9.9716    0.0779   -0.3940 C.ar    1  LIG1       -0.0480
     26 C           7.8140    1.1080   -0.0154 C.ar    1  LIG1       -0.0047
     27 C          10.6123    1.2411    0.0063 C.ar    1  LIG1       -0.0607
     28 H          10.5634   -0.7784   -0.7010 H       1  LIG1        0.0629
     29 C           8.4819    2.2702    0.3787 C.ar    1  LIG1       -0.0530
     30 C           9.8664    2.3469    0.3929 C.ar    1  LIG1       -0.0611
     31 H           7.8880    3.1231    0.6911 H       1  LIG1        0.0624
     32 H          11.6966    1.2793    0.0129 H       1  LIG1        0.0618
     33 S           7.7577   -1.4800   -0.9834 S.3     1  LIG1       -0.1420
     34 H           8.8755   -2.1021   -1.3906 H       1  LIG1        0.1071
     35 H          10.3581    3.2608    0.7078 H       1  LIG1        0.0618
@<TRIPOS>BOND
     1    34    33    1
     2    23    19    1
     3    20    18    1
     4    11    10    1
     5    33    24    1
     6    10     1    1
     7    19    18   ar
     8    19    16   ar
     9    28    25    1
    10     5     2    1
    11    18    15   ar
    12    24    25   ar
    13    24    26   ar
    14     1     2   ar
    15     1     3   ar
    16    25    27   ar
    17     2     4   ar
    18     9     3    1
    19     3     6   ar
    20    26    16    1
    21    26    29   ar
    22    16    14   ar
    23    27    32    1
    24    27    30   ar
    25     4    15    1
    26     4     7   ar
    27    15    13   ar
    28    29    30   ar
    29    29    31    1
    30     6     7   ar
    31     6     8    1
    32    30    35    1
    33     7    12    1
    34    14    13   ar
    35    14    17    1
    36    13    21    1
    37    21    22    1
