@<TRIPOS>MOLECULE
mol_data/opt/cam/geoms/mol2/4ga4ga-4ga4ga-.out
 46 49 0 0 0
SMALL
GASTEIGER

@<TRIPOS>ATOM
      1 C          -0.2680    0.3548   -0.4837 C.ar    1  LIG1        0.0053
      2 C           1.1198    0.2428   -0.4832 C.ar    1  LIG1       -0.0408
      3 C          -0.8721    1.4648    0.1054 C.ar    1  LIG1       -0.0485
      4 C           1.9133    1.2253    0.1113 C.ar    1  LIG1       -0.0158
      5 H           1.5975   -0.6066   -0.9594 H       1  LIG1        0.0635
      6 C          -0.0851    2.4504    0.6837 C.ar    1  LIG1       -0.0602
      7 C           1.2988    2.3364    0.6907 C.ar    1  LIG1       -0.0539
      8 H          -0.5586    3.3120    1.1430 H       1  LIG1        0.0618
      9 H          -1.9535    1.5544    0.1144 H       1  LIG1        0.0628
     10 S          -1.3220   -0.8615   -1.2419 S.3     1  LIG1       -0.1426
     11 H          -0.3756   -1.7909   -1.4464 H       1  LIG1        0.1071
     12 H           1.9096    3.1011    1.1584 H       1  LIG1        0.0624
     13 C           4.0957    0.0309    0.6305 C.ar    1  LIG1        0.0130
     14 C           5.4879   -0.0014    0.5718 C.ar    1  LIG1       -0.0402
     15 C           3.3977    1.1214    0.0877 C.ar    1  LIG1       -0.0047
     16 C           6.2157    1.0317   -0.0163 C.ar    1  LIG1       -0.0158
     17 H           6.0239   -0.8367    1.0091 H       1  LIG1        0.0635
     18 C           4.1385    2.1572   -0.4848 C.ar    1  LIG1       -0.0524
     19 C           5.5221    2.1227   -0.5404 C.ar    1  LIG1       -0.0534
     20 H           3.6027    2.9988   -0.9116 H       1  LIG1        0.0624
     21 S           3.1923   -1.2780    1.4390 S.3     1  LIG1       -0.1420
     22 H           4.2772   -1.9526    1.8513 H       1  LIG1        0.1071
     23 H           6.0697    2.9338   -1.0081 H       1  LIG1        0.0624
     24 C           8.4377   -0.0444   -0.6204 C.ar    1  LIG1        0.0130
     25 C           9.8311   -0.0039   -0.6074 C.ar    1  LIG1       -0.0402
     26 C           7.7027    1.0035   -0.0435 C.ar    1  LIG1       -0.0047
     27 C          10.5236    1.0609   -0.0339 C.ar    1  LIG1       -0.0158
     28 H          10.3949   -0.8064   -1.0708 H       1  LIG1        0.0635
     29 C           8.4078    2.0721    0.5141 C.ar    1  LIG1       -0.0524
     30 C           9.7923    2.1100    0.5231 C.ar    1  LIG1       -0.0534
     31 H           7.8440    2.8810    0.9671 H       1  LIG1        0.0624
     32 S           7.5789   -1.3914   -1.4148 S.3     1  LIG1       -0.1420
     33 H           8.6840   -2.0042   -1.8676 H       1  LIG1        0.1071
     34 H          10.3126    2.9449    0.9799 H       1  LIG1        0.0624
     35 C          12.8127    0.0982    0.4984 C.ar    1  LIG1        0.0124
     36 C          14.2025    0.2085    0.4385 C.ar    1  LIG1       -0.0480
     37 C          12.0107    1.1090   -0.0557 C.ar    1  LIG1       -0.0047
     38 C          14.8031    1.3107   -0.1515 C.ar    1  LIG1       -0.0607
     39 H          14.8234   -0.5728    0.8648 H       1  LIG1        0.0629
     40 C          12.6386    2.2119   -0.6401 C.ar    1  LIG1       -0.0530
     41 C          14.0199    2.3218   -0.6926 C.ar    1  LIG1       -0.0611
     42 H          12.0157    2.9889   -1.0714 H       1  LIG1        0.0624
     43 H          15.8857    1.3759   -0.1848 H       1  LIG1        0.0618
     44 S          12.0436   -1.2947    1.3077 S.3     1  LIG1       -0.1420
     45 H          13.1846   -1.8159    1.7861 H       1  LIG1        0.1071
     46 H          14.4802    3.1874   -1.1564 H       1  LIG1        0.0618
@<TRIPOS>BOND
     1    33    32    1
     2    11    10    1
     3    32    24    1
     4    10     1    1
     5    46    41    1
     6    42    40    1
     7    28    25    1
     8    23    19    1
     9     5     2    1
    10    20    18    1
    11    41    40   ar
    12    41    38   ar
    13    40    37   ar
    14    24    25   ar
    15    24    26   ar
    16    25    27   ar
    17    19    18   ar
    18    19    16   ar
    19    18    15   ar
    20     1     2   ar
    21     1     3   ar
    22     2     4   ar
    23    43    38    1
    24    38    36   ar
    25    37    27    1
    26    37    35   ar
    27    26    16    1
    28    26    29   ar
    29    27    30   ar
    30    16    14   ar
    31    15     4    1
    32    15    13   ar
    33     3     9    1
    34     3     6   ar
    35     4     7   ar
    36    36    35   ar
    37    36    39    1
    38    35    44    1
    39    29    30   ar
    40    29    31    1
    41    30    34    1
    42    14    13   ar
    43    14    17    1
    44    13    21    1
    45     6     7   ar
    46     6     8    1
    47     7    12    1
    48    44    45    1
    49    21    22    1
