@<TRIPOS>MOLECULE
mol_data/opt/cam/geoms/mol2/4ga4ga4ga-.out
 35 37 0 0 0
SMALL
GASTEIGER

@<TRIPOS>ATOM
      1 C          -0.1342    0.2085    0.4523 C.ar    1  LIG1        0.0053
      2 C           1.2553    0.1280    0.4147 C.ar    1  LIG1       -0.0408
      3 C          -0.7696    1.3843    0.0550 C.ar    1  LIG1       -0.0485
      4 C           2.0194    1.2090   -0.0282 C.ar    1  LIG1       -0.0158
      5 H           1.7573   -0.7753    0.7442 H       1  LIG1        0.0635
      6 C          -0.0118    2.4657   -0.3709 C.ar    1  LIG1       -0.0602
      7 C           1.3737    2.3841   -0.4156 C.ar    1  LIG1       -0.0539
      8 H          -0.5096    3.3786   -0.6810 H       1  LIG1        0.0618
      9 H          -1.8525    1.4506    0.0756 H       1  LIG1        0.0628
     10 S          -1.1513   -1.1351    1.0228 S.3     1  LIG1       -0.1426
     11 H          -0.1839   -2.0644    1.0635 H       1  LIG1        0.1071
     12 H           1.9615    3.2261   -0.7649 H       1  LIG1        0.0624
     13 C           4.2156    0.1587   -0.7587 C.ar    1  LIG1        0.0130
     14 C           5.6092    0.1497   -0.7264 C.ar    1  LIG1       -0.0402
     15 C           3.5058    1.1353   -0.0425 C.ar    1  LIG1       -0.0047
     16 C           6.3268    1.0949    0.0044 C.ar    1  LIG1       -0.0158
     17 H           6.1536   -0.5947   -1.2974 H       1  LIG1        0.0635
     18 C           4.2361    2.0857    0.6737 C.ar    1  LIG1       -0.0524
     19 C           5.6210    2.0747    0.7026 C.ar    1  LIG1       -0.0534
     20 H           3.6915    2.8383    1.2345 H       1  LIG1        0.0624
     21 S           3.3249   -1.0288   -1.7487 S.3     1  LIG1       -0.1420
     22 H           4.4161   -1.6087   -2.2731 H       1  LIG1        0.1071
     23 H           6.1606    2.8155    1.2827 H       1  LIG1        0.0624
     24 C           8.5772   -0.0101    0.4117 C.ar    1  LIG1        0.0124
     25 C           9.9706    0.0622    0.3818 C.ar    1  LIG1       -0.0480
     26 C           7.8149    1.0964    0.0038 C.ar    1  LIG1       -0.0047
     27 C          10.6135    1.2182   -0.0351 C.ar    1  LIG1       -0.0607
     28 H          10.5608   -0.7930    0.6951 H       1  LIG1        0.0629
     29 C           8.4851    2.2515   -0.4072 C.ar    1  LIG1       -0.0530
     30 C           9.8697    2.3225   -0.4300 C.ar    1  LIG1       -0.0611
     31 H           7.8927    3.1031   -0.7258 H       1  LIG1        0.0624
     32 H          11.6979    1.2521   -0.0483 H       1  LIG1        0.0618
     33 S           7.7540   -1.4803    1.0013 S.3     1  LIG1       -0.1420
     34 H           8.8717   -2.1021    1.4092 H       1  LIG1        0.1071
     35 H          10.3632    3.2309   -0.7580 H       1  LIG1        0.0618
@<TRIPOS>BOND
     1    22    21    1
     2    21    13    1
     3    17    14    1
     4    12     7    1
     5    13    14   ar
     6    13    15   ar
     7    35    30    1
     8    14    16   ar
     9    31    29    1
    10     8     6    1
    11    30    29   ar
    12    30    27   ar
    13     7     6   ar
    14     7     4   ar
    15    29    26   ar
    16     6     3   ar
    17    32    27    1
    18    15     4    1
    19    15    18   ar
    20    27    25   ar
    21     4     2   ar
    22    26    16    1
    23    26    24   ar
    24    16    19   ar
    25     3     9    1
    26     3     1   ar
    27    25    24   ar
    28    25    28    1
    29    24    33    1
    30     2     1   ar
    31     2     5    1
    32     1    10    1
    33    18    19   ar
    34    18    20    1
    35    19    23    1
    36    33    34    1
    37    10    11    1
