@<TRIPOS>MOLECULE
mol_data/opt/cam/geoms/mol2/4ga4ga-4ga-4ga.out
 46 49 0 0 0
SMALL
GASTEIGER

@<TRIPOS>ATOM
      1 C          -0.2623    0.1700   -0.2498 C.ar    1  LIG1        0.0053
      2 C           1.1241    0.0740   -0.1647 C.ar    1  LIG1       -0.0408
      3 C          -0.8685    1.4255   -0.2683 C.ar    1  LIG1       -0.0485
      4 C           1.9140    1.2223   -0.0856 C.ar    1  LIG1       -0.0158
      5 H           1.6039   -0.8987   -0.1734 H       1  LIG1        0.0635
      6 C          -0.0848    2.5688   -0.2054 C.ar    1  LIG1       -0.0602
      7 C           1.2974    2.4742   -0.1132 C.ar    1  LIG1       -0.0539
      8 H          -0.5600    3.5442   -0.2183 H       1  LIG1        0.0618
      9 H          -1.9489    1.5068   -0.3280 H       1  LIG1        0.0628
     10 S          -1.3112   -1.2623   -0.3666 S.3     1  LIG1       -0.1426
     11 H          -0.3664   -2.1766   -0.0973 H       1  LIG1        0.1071
     12 H           1.9052    3.3702   -0.0476 H       1  LIG1        0.0624
     13 C           4.0738    0.4121    0.9817 C.ar    1  LIG1        0.0130
     14 C           5.4668    0.3598    0.9772 C.ar    1  LIG1       -0.0402
     15 C           3.3975    1.1227   -0.0224 C.ar    1  LIG1       -0.0047
     16 C           6.2164    1.0026   -0.0063 C.ar    1  LIG1       -0.0158
     17 H           5.9853   -0.1738    1.7666 H       1  LIG1        0.0635
     18 C           4.1601    1.7748   -0.9935 C.ar    1  LIG1       -0.0524
     19 C           5.5442    1.7227   -0.9939 C.ar    1  LIG1       -0.0534
     20 H           3.6414    2.3188   -1.7761 H       1  LIG1        0.0624
     21 S           3.1423   -0.3714    2.2864 S.3     1  LIG1       -0.1420
     22 H           4.2123   -0.7781    2.9876 H       1  LIG1        0.1071
     23 H           6.1089    2.2237   -1.7728 H       1  LIG1        0.0624
     24 C           8.4401   -0.2274    0.0131 C.ar    1  LIG1        0.0130
     25 C           9.8333   -0.1835    0.0426 C.ar    1  LIG1       -0.0402
     26 C           7.7030    0.9673    0.0176 C.ar    1  LIG1       -0.0047
     27 C          10.5239    1.0267    0.0540 C.ar    1  LIG1       -0.0158
     28 H          10.3979   -1.1094    0.0624 H       1  LIG1        0.0635
     29 C           8.4064    2.1738    0.0334 C.ar    1  LIG1       -0.0524
     30 C           9.7906    2.2135    0.0510 C.ar    1  LIG1       -0.0534
     31 H           7.8409    3.0999    0.0387 H       1  LIG1        0.0624
     32 S           7.5884   -1.7940   -0.0582 S.3     1  LIG1       -0.1420
     33 H           8.6878   -2.5307   -0.2831 H       1  LIG1        0.1071
     34 H          10.3095    3.1660    0.0542 H       1  LIG1        0.0624
     35 C          12.8250    0.4435   -0.8487 C.ar    1  LIG1        0.0124
     36 C          14.2133    0.5139   -0.7268 C.ar    1  LIG1       -0.0480
     37 C          12.0104    1.0610    0.1142 C.ar    1  LIG1       -0.0047
     38 C          14.8001    1.1966    0.3284 C.ar    1  LIG1       -0.0607
     39 H          14.8440    0.0359   -1.4693 H       1  LIG1        0.0629
     40 C          12.6244    1.7475    1.1648 C.ar    1  LIG1       -0.0530
     41 C          14.0044    1.8209    1.2802 C.ar    1  LIG1       -0.0611
     42 H          11.9915    2.2201    1.9089 H       1  LIG1        0.0624
     43 H          15.8817    1.2397    0.4020 H       1  LIG1        0.0618
     44 S          12.0730   -0.3880   -2.2380 S.3     1  LIG1       -0.1420
     45 H          13.2225   -0.6193   -2.8916 H       1  LIG1        0.1071
     46 H          14.4540    2.3570    2.1088 H       1  LIG1        0.0618
@<TRIPOS>BOND
     1    45    44    1
     2    44    35    1
     3    20    18    1
     4    23    19    1
     5    39    36    1
     6    19    18   ar
     7    19    16   ar
     8    18    15   ar
     9    35    36   ar
    10    35    37   ar
    11    36    38   ar
    12    10     1    1
    13    10    11    1
    14     9     3    1
    15    33    32    1
    16     3     1   ar
    17     3     6   ar
    18     1     2   ar
    19     8     6    1
    20     6     7   ar
    21     5     2    1
    22     2     4   ar
    23     7     4   ar
    24     7    12    1
    25     4    15    1
    26    32    24    1
    27    15    13   ar
    28    16    26    1
    29    16    14   ar
    30    24    26   ar
    31    24    25   ar
    32    26    29   ar
    33    29    31    1
    34    29    30   ar
    35    25    27   ar
    36    25    28    1
    37    30    27   ar
    38    30    34    1
    39    27    37    1
    40    37    40   ar
    41    38    43    1
    42    38    41   ar
    43    14    13   ar
    44    14    17    1
    45    13    21    1
    46    40    41   ar
    47    40    42    1
    48    41    46    1
    49    21    22    1
