@<TRIPOS>MOLECULE
mol_data/opt/cam/geoms/mol2/4ga4ga-4ga4ga.out
 46 49 0 0 0
SMALL
GASTEIGER

@<TRIPOS>ATOM
      1 C          -0.2673    0.3540   -0.4942 C.ar    1  LIG1        0.0053
      2 C           1.1206    0.2430   -0.4938 C.ar    1  LIG1       -0.0408
      3 C          -0.8726    1.4581    0.1047 C.ar    1  LIG1       -0.0485
      4 C           1.9130    1.2206    0.1103 C.ar    1  LIG1       -0.0158
      5 H           1.5993   -0.6017   -0.9775 H       1  LIG1        0.0635
      6 C          -0.0867    2.4389    0.6926 C.ar    1  LIG1       -0.0602
      7 C           1.2972    2.3259    0.6995 C.ar    1  LIG1       -0.0539
      8 H          -0.5611    3.2959    1.1595 H       1  LIG1        0.0618
      9 H          -1.9540    1.5468    0.1138 H       1  LIG1        0.0628
     10 S          -1.3199   -0.8561   -1.2642 S.3     1  LIG1       -0.1426
     11 H          -0.3726   -1.7829   -1.4766 H       1  LIG1        0.1071
     12 H           1.9072    3.0866    1.1745 H       1  LIG1        0.0624
     13 C           4.0959    0.0231    0.6199 C.ar    1  LIG1        0.0130
     14 C           5.4882   -0.0076    0.5618 C.ar    1  LIG1       -0.0402
     15 C           3.3975    1.1181    0.0867 C.ar    1  LIG1       -0.0047
     16 C           6.2156    1.0314   -0.0162 C.ar    1  LIG1       -0.0158
     17 H           6.0245   -0.8465    0.9918 H       1  LIG1        0.0635
     18 C           4.1378    2.1596   -0.4758 C.ar    1  LIG1       -0.0524
     19 C           5.5215    2.1267   -0.5307 C.ar    1  LIG1       -0.0534
     20 H           3.6017    3.0047   -0.8952 H       1  LIG1        0.0624
     21 S           3.1930   -1.2939    1.4157 S.3     1  LIG1       -0.1420
     22 H           4.2781   -1.9714    1.8225 H       1  LIG1        0.1071
     23 H           6.0689    2.9424   -0.9906 H       1  LIG1        0.0624
     24 C           8.4388   -0.0374   -0.6287 C.ar    1  LIG1        0.0130
     25 C           9.8321    0.0040   -0.6144 C.ar    1  LIG1       -0.0402
     26 C           7.7026    1.0046   -0.0427 C.ar    1  LIG1       -0.0047
     27 C          10.5235    1.0639   -0.0307 C.ar    1  LIG1       -0.0158
     28 H          10.3968   -0.7938   -1.0848 H       1  LIG1        0.0635
     29 C           8.4066    2.0685    0.5252 C.ar    1  LIG1       -0.0524
     30 C           9.7910    2.1074    0.5355 C.ar    1  LIG1       -0.0534
     31 H           7.8418    2.8728    0.9853 H       1  LIG1        0.0624
     32 S           7.5815   -1.3778   -1.4361 S.3     1  LIG1       -0.1420
     33 H           8.6874   -1.9855   -1.8937 H       1  LIG1        0.1071
     34 H          10.3104    2.9384    1.0003 H       1  LIG1        0.0624
     35 C          12.8129    0.0981    0.4943 C.ar    1  LIG1        0.0124
     36 C          14.2027    0.2100    0.4363 C.ar    1  LIG1       -0.0480
     37 C          12.0105    1.1134   -0.0511 C.ar    1  LIG1       -0.0047
     38 C          14.8029    1.3180   -0.1431 C.ar    1  LIG1       -0.0607
     39 H          14.8239   -0.5747    0.8558 H       1  LIG1        0.0629
     40 C          12.6380    2.2220   -0.6249 C.ar    1  LIG1       -0.0530
     41 C          14.0193    2.3335   -0.6754 C.ar    1  LIG1       -0.0611
     42 H          12.0148    3.0025   -1.0494 H       1  LIG1        0.0624
     43 H          15.8854    1.3844   -0.1751 H       1  LIG1        0.0618
     44 S          12.0444   -1.3028    1.2902 S.3     1  LIG1       -0.1420
     45 H          13.1855   -1.8274    1.7645 H       1  LIG1        0.1071
     46 H          14.4793    3.2036   -1.1310 H       1  LIG1        0.0618
@<TRIPOS>BOND
     1    33    32    1
     2    11    10    1
     3    32    24    1
     4    10     1    1
     5    46    41    1
     6    28    25    1
     7    42    40    1
     8    23    19    1
     9     5     2    1
    10    20    18    1
    11    41    40   ar
    12    41    38   ar
    13    24    25   ar
    14    24    26   ar
    15    40    37   ar
    16    25    27   ar
    17    19    18   ar
    18    19    16   ar
    19     1     2   ar
    20     1     3   ar
    21     2     4   ar
    22    18    15   ar
    23    43    38    1
    24    38    36   ar
    25    37    27    1
    26    37    35   ar
    27    26    16    1
    28    26    29   ar
    29    27    30   ar
    30    16    14   ar
    31    15     4    1
    32    15    13   ar
    33     3     9    1
    34     3     6   ar
    35     4     7   ar
    36    36    35   ar
    37    36    39    1
    38    35    44    1
    39    29    30   ar
    40    29    31    1
    41    30    34    1
    42    14    13   ar
    43    14    17    1
    44    13    21    1
    45     6     7   ar
    46     6     8    1
    47     7    12    1
    48    44    45    1
    49    21    22    1
