@<TRIPOS>MOLECULE
mol_data/opt/cam/geoms/mol2/4ga4ga4ga.out
 35 37 0 0 0
SMALL
GASTEIGER

@<TRIPOS>ATOM
      1 C          -0.1688    0.6297    0.7049 C.ar    1  LIG1        0.0053
      2 C           1.2191    0.5476    0.7825 C.ar    1  LIG1       -0.0408
      3 C          -0.7627    1.3046   -0.3605 C.ar    1  LIG1       -0.0485
      4 C           2.0229    1.1224   -0.2033 C.ar    1  LIG1       -0.0158
      5 H           1.6873    0.0468    1.6232 H       1  LIG1        0.0635
      6 C           0.0344    1.8918   -1.3329 C.ar    1  LIG1       -0.0602
      7 C           1.4181    1.8032   -1.2611 C.ar    1  LIG1       -0.0539
      8 H          -0.4311    2.4142   -2.1623 H       1  LIG1        0.0618
      9 H          -1.8438    1.3654   -0.4306 H       1  LIG1        0.0628
     10 S          -1.2353   -0.0716    1.9447 S.3     1  LIG1       -0.1426
     11 H          -0.2998   -0.8070    2.5656 H       1  LIG1        0.1071
     12 H           2.0368    2.2473   -2.0334 H       1  LIG1        0.0624
     13 C           4.2150   -0.1510   -0.0224 C.ar    1  LIG1        0.0130
     14 C           5.6062   -0.1353    0.0676 C.ar    1  LIG1       -0.0402
     15 C           3.5064    1.0576   -0.1095 C.ar    1  LIG1       -0.0047
     16 C           6.3237    1.0591    0.0509 C.ar    1  LIG1       -0.0158
     17 H           6.1476   -1.0709    0.1577 H       1  LIG1        0.0635
     18 C           4.2364    2.2482   -0.1200 C.ar    1  LIG1       -0.0524
     19 C           5.6192    2.2595   -0.0422 C.ar    1  LIG1       -0.0534
     20 H           3.6927    3.1850   -0.1850 H       1  LIG1        0.0624
     21 S           3.3308   -1.7008   -0.0558 S.3     1  LIG1       -0.1420
     22 H           4.4219   -2.4712   -0.1901 H       1  LIG1        0.1071
     23 H           6.1594    3.1998   -0.0617 H       1  LIG1        0.0624
     24 C           8.6470    0.3794   -0.7178 C.ar    1  LIG1        0.0124
     25 C          10.0301    0.4263   -0.5386 C.ar    1  LIG1       -0.0480
     26 C           7.8067    1.0647    0.1746 C.ar    1  LIG1       -0.0047
     27 C          10.5873    1.1520    0.5038 C.ar    1  LIG1       -0.0607
     28 H          10.6804   -0.1045   -1.2263 H       1  LIG1        0.0629
     29 C           8.3915    1.7931    1.2136 C.ar    1  LIG1       -0.0530
     30 C           9.7667    1.8432    1.3854 C.ar    1  LIG1       -0.0611
     31 H           7.7389    2.3181    1.9037 H       1  LIG1        0.0624
     32 H          11.6656    1.1758    0.6225 H       1  LIG1        0.0618
     33 S           7.9363   -0.5089   -2.0937 S.3     1  LIG1       -0.1420
     34 H           9.1071   -0.7951   -2.6847 H       1  LIG1        0.1071
     35 H          10.1930    2.4133    2.2036 H       1  LIG1        0.0618
@<TRIPOS>BOND
     1    34    33    1
     2     8     6    1
     3    33    24    1
     4    12     7    1
     5     6     7   ar
     6     6     3   ar
     7     7     4   ar
     8    28    25    1
     9    24    25   ar
    10    24    26   ar
    11    25    27   ar
    12     9     3    1
    13     3     1   ar
    14     4    15    1
    15     4     2   ar
    16    22    21    1
    17    20    18    1
    18    18    15   ar
    19    18    19   ar
    20    15    13   ar
    21    23    19    1
    22    21    13    1
    23    19    16   ar
    24    13    14   ar
    25    16    14   ar
    26    16    26    1
    27    14    17    1
    28    26    29   ar
    29    27    32    1
    30    27    30   ar
    31     1     2   ar
    32     1    10    1
    33     2     5    1
    34    29    30   ar
    35    29    31    1
    36    30    35    1
    37    10    11    1
