@<TRIPOS>MOLECULE
mol_data/opt/cam/geoms/mol2/4ga4ga4ga-4ga-.out
 46 49 0 0 0
SMALL
GASTEIGER

@<TRIPOS>ATOM
      1 C          -0.2683    0.3604    0.4982 C.ar    1  LIG1        0.0053
      2 C           1.1195    0.2485    0.5001 C.ar    1  LIG1       -0.0408
      3 C          -0.8721    1.4628   -0.1053 C.ar    1  LIG1       -0.0485
      4 C           1.9134    1.2235   -0.1063 C.ar    1  LIG1       -0.0158
      5 H           1.5970   -0.5948    0.9873 H       1  LIG1        0.0635
      6 C          -0.0847    2.4411   -0.6955 C.ar    1  LIG1       -0.0602
      7 C           1.2992    2.3271   -0.7000 C.ar    1  LIG1       -0.0539
      8 H          -0.5579    3.2968   -1.1659 H       1  LIG1        0.0618
      9 H          -1.9534    1.5522   -0.1162 H       1  LIG1        0.0628
     10 S          -1.3228   -0.8463    1.2709 S.3     1  LIG1       -0.1426
     11 H          -0.3765   -1.7731    1.4876 H       1  LIG1        0.1071
     12 H           1.9103    3.0859   -1.1768 H       1  LIG1        0.0624
     13 C           4.0962    0.0229   -0.6088 C.ar    1  LIG1        0.0130
     14 C           5.4884   -0.0086   -0.5487 C.ar    1  LIG1       -0.0402
     15 C           3.3978    1.1201   -0.0802 C.ar    1  LIG1       -0.0047
     16 C           6.2156    1.0319    0.0268 C.ar    1  LIG1       -0.0158
     17 H           6.0248   -0.8493   -0.9750 H       1  LIG1        0.0635
     18 C           4.1380    2.1630    0.4796 C.ar    1  LIG1       -0.0524
     19 C           5.5216    2.1294    0.5366 C.ar    1  LIG1       -0.0534
     20 H           3.6019    3.0099    0.8954 H       1  LIG1        0.0624
     21 S           3.1935   -1.2963   -1.4013 S.3     1  LIG1       -0.1420
     22 H           4.2787   -1.9759   -1.8042 H       1  LIG1        0.1071
     23 H           6.0689    2.9463    0.9945 H       1  LIG1        0.0624
     24 C           8.4373   -0.0363    0.6461 C.ar    1  LIG1        0.0130
     25 C           9.8307    0.0042    0.6336 C.ar    1  LIG1       -0.0402
     26 C           7.7026    1.0042    0.0554 C.ar    1  LIG1       -0.0047
     27 C          10.5236    1.0617    0.0472 C.ar    1  LIG1       -0.0158
     28 H          10.3942   -0.7924    1.1074 H       1  LIG1        0.0635
     29 C           8.4081    2.0657   -0.5151 C.ar    1  LIG1       -0.0524
     30 C           9.7926    2.1036   -0.5236 C.ar    1  LIG1       -0.0534
     31 H           7.8445    2.8688   -0.9787 H       1  LIG1        0.0624
     32 S           7.5780   -1.3733    1.4568 S.3     1  LIG1       -0.1420
     33 H           8.6829   -1.9802    1.9180 H       1  LIG1        0.1071
     34 H          10.3131    2.9328   -0.9905 H       1  LIG1        0.0624
     35 C          12.8131    0.0925   -0.4714 C.ar    1  LIG1        0.0124
     36 C          14.2029    0.2037   -0.4119 C.ar    1  LIG1       -0.0480
     37 C          12.0106    1.1102    0.0694 C.ar    1  LIG1       -0.0047
     38 C          14.8030    1.3133    0.1646 C.ar    1  LIG1       -0.0607
     39 H          14.8241   -0.5829   -0.8278 H       1  LIG1        0.0629
     40 C          12.6380    2.2204    0.6403 C.ar    1  LIG1       -0.0530
     41 C          14.0193    2.3311    0.6923 C.ar    1  LIG1       -0.0611
     42 H          12.0148    3.0027    1.0613 H       1  LIG1        0.0624
     43 H          15.8855    1.3791    0.1978 H       1  LIG1        0.0618
     44 S          12.0447   -1.3106   -1.2636 S.3     1  LIG1       -0.1420
     45 H          13.1861   -1.8376   -1.7345 H       1  LIG1        0.1071
     46 H          14.4792    3.2025    1.1455 H       1  LIG1        0.0618
@<TRIPOS>BOND
     1    22    21    1
     2    45    44    1
     3    21    13    1
     4    44    35    1
     5    12     7    1
     6     8     6    1
     7    34    30    1
     8    31    29    1
     9    17    14    1
    10    39    36    1
    11     7     6   ar
    12     7     4   ar
    13     6     3   ar
    14    13    14   ar
    15    13    15   ar
    16    14    16   ar
    17    30    29   ar
    18    30    27   ar
    19    29    26   ar
    20    35    36   ar
    21    35    37   ar
    22    36    38   ar
    23     9     3    1
    24     4    15    1
    25     4     2   ar
    26     3     1   ar
    27    15    18   ar
    28    16    26    1
    29    16    19   ar
    30    27    37    1
    31    27    25   ar
    32    26    24   ar
    33    37    40   ar
    34    38    43    1
    35    38    41   ar
    36    18    19   ar
    37    18    20    1
    38     1     2   ar
    39     1    10    1
    40     2     5    1
    41    19    23    1
    42    25    24   ar
    43    25    28    1
    44    40    41   ar
    45    40    42    1
    46    24    32    1
    47    41    46    1
    48    10    11    1
    49    32    33    1
