@<TRIPOS>MOLECULE
mol_data/opt/cam/geoms/mol2/4ga4ga-4ga-4ga-.out
 46 49 0 0 0
SMALL
GASTEIGER

@<TRIPOS>ATOM
      1 C          -0.2631    0.1760   -0.2446 C.ar    1  LIG1        0.0053
      2 C           1.1232    0.0792   -0.1581 C.ar    1  LIG1       -0.0408
      3 C          -0.8677    1.4320   -0.2752 C.ar    1  LIG1       -0.0485
      4 C           1.9144    1.2273   -0.0896 C.ar    1  LIG1       -0.0158
      5 H           1.6019   -0.8941   -0.1573 H       1  LIG1        0.0635
      6 C          -0.0827    2.5750   -0.2230 C.ar    1  LIG1       -0.0602
      7 C           1.2994    2.4796   -0.1294 C.ar    1  LIG1       -0.0539
      8 H          -0.5567    3.5508   -0.2454 H       1  LIG1        0.0618
      9 H          -1.9480    1.5140   -0.3360 H       1  LIG1        0.0628
     10 S          -1.3136   -1.2560   -0.3480 S.3     1  LIG1       -0.1426
     11 H          -0.3699   -2.1689   -0.0697 H       1  LIG1        0.1071
     12 H           1.9082    3.3755   -0.0722 H       1  LIG1        0.0624
     13 C           4.0730    0.4247    0.9861 C.ar    1  LIG1        0.0130
     14 C           5.4659    0.3708    0.9826 C.ar    1  LIG1       -0.0402
     15 C           3.3978    1.1266   -0.0250 C.ar    1  LIG1       -0.0047
     16 C           6.2166    1.0033   -0.0068 C.ar    1  LIG1       -0.0158
     17 H           5.9835   -0.1558    1.7772 H       1  LIG1        0.0635
     18 C           4.1615    1.7684   -1.0020 C.ar    1  LIG1       -0.0524
     19 C           5.5456    1.7147   -1.0015 C.ar    1  LIG1       -0.0534
     20 H           3.6437    2.3055   -1.7900 H       1  LIG1        0.0624
     21 S           3.1401   -0.3452    2.2979 S.3     1  LIG1       -0.1420
     22 H           4.2094   -0.7464    3.0033 H       1  LIG1        0.1071
     23 H           6.1111    2.2075   -1.7849 H       1  LIG1        0.0624
     24 C           8.4388   -0.2291    0.0251 C.ar    1  LIG1        0.0130
     25 C           9.8321   -0.1865    0.0547 C.ar    1  LIG1       -0.0402
     26 C           7.7031    0.9664    0.0179 C.ar    1  LIG1       -0.0047
     27 C          10.5241    1.0229    0.0547 C.ar    1  LIG1       -0.0158
     28 H          10.3955   -1.1129    0.0834 H       1  LIG1        0.0635
     29 C           8.4079    2.1722    0.0224 C.ar    1  LIG1       -0.0524
     30 C           9.7922    2.2105    0.0401 C.ar    1  LIG1       -0.0534
     31 H           7.8435    3.0990    0.0187 H       1  LIG1        0.0624
     32 S           7.5853   -1.7953   -0.0315 S.3     1  LIG1       -0.1420
     33 H           8.6839   -2.5354   -0.2490 H       1  LIG1        0.1071
     34 H          10.3122    3.1623    0.0344 H       1  LIG1        0.0624
     35 C          12.8247    0.4284   -0.8416 C.ar    1  LIG1        0.0124
     36 C          14.2131    0.4983   -0.7199 C.ar    1  LIG1       -0.0480
     37 C          12.0106    1.0560    0.1151 C.ar    1  LIG1       -0.0047
     38 C          14.8004    1.1903    0.3289 C.ar    1  LIG1       -0.0607
     39 H          14.8435    0.0124   -1.4576 H       1  LIG1        0.0629
     40 C          12.6251    1.7518    1.1592 C.ar    1  LIG1       -0.0530
     41 C          14.0051    1.8246    1.2744 C.ar    1  LIG1       -0.0611
     42 H          11.9925    2.2323    1.8986 H       1  LIG1        0.0624
     43 H          15.8820    1.2329    0.4024 H       1  LIG1        0.0618
     44 S          12.0722   -0.4155   -2.2231 S.3     1  LIG1       -0.1420
     45 H          13.2217   -0.6545   -2.8741 H       1  LIG1        0.1071
     46 H          14.4551    2.3682    2.0979 H       1  LIG1        0.0618
@<TRIPOS>BOND
     1    45    44    1
     2    44    35    1
     3    20    18    1
     4    23    19    1
     5    39    36    1
     6    18    19   ar
     7    18    15   ar
     8    19    16   ar
     9    35    36   ar
    10    35    37   ar
    11    36    38   ar
    12    10     1    1
    13    10    11    1
    14     9     3    1
    15     3     1   ar
    16     3     6   ar
    17    33    32    1
    18     8     6    1
    19     1     2   ar
    20     6     7   ar
    21     2     5    1
    22     2     4   ar
    23     7     4   ar
    24     7    12    1
    25     4    15    1
    26    32    24    1
    27    15    13   ar
    28    16    26    1
    29    16    14   ar
    30    26    29   ar
    31    26    24   ar
    32    31    29    1
    33    29    30   ar
    34    24    25   ar
    35    34    30    1
    36    30    27   ar
    37    25    27   ar
    38    25    28    1
    39    27    37    1
    40    37    40   ar
    41    38    43    1
    42    38    41   ar
    43    14    13   ar
    44    14    17    1
    45    13    21    1
    46    40    41   ar
    47    40    42    1
    48    41    46    1
    49    21    22    1
