@<TRIPOS>MOLECULE
mol_data/opt/cam/geoms/mol2/4gd.out
 14 14 0 0 0
SMALL
GASTEIGER

@<TRIPOS>ATOM
      1 C           0.1072    0.0657    0.0004 C.ar    1  LIG1        0.0048
      2 C           1.5029    0.0570    0.0000 C.ar    1  LIG1       -0.0473
      3 C          -0.5730    1.2860    0.0003 C.ar    1  LIG1       -0.0473
      4 C           2.2083    1.2488   -0.0005 C.ar    1  LIG1       -0.0433
      5 H           2.0451   -0.8825    0.0001 H       1  LIG1        0.0629
      6 C           0.1299    2.4776   -0.0002 C.ar    1  LIG1       -0.0433
      7 C           1.5275    2.4681   -0.0006 C.ar    1  LIG1        0.0518
      8 H          -0.4006    3.4229   -0.0003 H       1  LIG1        0.0631
      9 H           3.2923    1.2389   -0.0008 H       1  LIG1        0.0631
     10 H          -1.6577    1.3021    0.0006 H       1  LIG1        0.0629
     11 S          -0.8626   -1.4175    0.0010 S.3     1  LIG1       -0.1426
     12 H           0.1642   -2.2820    0.0010 H       1  LIG1        0.1071
     13 N           2.8483    4.6970   -0.0015 N.1     1  LIG1       -0.1909
     14 C           2.2582    3.7020   -0.0011 C.1     1  LIG1        0.0992
@<TRIPOS>BOND
     1    13    14    3
     2    14     7    1
     3     9     4    1
     4     7     4   ar
     5     7     6   ar
     6     4     2   ar
     7     8     6    1
     8     6     3   ar
     9     2     5    1
    10     2     1   ar
    11     3     1   ar
    12     3    10    1
    13     1    11    1
    14    12    11    1
