@<TRIPOS>MOLECULE
mol_data/opt/cam/geoms/mol2/4gd4gd4gd4gd-.out
 50 53 0 0 0
SMALL
GASTEIGER

@<TRIPOS>ATOM
      1 C          -0.1672    0.7850    1.1930 C.ar    1  LIG1        0.0054
      2 C           1.2246    0.7483    1.1207 C.ar    1  LIG1       -0.0396
      3 C          -0.8975    1.2824    0.1118 C.ar    1  LIG1       -0.0473
      4 C           1.8995    1.1935   -0.0121 C.ar    1  LIG1        0.0016
      5 H           1.8042    0.3757    1.9584 H       1  LIG1        0.0635
      6 C          -0.2404    1.7318   -1.0180 C.ar    1  LIG1       -0.0427
      7 C           1.1546    1.6913   -1.0933 C.ar    1  LIG1        0.0596
      8 H          -0.8052    2.1152   -1.8599 H       1  LIG1        0.0631
      9 H          -1.9807    1.3158    0.1548 H       1  LIG1        0.0629
     10 S          -1.0661    0.2368    2.6160 S.3     1  LIG1       -0.1426
     11 H          -0.0084   -0.1991    3.3179 H       1  LIG1        0.1071
     12 N           2.3014    2.5282   -3.2609 N.1     1  LIG1       -0.1909
     13 C           1.8023    2.1504   -2.2883 C.1     1  LIG1        0.0998
     14 C           4.1026   -0.0490   -0.0554 C.ar    1  LIG1        0.0131
     15 C           5.4974   -0.0250   -0.0689 C.ar    1  LIG1       -0.0390
     16 C           3.3887    1.1600   -0.0473 C.ar    1  LIG1       -0.0022
     17 C           6.2083    1.1686   -0.0835 C.ar    1  LIG1        0.0016
     18 H           6.0525   -0.9566   -0.0650 H       1  LIG1        0.0635
     19 C           4.0977    2.3553   -0.0663 C.ar    1  LIG1       -0.0350
     20 C           5.4913    2.3754   -0.0830 C.ar    1  LIG1        0.0601
     21 H           3.5566    3.2946   -0.0692 H       1  LIG1        0.0637
     22 S           3.2083   -1.5820   -0.0585 S.3     1  LIG1       -0.1420
     23 H           4.2836   -2.3666   -0.2318 H       1  LIG1        0.1071
     24 N           6.7059    4.6642   -0.1051 N.1     1  LIG1       -0.1908
     25 C           6.1717    3.6385   -0.1014 C.1     1  LIG1        0.0998
     26 C           8.4409    0.6635   -1.1604 C.ar    1  LIG1        0.0131
     27 C           9.8345    0.6618   -1.0941 C.ar    1  LIG1       -0.0390
     28 C           7.6978    1.1495   -0.0726 C.ar    1  LIG1       -0.0022
     29 C          10.5156    1.1250    0.0250 C.ar    1  LIG1        0.0016
     30 H          10.4130    0.3004   -1.9372 H       1  LIG1        0.0635
     31 C           8.3762    1.6221    1.0444 C.ar    1  LIG1       -0.0350
     32 C           9.7685    1.6111    1.1095 C.ar    1  LIG1        0.0601
     33 H           7.8124    2.0012    1.8889 H       1  LIG1        0.0637
     34 S           7.5844    0.0925   -2.6050 S.3     1  LIG1       -0.1420
     35 H           8.6873   -0.1553   -3.3288 H       1  LIG1        0.1071
     36 N          10.9108    2.4559    3.2764 N.1     1  LIG1       -0.1908
     37 C          10.4127    2.0804    2.3025 C.1     1  LIG1        0.0998
     38 C          12.7416   -0.0724    0.0447 C.ar    1  LIG1        0.0126
     39 C          14.1373   -0.0227    0.0514 C.ar    1  LIG1       -0.0468
     40 C          12.0053    1.1235    0.0454 C.ar    1  LIG1       -0.0022
     41 C          14.8027    1.1891    0.0616 C.ar    1  LIG1       -0.0433
     42 H          14.7120   -0.9423    0.0521 H       1  LIG1        0.0629
     43 C          12.6841    2.3383    0.0612 C.ar    1  LIG1       -0.0355
     44 C          14.0770    2.3816    0.0664 C.ar    1  LIG1        0.0524
     45 H          12.1198    3.2640    0.0654 H       1  LIG1        0.0637
     46 H          15.8861    1.2166    0.0670 H       1  LIG1        0.0631
     47 S          11.8731   -1.6226    0.0557 S.3     1  LIG1       -0.1420
     48 H          12.9651   -2.3905    0.1955 H       1  LIG1        0.1071
     49 N          15.3229    4.6531    0.0604 N.1     1  LIG1       -0.1909
     50 C          14.7619    3.6419    0.0678 C.1     1  LIG1        0.0992
@<TRIPOS>BOND
     1    35    34    1
     2    12    13    3
     3    34    26    1
     4    13     7    1
     5    30    27    1
     6     8     6    1
     7    26    27   ar
     8    26    28   ar
     9    27    29   ar
    10     7     6   ar
    11     7     4   ar
    12     6     3   ar
    13    23    22    1
    14    24    25    3
    15    25    20    1
    16    17    20   ar
    17    17    28    1
    18    17    15   ar
    19    20    19   ar
    20    28    31   ar
    21    21    19    1
    22    15    18    1
    23    15    14   ar
    24    19    16   ar
    25    22    14    1
    26    14    16   ar
    27    16     4    1
    28     4     2   ar
    29    29    40    1
    30    29    32   ar
    31    38    40   ar
    32    38    39   ar
    33    38    47    1
    34    40    43   ar
    35    39    42    1
    36    39    41   ar
    37    47    48    1
    38    49    50    3
    39    43    45    1
    40    43    44   ar
    41    41    44   ar
    42    41    46    1
    43    44    50    1
    44     3     9    1
    45     3     1   ar
    46    31    32   ar
    47    31    33    1
    48    32    37    1
    49     2     1   ar
    50     2     5    1
    51     1    10    1
    52    37    36    3
    53    10    11    1
