@<TRIPOS>MOLECULE
mol_data/opt/cam/geoms/mol2/4gd4gd4gd-4gd-.out
 50 53 0 0 0
SMALL
GASTEIGER

@<TRIPOS>ATOM
      1 C          -0.2233    0.2898    0.6779 C.ar    1  LIG1        0.0054
      2 C           1.1702    0.2583    0.6528 C.ar    1  LIG1       -0.0396
      3 C          -0.8994    1.3061   -0.0004 C.ar    1  LIG1       -0.0473
      4 C           1.8997    1.2192   -0.0407 C.ar    1  LIG1        0.0016
      5 H           1.7081   -0.5191    1.1847 H       1  LIG1        0.0635
      6 C          -0.1877    2.2691   -0.6905 C.ar    1  LIG1       -0.0427
      7 C           1.2091    2.2359   -0.7198 C.ar    1  LIG1        0.0596
      8 H          -0.7103    3.0569   -1.2207 H       1  LIG1        0.0631
      9 H          -1.9833    1.3415    0.0110 H       1  LIG1        0.0629
     10 S          -1.1917   -0.9067    1.5523 S.3     1  LIG1       -0.1426
     11 H          -0.1697   -1.6750    1.9607 H       1  LIG1        0.1071
     12 N           2.4709    4.0603   -2.0592 N.1     1  LIG1       -0.1909
     13 C           1.9175    3.2406   -1.4593 C.1     1  LIG1        0.0998
     14 C           4.1024    0.1400   -0.6614 C.ar    1  LIG1        0.0131
     15 C           5.4968    0.1413   -0.6190 C.ar    1  LIG1       -0.0390
     16 C           3.3889    1.1719   -0.0309 C.ar    1  LIG1       -0.0022
     17 C           6.2075    1.1396    0.0359 C.ar    1  LIG1        0.0016
     18 H           6.0520   -0.6467   -1.1156 H       1  LIG1        0.0635
     19 C           4.0979    2.1751    0.6192 C.ar    1  LIG1       -0.0350
     20 C           5.4908    2.1699    0.6648 C.ar    1  LIG1        0.0601
     21 H           3.5571    2.9771    1.1083 H       1  LIG1        0.0637
     22 S           3.2075   -1.1263   -1.5243 S.3     1  LIG1       -0.1420
     23 H           4.2909   -1.7588   -2.0017 H       1  LIG1        0.1071
     24 N           6.7030    4.0588    1.9598 N.1     1  LIG1       -0.1908
     25 C           6.1702    3.2142    1.3765 C.1     1  LIG1        0.0998
     26 C           8.4231    0.1152    0.6996 C.ar    1  LIG1        0.0131
     27 C           9.8172    0.1391    0.6654 C.ar    1  LIG1       -0.0390
     28 C           7.6967    1.1178    0.0379 C.ar    1  LIG1       -0.0022
     29 C          10.5157    1.1312   -0.0119 C.ar    1  LIG1        0.0016
     30 H          10.3826   -0.6261    1.1858 H       1  LIG1        0.0635
     31 C           8.3925    2.1161   -0.6342 C.ar    1  LIG1       -0.0350
     32 C           9.7856    2.1326   -0.6714 C.ar    1  LIG1        0.0601
     33 H           7.8413    2.8955   -1.1481 H       1  LIG1        0.0637
     34 S           7.5458   -1.1438    1.5925 S.3     1  LIG1       -0.1420
     35 H           8.6372   -1.7444    2.0920 H       1  LIG1        0.1071
     36 N          10.9735    4.0083   -2.0076 N.1     1  LIG1       -0.1908
     37 C          10.4520    3.1696   -1.4060 C.1     1  LIG1        0.0998
     38 C          12.7464    0.1248   -0.6444 C.ar    1  LIG1        0.0126
     39 C          14.1418    0.1608   -0.5985 C.ar    1  LIG1       -0.0468
     40 C          12.0055    1.1316   -0.0042 C.ar    1  LIG1       -0.0022
     41 C          14.8023    1.1768    0.0671 C.ar    1  LIG1       -0.0433
     42 H          14.7202   -0.6125   -1.0919 H       1  LIG1        0.0629
     43 C          12.6794    2.1532    0.6582 C.ar    1  LIG1       -0.0355
     44 C          14.0721    2.1828    0.7023 C.ar    1  LIG1        0.0524
     45 H          12.1115    2.9350    1.1496 H       1  LIG1        0.0637
     46 H          15.8855    1.1956    0.0966 H       1  LIG1        0.0631
     47 S          11.8841   -1.1615   -1.5157 S.3     1  LIG1       -0.1420
     48 H          12.9812   -1.7348   -2.0344 H       1  LIG1        0.1071
     49 N          15.3086    4.0707    1.9746 N.1     1  LIG1       -0.1909
     50 C          14.7518    3.2333    1.4035 C.1     1  LIG1        0.0992
@<TRIPOS>BOND
     1    12    13    3
     2    48    47    1
     3    36    37    3
     4    23    22    1
     5    22    14    1
     6    47    38    1
     7    13     7    1
     8    37    32    1
     9     8     6    1
    10    33    31    1
    11    18    15    1
    12    42    39    1
    13     7     6   ar
    14     7     4   ar
    15     6     3   ar
    16    32    31   ar
    17    32    29   ar
    18    14    15   ar
    19    14    16   ar
    20    38    39   ar
    21    38    40   ar
    22    31    28   ar
    23    15    17   ar
    24    39    41   ar
    25     4    16    1
    26     4     2   ar
    27    16    19   ar
    28    29    40    1
    29    29    27   ar
    30    40    43   ar
    31     3     9    1
    32     3     1   ar
    33    17    28    1
    34    17    20   ar
    35    28    26   ar
    36    41    46    1
    37    41    44   ar
    38    19    20   ar
    39    19    21    1
    40     2     1   ar
    41     2     5    1
    42    43    44   ar
    43    43    45    1
    44    20    25    1
    45    27    26   ar
    46    27    30    1
    47     1    10    1
    48    26    34    1
    49    44    50    1
    50    25    24    3
    51    50    49    3
    52    10    11    1
    53    34    35    1
