@<TRIPOS>MOLECULE
mol_data/opt/cam/geoms/mol2/4gd4gd4gd-4gd.out
 50 53 0 0 0
SMALL
GASTEIGER

@<TRIPOS>ATOM
      1 C          -0.2218    0.2822    0.6850 C.ar    1  LIG1        0.0054
      2 C           1.1717    0.2508    0.6562 C.ar    1  LIG1       -0.0396
      3 C          -0.8994    1.3067    0.0208 C.ar    1  LIG1       -0.0473
      4 C           1.8996    1.2201   -0.0273 C.ar    1  LIG1        0.0016
      5 H           1.7108   -0.5330    1.1772 H       1  LIG1        0.0635
      6 C          -0.1892    2.2780   -0.6592 C.ar    1  LIG1       -0.0427
      7 C           1.2075    2.2450   -0.6924 C.ar    1  LIG1        0.0596
      8 H          -0.7130    3.0723   -1.1785 H       1  LIG1        0.0631
      9 H          -1.9833    1.3420    0.0352 H       1  LIG1        0.0629
     10 S          -1.1881   -0.9249    1.5470 S.3     1  LIG1       -0.1426
     11 H          -0.1652   -1.6981    1.9436 H       1  LIG1        0.1071
     12 N           2.4662    4.0856   -2.0123 N.1     1  LIG1       -0.1909
     13 C           1.9143    3.2586   -1.4212 C.1     1  LIG1        0.0998
     14 C           4.1007    0.1484   -0.6665 C.ar    1  LIG1        0.0131
     15 C           5.4952    0.1491   -0.6274 C.ar    1  LIG1       -0.0390
     16 C           3.3889    1.1726   -0.0217 C.ar    1  LIG1       -0.0022
     17 C           6.2075    1.1392    0.0380 C.ar    1  LIG1        0.0016
     18 H           6.0491   -0.6328   -1.1349 H       1  LIG1        0.0635
     19 C           4.0995    2.1677    0.6389 C.ar    1  LIG1       -0.0350
     20 C           5.4925    2.1619    0.6811 C.ar    1  LIG1        0.0601
     21 H           3.5599    2.9637    1.1391 H       1  LIG1        0.0637
     22 S           3.2037   -1.1072   -1.5426 S.3     1  LIG1       -0.1420
     23 H           4.2858   -1.7339   -2.0302 H       1  LIG1        0.1071
     24 N           6.7080    4.0347    1.9961 N.1     1  LIG1       -0.1908
     25 C           6.1737    3.1974    1.4039 C.1     1  LIG1        0.0998
     26 C           8.4247    0.1067    0.6838 C.ar    1  LIG1        0.0131
     27 C           9.8187    0.1309    0.6465 C.ar    1  LIG1       -0.0390
     28 C           7.6968    1.1173    0.0361 C.ar    1  LIG1       -0.0022
     29 C          10.5156    1.1312   -0.0202 C.ar    1  LIG1        0.0016
     30 H          10.3852   -0.6406    1.1562 H       1  LIG1        0.0635
     31 C           8.3910    2.1238   -0.6254 C.ar    1  LIG1       -0.0350
     32 C           9.7840    2.1406   -0.6658 C.ar    1  LIG1        0.0601
     33 H           7.8387    2.9093   -1.1285 H       1  LIG1        0.0637
     34 S           7.5494   -1.1630    1.5634 S.3     1  LIG1       -0.1420
     35 H           8.6419   -1.7698    2.0528 H       1  LIG1        0.1071
     36 N          10.9689    4.0324   -1.9818 N.1     1  LIG1       -0.1908
     37 C          10.4488    3.1864   -1.3893 C.1     1  LIG1        0.0998
     38 C          12.7447    0.1324   -0.6704 C.ar    1  LIG1        0.0126
     39 C          14.1402    0.1678   -0.6274 C.ar    1  LIG1       -0.0468
     40 C          12.0055    1.1313   -0.0161 C.ar    1  LIG1       -0.0022
     41 C          14.8024    1.1755    0.0489 C.ar    1  LIG1       -0.0433
     42 H          14.7174   -0.5995   -1.1316 H       1  LIG1        0.0629
     43 C          12.6811    2.1448    0.6570 C.ar    1  LIG1       -0.0355
     44 C          14.0738    2.1737    0.6981 C.ar    1  LIG1        0.0524
     45 H          12.1144    2.9206    1.1594 H       1  LIG1        0.0637
     46 H          15.8857    1.1939    0.0761 H       1  LIG1        0.0631
     47 S          11.8802   -1.1431   -1.5552 S.3     1  LIG1       -0.1420
     48 H          12.9760   -1.7101   -2.0835 H       1  LIG1        0.1071
     49 N          15.3136    4.0458    1.9905 N.1     1  LIG1       -0.1909
     50 C          14.7553    3.2155    1.4105 C.1     1  LIG1        0.0992
@<TRIPOS>BOND
     1    48    47    1
     2    23    22    1
     3    12    13    3
     4    36    37    3
     5    47    38    1
     6    22    14    1
     7    13     7    1
     8    37    32    1
     9     8     6    1
    10    18    15    1
    11    42    39    1
    12    33    31    1
    13     7     6   ar
    14     7     4   ar
    15    38    39   ar
    16    38    40   ar
    17    14    15   ar
    18    14    16   ar
    19    32    31   ar
    20    32    29   ar
    21     6     3   ar
    22    39    41   ar
    23    15    17   ar
    24    31    28   ar
    25     4    16    1
    26     4     2   ar
    27    16    19   ar
    28    29    40    1
    29    29    27   ar
    30    40    43   ar
    31     3     9    1
    32     3     1   ar
    33    28    17    1
    34    28    26   ar
    35    17    20   ar
    36    41    46    1
    37    41    44   ar
    38    19    20   ar
    39    19    21    1
    40    27    26   ar
    41    27    30    1
    42     2     1   ar
    43     2     5    1
    44    43    44   ar
    45    43    45    1
    46    20    25    1
    47    26    34    1
    48     1    10    1
    49    44    50    1
    50    25    24    3
    51    50    49    3
    52    10    11    1
    53    34    35    1
