@<TRIPOS>MOLECULE
mol_data/opt/cam/geoms/mol2/4gd4gd-4gd-4gd-.out
 50 53 0 0 0
SMALL
GASTEIGER

@<TRIPOS>ATOM
      1 C          -0.2154    0.0464    0.0134 C.ar    1  LIG1        0.0054
      2 C           1.1785    0.0449    0.0357 C.ar    1  LIG1       -0.0396
      3 C          -0.9000    1.2628   -0.0287 C.ar    1  LIG1       -0.0473
      4 C           1.9003    1.2345    0.0223 C.ar    1  LIG1        0.0016
      5 H           1.7227   -0.8931    0.0568 H       1  LIG1        0.0635
      6 C          -0.1960    2.4521   -0.0462 C.ar    1  LIG1       -0.0427
      7 C           1.2013    2.4517   -0.0192 C.ar    1  LIG1        0.0596
      8 H          -0.7252    3.3976   -0.0753 H       1  LIG1        0.0631
      9 H          -1.9843    1.2777   -0.0459 H       1  LIG1        0.0629
     10 S          -1.1735   -1.4422    0.0229 S.3     1  LIG1       -0.1426
     11 H          -0.1438   -2.2961    0.1324 H       1  LIG1        0.1071
     12 N           2.4475    4.7236   -0.0265 N.1     1  LIG1       -0.1909
     13 C           1.9012    3.7040   -0.0215 C.1     1  LIG1        0.0998
     14 C           4.1187    0.7283    1.1286 C.ar    1  LIG1        0.0131
     15 C           5.5126    0.7078    1.0747 C.ar    1  LIG1       -0.0390
     16 C           3.3898    1.1985    0.0246 C.ar    1  LIG1       -0.0022
     17 C           6.2081    1.1400   -0.0478 C.ar    1  LIG1        0.0016
     18 H           6.0794    0.3567    1.9300 H       1  LIG1        0.0635
     19 C           4.0838    1.6391   -1.0962 C.ar    1  LIG1       -0.0350
     20 C           5.4763    1.6122   -1.1486 C.ar    1  LIG1        0.0601
     21 H           3.5311    2.0055   -1.9537 H       1  LIG1        0.0637
     22 S           3.2445    0.1988    2.5792 S.3     1  LIG1       -0.1420
     23 H           4.3383   -0.0287    3.3233 H       1  LIG1        0.1071
     24 N           6.6503    2.4031   -3.3189 N.1     1  LIG1       -0.1908
     25 C           6.1370    2.0510   -2.3442 C.1     1  LIG1        0.0998
     26 C           8.4202   -0.0843   -0.0208 C.ar    1  LIG1        0.0131
     27 C           9.8144   -0.0496   -0.0085 C.ar    1  LIG1       -0.0390
     28 C           7.6974    1.1186   -0.0543 C.ar    1  LIG1       -0.0022
     29 C          10.5169    1.1489   -0.0380 C.ar    1  LIG1        0.0016
     30 H          10.3765   -0.9762    0.0280 H       1  LIG1        0.0635
     31 C           8.3970    2.3195   -0.0881 C.ar    1  LIG1       -0.0350
     32 C           9.7905    2.3496   -0.0791 C.ar    1  LIG1        0.0601
     33 H           7.8488    3.2541   -0.1225 H       1  LIG1        0.0637
     34 S           7.5386   -1.6256   -0.0055 S.3     1  LIG1       -0.1420
     35 H           8.6219   -2.4045   -0.1513 H       1  LIG1        0.1071
     36 N          10.9867    4.6476   -0.1322 N.1     1  LIG1       -0.1908
     37 C          10.4616    3.6174   -0.1144 C.1     1  LIG1        0.0998
     38 C          12.7686    0.6372   -1.0669 C.ar    1  LIG1        0.0126
     39 C          14.1627    0.6375   -0.9770 C.ar    1  LIG1       -0.0468
     40 C          12.0065    1.1397    0.0010 C.ar    1  LIG1       -0.0022
     41 C          14.8009    1.1268    0.1475 C.ar    1  LIG1       -0.0433
     42 H          14.7577    0.2534   -1.7982 H       1  LIG1        0.0629
     43 C          12.6582    1.6356    1.1256 C.ar    1  LIG1       -0.0355
     44 C          14.0492    1.6303    1.2107 C.ar    1  LIG1        0.0524
     45 H          12.0743    2.0294    1.9497 H       1  LIG1        0.0637
     46 H          15.8832    1.1218    0.2062 H       1  LIG1        0.0631
     47 S          11.9338    0.0324   -2.5123 S.3     1  LIG1       -0.1420
     48 H          13.0462   -0.1798   -3.2329 H       1  LIG1        0.1071
     49 N          15.2318    2.5187    3.3376 N.1     1  LIG1       -0.1909
     50 C          14.7018    2.1283    2.3867 C.1     1  LIG1        0.0992
@<TRIPOS>BOND
     1    24    25    3
     2    48    47    1
     3    47    38    1
     4    25    20    1
     5    21    19    1
     6    42    39    1
     7    20    19   ar
     8    20    17   ar
     9    19    16   ar
    10    38    39   ar
    11    38    40   ar
    12    39    41   ar
    13    35    34    1
    14    36    37    3
    15    33    31    1
    16    37    32    1
    17    31    32   ar
    18    31    28   ar
    19    32    29   ar
    20     8     6    1
    21    28    17    1
    22    28    26   ar
    23    17    15   ar
    24     6     3   ar
    25     6     7   ar
    26     9     3    1
    27    29    27   ar
    28    29    40    1
    29     3     1   ar
    30    12    13    3
    31    13     7    1
    32    26    27   ar
    33    26    34    1
    34     7     4   ar
    35    27    30    1
    36    40    43   ar
    37     1    10    1
    38     1     2   ar
    39     4    16    1
    40     4     2   ar
    41    10    11    1
    42    16    14   ar
    43     2     5    1
    44    41    46    1
    45    41    44   ar
    46    15    14   ar
    47    15    18    1
    48    43    44   ar
    49    43    45    1
    50    14    22    1
    51    44    50    1
    52    50    49    3
    53    22    23    1
