@<TRIPOS>MOLECULE
mol_data/opt/cam/geoms/mol2/4gd4gd-4gd-4gd.out
 50 53 0 0 0
SMALL
GASTEIGER

@<TRIPOS>ATOM
      1 C          -0.2127    0.0287    0.0181 C.ar    1  LIG1        0.0054
      2 C           1.1813    0.0303    0.0370 C.ar    1  LIG1       -0.0396
      3 C          -0.9003    1.2439   -0.0072 C.ar    1  LIG1       -0.0473
      4 C           1.9002    1.2218    0.0364 C.ar    1  LIG1        0.0016
      5 H           1.7277   -0.9065    0.0451 H       1  LIG1        0.0635
      6 C          -0.1992    2.4350   -0.0118 C.ar    1  LIG1       -0.0427
      7 C           1.1981    2.4377    0.0117 C.ar    1  LIG1        0.0596
      8 H          -0.7307    3.3795   -0.0278 H       1  LIG1        0.0631
      9 H          -1.9847    1.2564   -0.0215 H       1  LIG1        0.0629
     10 S          -1.1671   -1.4621    0.0116 S.3     1  LIG1       -0.1426
     11 H          -0.1352   -2.3149    0.1080 H       1  LIG1        0.1071
     12 N           2.4389    4.7125    0.0293 N.1     1  LIG1       -0.1909
     13 C           1.8951    3.6916    0.0231 C.1     1  LIG1        0.0998
     14 C           4.1226    0.7073    1.1308 C.ar    1  LIG1        0.0131
     15 C           5.5164    0.6909    1.0732 C.ar    1  LIG1       -0.0390
     16 C           3.3898    1.1894    0.0345 C.ar    1  LIG1       -0.0022
     17 C           6.2081    1.1386   -0.0456 C.ar    1  LIG1        0.0016
     18 H           6.0862    0.3306    1.9227 H       1  LIG1        0.0635
     19 C           4.0798    1.6454   -1.0825 C.ar    1  LIG1       -0.0350
     20 C           5.4723    1.6226   -1.1387 C.ar    1  LIG1        0.0601
     21 H           3.5242    2.0211   -1.9340 H       1  LIG1        0.0637
     22 S           3.2534    0.1578    2.5770 S.3     1  LIG1       -0.1420
     23 H           4.3496   -0.0762    3.3154 H       1  LIG1        0.1071
     24 N           6.6389    2.4430   -3.3020 N.1     1  LIG1       -0.1908
     25 C           6.1289    2.0777   -2.3305 C.1     1  LIG1        0.0998
     26 C           8.4231   -0.0806   -0.0394 C.ar    1  LIG1        0.0131
     27 C           9.8173   -0.0426   -0.0302 C.ar    1  LIG1       -0.0390
     28 C           7.6974    1.1209   -0.0561 C.ar    1  LIG1       -0.0022
     29 C          10.5168    1.1578   -0.0465 C.ar    1  LIG1        0.0016
     30 H          10.3817   -0.9683   -0.0065 H       1  LIG1        0.0635
     31 C           8.3940    2.3238   -0.0769 C.ar    1  LIG1       -0.0350
     32 C           9.7875    2.3571   -0.0710 C.ar    1  LIG1        0.0601
     33 H           7.8435    3.2575   -0.0983 H       1  LIG1        0.0637
     34 S           7.5453   -1.6241   -0.0409 S.3     1  LIG1       -0.1420
     35 H           8.6301   -2.3985   -0.1990 H       1  LIG1        0.1071
     36 N          10.9780    4.6585   -0.0986 N.1     1  LIG1       -0.1908
     37 C          10.4554    3.6270   -0.0922 C.1     1  LIG1        0.0998
     38 C          12.7671    0.6643   -1.0873 C.ar    1  LIG1        0.0126
     39 C          14.1614    0.6669   -1.0010 C.ar    1  LIG1       -0.0468
     40 C          12.0066    1.1518   -0.0114 C.ar    1  LIG1       -0.0022
     41 C          14.8013    1.1438    0.1279 C.ar    1  LIG1       -0.0433
     42 H          14.7552    0.2945   -1.8284 H       1  LIG1        0.0629
     43 C          12.6599    1.6353    1.1176 C.ar    1  LIG1       -0.0355
     44 C          14.0512    1.6323    1.1991 C.ar    1  LIG1        0.0524
     45 H          12.0771    2.0174    1.9480 H       1  LIG1        0.0637
     46 H          15.8837    1.1407    0.1838 H       1  LIG1        0.0631
     47 S          11.9301    0.0755   -2.5380 S.3     1  LIG1       -0.1420
     48 H          13.0411   -0.1250   -3.2640 H       1  LIG1        0.1071
     49 N          15.2369    2.4972    3.3339 N.1     1  LIG1       -0.1909
     50 C          14.7055    2.1173    2.3795 C.1     1  LIG1        0.0992
@<TRIPOS>BOND
     1    24    25    3
     2    48    47    1
     3    47    38    1
     4    25    20    1
     5    21    19    1
     6    42    39    1
     7    20    19   ar
     8    20    17   ar
     9    38    39   ar
    10    38    40   ar
    11    19    16   ar
    12    39    41   ar
    13    35    34    1
    14    36    37    3
    15    33    31    1
    16    37    32    1
    17    31    32   ar
    18    31    28   ar
    19    32    29   ar
    20    28    17    1
    21    28    26   ar
    22    29    27   ar
    23    29    40    1
    24    17    15   ar
    25    34    26    1
    26    26    27   ar
    27    27    30    1
    28     8     6    1
    29     9     3    1
    30     6     3   ar
    31     6     7   ar
    32    40    43   ar
    33     3     1   ar
    34    10     1    1
    35    10    11    1
    36     7    13    1
    37     7     4   ar
    38     1     2   ar
    39    13    12    3
    40    16     4    1
    41    16    14   ar
    42     4     2   ar
    43     2     5    1
    44    41    46    1
    45    41    44   ar
    46    15    14   ar
    47    15    18    1
    48    43    44   ar
    49    43    45    1
    50    14    22    1
    51    44    50    1
    52    50    49    3
    53    22    23    1
