@<TRIPOS>MOLECULE
mol_data/opt/cam/geoms/mol2/4gd4gd4gd.out
 38 40 0 0 0
SMALL
GASTEIGER

@<TRIPOS>ATOM
      1 C          -0.0736    0.7587    1.1326 C.ar    1  LIG1        0.0054
      2 C           1.3192    0.7315    1.0817 C.ar    1  LIG1       -0.0396
      3 C          -0.7908    1.2502    0.0400 C.ar    1  LIG1       -0.0473
      4 C           2.0086    1.1801   -0.0411 C.ar    1  LIG1        0.0016
      5 H           1.8884    0.3635    1.9285 H       1  LIG1        0.0635
      6 C          -0.1195    1.7027   -1.0802 C.ar    1  LIG1       -0.0427
      7 C           1.2768    1.6715   -1.1341 C.ar    1  LIG1        0.0596
      8 H          -0.6739    2.0816   -1.9310 H       1  LIG1        0.0631
      9 H          -1.8747    1.2771    0.0667 H       1  LIG1        0.0629
     10 S          -0.9906    0.2036    2.5415 S.3     1  LIG1       -0.1426
     11 H           0.0607   -0.2094    3.2665 H       1  LIG1        0.1071
     12 N           2.4477    2.5152   -3.2861 N.1     1  LIG1       -0.1909
     13 C           1.9385    2.1341   -2.3200 C.1     1  LIG1        0.0998
     14 C           4.2210   -0.0471   -0.0416 C.ar    1  LIG1        0.0131
     15 C           5.6156   -0.0129   -0.0326 C.ar    1  LIG1       -0.0390
     16 C           3.4983    1.1566   -0.0532 C.ar    1  LIG1       -0.0022
     17 C           6.3190    1.1853   -0.0440 C.ar    1  LIG1        0.0016
     18 H           6.1771   -0.9404   -0.0129 H       1  LIG1        0.0635
     19 C           4.1995    2.3566   -0.0694 C.ar    1  LIG1       -0.0350
     20 C           5.5930    2.3867   -0.0638 C.ar    1  LIG1        0.0601
     21 H           3.6522    3.2921   -0.0873 H       1  LIG1        0.0637
     22 S           3.3385   -1.5872   -0.0492 S.3     1  LIG1       -0.1420
     23 H           4.4224   -2.3640   -0.2024 H       1  LIG1        0.1071
     24 N           6.7822    4.6889   -0.0821 N.1     1  LIG1       -0.1908
     25 C           6.2621    3.6560   -0.0800 C.1     1  LIG1        0.0998
     26 C           8.5696    0.6864   -1.0828 C.ar    1  LIG1        0.0126
     27 C           9.9638    0.6857   -0.9947 C.ar    1  LIG1       -0.0468
     28 C           7.8087    1.1754   -0.0078 C.ar    1  LIG1       -0.0022
     29 C          10.6036    1.1611    0.1350 C.ar    1  LIG1       -0.0433
     30 H          10.5578    0.3118   -1.8213 H       1  LIG1        0.0629
     31 C           8.4619    1.6574    1.1220 C.ar    1  LIG1       -0.0355
     32 C           9.8532    1.6514    1.2051 C.ar    1  LIG1        0.0524
     33 H           7.8790    2.0407    1.9516 H       1  LIG1        0.0637
     34 H          11.6859    1.1555    0.1921 H       1  LIG1        0.0631
     35 S           7.7333    0.1004   -2.5350 S.3     1  LIG1       -0.1420
     36 H           8.8451   -0.1050   -3.2583 H       1  LIG1        0.1071
     37 N          11.0376    2.5158    3.3409 N.1     1  LIG1       -0.1909
     38 C          10.5069    2.1359    2.3861 C.1     1  LIG1        0.0992
@<TRIPOS>BOND
     1    12    13    3
     2    36    35    1
     3    35    26    1
     4    13     7    1
     5     8     6    1
     6    30    27    1
     7     7     6   ar
     8     7     4   ar
     9    26    27   ar
    10    26    28   ar
    11     6     3   ar
    12    27    29   ar
    13    23    22    1
    14    21    19    1
    15    24    25    3
    16    25    20    1
    17    19    20   ar
    18    19    16   ar
    19    20    17   ar
    20    16    14   ar
    21    16     4    1
    22    22    14    1
    23    17    15   ar
    24    17    28    1
    25    14    15   ar
    26     4     2   ar
    27    15    18    1
    28    28    31   ar
    29     3     9    1
    30     3     1   ar
    31    29    34    1
    32    29    32   ar
    33     2     1   ar
    34     2     5    1
    35    31    32   ar
    36    31    33    1
    37     1    10    1
    38    32    38    1
    39    38    37    3
    40    10    11    1
