@<TRIPOS>MOLECULE
mol_data/opt/cam/geoms/mol2/4gd4gd.out
 26 27 0 0 0
SMALL
GASTEIGER

@<TRIPOS>ATOM
      1 C           0.0080    0.2444    0.6577 C.ar    1  LIG1        0.0054
      2 C           1.4019    0.2395    0.6418 C.ar    1  LIG1       -0.0396
      3 C          -0.6829    1.2558   -0.0126 C.ar    1  LIG1       -0.0473
      4 C           2.1188    1.2213   -0.0358 C.ar    1  LIG1        0.0016
      5 H           1.9507   -0.5335    1.1687 H       1  LIG1        0.0635
      6 C           0.0156    2.2400   -0.6862 C.ar    1  LIG1       -0.0427
      7 C           1.4131    2.2328   -0.7073 C.ar    1  LIG1        0.0596
      8 H          -0.5179    3.0243   -1.2106 H       1  LIG1        0.0631
      9 H          -1.7673    1.2707   -0.0084 H       1  LIG1        0.0629
     10 S          -0.9432   -0.9807    1.5118 S.3     1  LIG1       -0.1426
     11 H           0.0899   -1.7397    1.9094 H       1  LIG1        0.1071
     12 N           2.6370    4.1013   -2.0206 N.1     1  LIG1       -0.1909
     13 C           2.1041    3.2606   -1.4314 C.1     1  LIG1        0.0998
     14 C           4.3404    0.1839   -0.6536 C.ar    1  LIG1        0.0126
     15 C           5.7359    0.1983   -0.5951 C.ar    1  LIG1       -0.0468
     16 C           3.6090    1.1989   -0.0151 C.ar    1  LIG1       -0.0022
     17 C           6.4067    1.2003    0.0814 C.ar    1  LIG1       -0.0433
     18 H           6.3066   -0.5816   -1.0871 H       1  LIG1        0.0629
     19 C           4.2936    2.2056    0.6582 C.ar    1  LIG1       -0.0355
     20 C           5.6862    2.2142    0.7151 C.ar    1  LIG1        0.0524
     21 H           3.7338    2.9937    1.1488 H       1  LIG1        0.0637
     22 H           7.4898    1.2020    0.1205 H       1  LIG1        0.0631
     23 S           3.4656   -1.0842   -1.5378 S.3     1  LIG1       -0.1420
     24 H           4.5592   -1.6776   -2.0417 H       1  LIG1        0.1071
     25 N           6.9309    4.0815    2.0097 N.1     1  LIG1       -0.1909
     26 C           6.3728    3.2521    1.4281 C.1     1  LIG1        0.0992
@<TRIPOS>BOND
     1    24    23    1
     2    12    13    3
     3    23    14    1
     4    13     7    1
     5     8     6    1
     6    18    15    1
     7     7     6   ar
     8     7     4   ar
     9     6     3   ar
    10    14    15   ar
    11    14    16   ar
    12    15    17   ar
    13     4    16    1
    14     4     2   ar
    15    16    19   ar
    16     3     9    1
    17     3     1   ar
    18    17    22    1
    19    17    20   ar
    20     2     1   ar
    21     2     5    1
    22     1    10    1
    23    19    20   ar
    24    19    21    1
    25    20    26    1
    26    26    25    3
    27    10    11    1
