@<TRIPOS>MOLECULE
mol_data/opt/cam/geoms/mol2/4gd4gd-4gd-.out
 38 40 0 0 0
SMALL
GASTEIGER

@<TRIPOS>ATOM
      1 C          -0.1055    0.1363   -0.4504 C.ar    1  LIG1        0.0054
      2 C           1.2882    0.1242   -0.4220 C.ar    1  LIG1       -0.0396
      3 C          -0.7914    1.2711   -0.0128 C.ar    1  LIG1       -0.0473
      4 C           2.0086    1.2216    0.0400 C.ar    1  LIG1        0.0016
      5 H           1.8336   -0.7464   -0.7698 H       1  LIG1        0.0635
      6 C          -0.0890    2.3699    0.4448 C.ar    1  LIG1       -0.0427
      7 C           1.3081    2.3571    0.4781 C.ar    1  LIG1        0.0596
      8 H          -0.6191    3.2508    0.7882 H       1  LIG1        0.0631
      9 H          -1.8757    1.2927   -0.0290 H       1  LIG1        0.0629
     10 S          -1.0621   -1.2333   -1.0365 S.3     1  LIG1       -0.1426
     11 H          -0.0336   -2.0677   -1.2540 H       1  LIG1        0.1071
     12 N           2.5503    4.4458    1.3773 N.1     1  LIG1       -0.1909
     13 C           2.0063    3.5076    0.9751 C.1     1  LIG1        0.0998
     14 C           4.2198    0.3233    0.8790 C.ar    1  LIG1        0.0131
     15 C           5.6140    0.3242    0.8330 C.ar    1  LIG1       -0.0390
     16 C           3.4981    1.1856    0.0384 C.ar    1  LIG1       -0.0022
     17 C           6.3175    1.1569   -0.0288 C.ar    1  LIG1        0.0016
     18 H           6.1753   -0.3314    1.4896 H       1  LIG1        0.0635
     19 C           4.1994    2.0252   -0.8189 C.ar    1  LIG1       -0.0350
     20 C           5.5925    2.0188   -0.8667 C.ar    1  LIG1        0.0601
     21 H           3.6526    2.6960   -1.4715 H       1  LIG1        0.0637
     22 S           3.3354   -0.7276    2.0030 S.3     1  LIG1       -0.1420
     23 H           4.4241   -1.2297    2.6065 H       1  LIG1        0.1071
     24 N           6.7818    3.5865   -2.5525 N.1     1  LIG1       -0.1908
     25 C           6.2616    2.8856   -1.7939 C.1     1  LIG1        0.0998
     26 C           8.5315    0.0218   -0.4734 C.ar    1  LIG1        0.0126
     27 C           9.9276    0.0495   -0.4469 C.ar    1  LIG1       -0.0468
     28 C           7.8073    1.1410   -0.0316 C.ar    1  LIG1       -0.0022
     29 C          10.6051    1.1662    0.0064 C.ar    1  LIG1       -0.0433
     30 H          10.4931   -0.8108   -0.7877 H       1  LIG1        0.0629
     31 C           8.4981    2.2622    0.4179 C.ar    1  LIG1       -0.0355
     32 C           9.8914    2.2834    0.4438 C.ar    1  LIG1        0.0524
     33 H           7.9432    3.1301    0.7560 H       1  LIG1        0.0637
     34 H          11.6887    1.1777    0.0226 H       1  LIG1        0.0631
     35 S           7.6469   -1.3971   -1.0745 S.3     1  LIG1       -0.1420
     36 H           8.7322   -2.0702   -1.4874 H       1  LIG1        0.1071
     37 N          11.1593    4.3664    1.3190 N.1     1  LIG1       -0.1909
     38 C          10.5886    3.4411    0.9246 C.1     1  LIG1        0.0992
@<TRIPOS>BOND
     1    24    25    3
     2    25    20    1
     3    36    35    1
     4    21    19    1
     5    11    10    1
     6    35    26    1
     7    10     1    1
     8    20    19   ar
     9    20    17   ar
    10    19    16   ar
    11    30    27    1
    12     5     2    1
    13    26    27   ar
    14    26    28   ar
    15     1     2   ar
    16     1     3   ar
    17    27    29   ar
    18     2     4   ar
    19    28    17    1
    20    28    31   ar
    21     9     3    1
    22    17    15   ar
    23     3     6   ar
    24    29    34    1
    25    29    32   ar
    26    16     4    1
    27    16    14   ar
    28     4     7   ar
    29    31    32   ar
    30    31    33    1
    31    32    38    1
    32     6     7   ar
    33     6     8    1
    34     7    13    1
    35    15    14   ar
    36    15    18    1
    37    14    22    1
    38    38    37    3
    39    13    12    3
    40    22    23    1
