@<TRIPOS>MOLECULE
mol_data/opt/cam/geoms/mol2/4gd4gd-4gd4gd.out
 50 53 0 0 0
SMALL
GASTEIGER

@<TRIPOS>ATOM
      1 C          -0.2215    0.2755   -0.6707 C.ar    1  LIG1        0.0054
      2 C           1.1720    0.2453   -0.6427 C.ar    1  LIG1       -0.0396
      3 C          -0.8995    1.3002   -0.0072 C.ar    1  LIG1       -0.0473
      4 C           1.8996    1.2159    0.0392 C.ar    1  LIG1        0.0016
      5 H           1.7114   -0.5386   -1.1632 H       1  LIG1        0.0635
      6 C          -0.1897    2.2729    0.6712 C.ar    1  LIG1       -0.0427
      7 C           1.2070    2.2411    0.7035 C.ar    1  LIG1        0.0596
      8 H          -0.7138    3.0673    1.1900 H       1  LIG1        0.0631
      9 H          -1.9834    1.3346   -0.0210 H       1  LIG1        0.0629
     10 S          -1.1874   -0.9333   -1.5308 S.3     1  LIG1       -0.1426
     11 H          -0.1641   -1.7062   -1.9271 H       1  LIG1        0.1071
     12 N           2.4651    4.0842    2.0207 N.1     1  LIG1       -0.1909
     13 C           1.9134    3.2561    1.4308 C.1     1  LIG1        0.0998
     14 C           4.1019    0.1468    0.6782 C.ar    1  LIG1        0.0131
     15 C           5.4964    0.1486    0.6382 C.ar    1  LIG1       -0.0390
     16 C           3.3889    1.1696    0.0327 C.ar    1  LIG1       -0.0022
     17 C           6.2075    1.1385   -0.0286 C.ar    1  LIG1        0.0016
     18 H           6.0513   -0.6324    1.1463 H       1  LIG1        0.0635
     19 C           4.0982    2.1646   -0.6294 C.ar    1  LIG1       -0.0350
     20 C           5.4913    2.1599   -0.6724 C.ar    1  LIG1        0.0601
     21 H           3.5578    2.9596   -1.1301 H       1  LIG1        0.0637
     22 S           3.2065   -1.1086    1.5563 S.3     1  LIG1       -0.1420
     23 H           4.2894   -1.7339    2.0439 H       1  LIG1        0.1071
     24 N           6.7044    4.0323   -1.9903 N.1     1  LIG1       -0.1908
     25 C           6.1711    3.1952   -1.3968 C.1     1  LIG1        0.0998
     26 C           8.4251    0.1071   -0.6747 C.ar    1  LIG1        0.0131
     27 C           9.8191    0.1325   -0.6383 C.ar    1  LIG1       -0.0390
     28 C           7.6968    1.1178   -0.0277 C.ar    1  LIG1       -0.0022
     29 C          10.5157    1.1341    0.0269 C.ar    1  LIG1        0.0016
     30 H          10.3860   -0.6391   -1.1475 H       1  LIG1        0.0635
     31 C           8.3906    2.1256    0.6323 C.ar    1  LIG1       -0.0350
     32 C           9.7837    2.1436    0.6717 C.ar    1  LIG1        0.0601
     33 H           7.8380    2.9113    1.1348 H       1  LIG1        0.0637
     34 S           7.5503   -1.1643   -1.5523 S.3     1  LIG1       -0.1420
     35 H           8.6430   -1.7707   -2.0418 H       1  LIG1        0.1071
     36 N          10.9678    4.0378    1.9850 N.1     1  LIG1       -0.1908
     37 C          10.4480    3.1908    1.3937 C.1     1  LIG1        0.0998
     38 C          12.7460    0.1378    0.6767 C.ar    1  LIG1        0.0126
     39 C          14.1414    0.1743    0.6329 C.ar    1  LIG1       -0.0468
     40 C          12.0055    1.1354    0.0219 C.ar    1  LIG1       -0.0022
     41 C          14.8024    1.1818   -0.0450 C.ar    1  LIG1       -0.0433
     42 H          14.7195   -0.5920    1.1375 H       1  LIG1        0.0629
     43 C          12.6799    2.1487   -0.6528 C.ar    1  LIG1       -0.0355
     44 C          14.0725    2.1787   -0.6948 C.ar    1  LIG1        0.0524
     45 H          12.1123    2.9235   -1.1557 H       1  LIG1        0.0637
     46 H          15.8856    1.2010   -0.0728 H       1  LIG1        0.0631
     47 S          11.8831   -1.1374    1.5635 S.3     1  LIG1       -0.1420
     48 H          12.9797   -1.7030    2.0918 H       1  LIG1        0.1071
     49 N          15.3100    4.0504   -1.9900 N.1     1  LIG1       -0.1909
     50 C          14.7528    3.2203   -1.4088 C.1     1  LIG1        0.0992
@<TRIPOS>BOND
     1    35    34    1
     2    24    25    3
     3    49    50    3
     4    11    10    1
     5    34    26    1
     6    10     1    1
     7    50    44    1
     8    25    20    1
     9     5     2    1
    10    45    43    1
    11    30    27    1
    12    21    19    1
    13    44    43   ar
    14    44    41   ar
    15    26    27   ar
    16    26    28   ar
    17    20    19   ar
    18    20    17   ar
    19     1     2   ar
    20     1     3   ar
    21    43    40   ar
    22     2     4   ar
    23    27    29   ar
    24    19    16   ar
    25    46    41    1
    26    41    39   ar
    27    17    28    1
    28    17    15   ar
    29    28    31   ar
    30     9     3    1
    31     3     6   ar
    32    40    29    1
    33    40    38   ar
    34    29    32   ar
    35    16     4    1
    36    16    14   ar
    37     4     7   ar
    38    31    32   ar
    39    31    33    1
    40    39    38   ar
    41    39    42    1
    42    15    14   ar
    43    15    18    1
    44     6     7   ar
    45     6     8    1
    46    32    37    1
    47    38    47    1
    48    14    22    1
    49     7    13    1
    50    37    36    3
    51    13    12    3
    52    22    23    1
    53    47    48    1
