@<TRIPOS>MOLECULE
mol_data/opt/cam/geoms/mol2/4gd4gd4gd-.out
 38 40 0 0 0
SMALL
GASTEIGER

@<TRIPOS>ATOM
      1 C          -0.1075    0.1489    0.4593 C.ar    1  LIG1        0.0054
      2 C           1.2863    0.1351    0.4343 C.ar    1  LIG1       -0.0396
      3 C          -0.7914    1.2766    0.0004 C.ar    1  LIG1       -0.0473
      4 C           2.0087    1.2236   -0.0452 C.ar    1  LIG1        0.0016
      5 H           1.8301   -0.7298    0.7985 H       1  LIG1        0.0635
      6 C          -0.0868    2.3666   -0.4748 C.ar    1  LIG1       -0.0427
      7 C           1.3104    2.3518   -0.5047 C.ar    1  LIG1        0.0596
      8 H          -0.6153    3.2417   -0.8348 H       1  LIG1        0.0631
      9 H          -1.8756    1.2995    0.0138 H       1  LIG1        0.0629
     10 S          -1.0668   -1.2093    1.0670 S.3     1  LIG1       -0.1426
     11 H          -0.0395   -2.0403    1.3026 H       1  LIG1        0.1071
     12 N           2.5567    4.4233   -1.4374 N.1     1  LIG1       -0.1909
     13 C           2.0108    3.4928   -1.0201 C.1     1  LIG1        0.0998
     14 C           4.2210    0.3089   -0.8633 C.ar    1  LIG1        0.0131
     15 C           5.6151    0.3093   -0.8141 C.ar    1  LIG1       -0.0390
     16 C           3.4982    1.1863   -0.0394 C.ar    1  LIG1       -0.0022
     17 C           6.3174    1.1561    0.0348 C.ar    1  LIG1        0.0016
     18 H           6.1773   -0.3580   -1.4579 H       1  LIG1        0.0635
     19 C           4.1984    2.0400    0.8048 C.ar    1  LIG1       -0.0350
     20 C           5.5913    2.0331    0.8559 C.ar    1  LIG1        0.0601
     21 H           3.6506    2.7224    1.4444 H       1  LIG1        0.0637
     22 S           3.3382   -0.7606   -1.9709 S.3     1  LIG1       -0.1420
     23 H           4.4277   -1.2741   -2.5631 H       1  LIG1        0.1071
     24 N           6.7782    3.6288    2.5171 N.1     1  LIG1       -0.1908
     25 C           6.2591    2.9152    1.7695 C.1     1  LIG1        0.0998
     26 C           8.5293    0.0270    0.5041 C.ar    1  LIG1        0.0126
     27 C           9.9255    0.0529    0.4804 C.ar    1  LIG1       -0.0468
     28 C           7.8071    1.1390    0.0413 C.ar    1  LIG1       -0.0022
     29 C          10.6050    1.1610    0.0093 C.ar    1  LIG1       -0.0433
     30 H          10.4894   -0.8018    0.8374 H       1  LIG1        0.0629
     31 C           8.5001    2.2516   -0.4261 C.ar    1  LIG1       -0.0355
     32 C           9.8935    2.2711   -0.4491 C.ar    1  LIG1        0.0524
     33 H           7.9468    3.1139   -0.7804 H       1  LIG1        0.0637
     34 H          11.6887    1.1713   -0.0046 H       1  LIG1        0.0631
     35 S           7.6420   -1.3804    1.1277 S.3     1  LIG1       -0.1420
     36 H           8.7258   -2.0473    1.5547 H       1  LIG1        0.1071
     37 N          11.1653    4.3375   -1.3574 N.1     1  LIG1       -0.1909
     38 C          10.5929    3.4196   -0.9483 C.1     1  LIG1        0.0992
@<TRIPOS>BOND
     1    23    22    1
     2    22    14    1
     3    18    15    1
     4    12    13    3
     5    37    38    3
     6    13     7    1
     7    38    32    1
     8    14    15   ar
     9    14    16   ar
    10     8     6    1
    11    15    17   ar
    12    33    31    1
    13     7     6   ar
    14     7     4   ar
    15     6     3   ar
    16    32    31   ar
    17    32    29   ar
    18    31    28   ar
    19     4    16    1
    20     4     2   ar
    21    16    19   ar
    22    34    29    1
    23     3     9    1
    24     3     1   ar
    25    29    27   ar
    26    17    28    1
    27    17    20   ar
    28    28    26   ar
    29     2     1   ar
    30     2     5    1
    31     1    10    1
    32    27    26   ar
    33    27    30    1
    34    26    35    1
    35    19    20   ar
    36    19    21    1
    37    20    25    1
    38    10    11    1
    39    35    36    1
    40    25    24    3
