@<TRIPOS>MOLECULE
mol_data/opt/cam/geoms/mol2/4gd4gd-4gd4gd-.out
 50 53 0 0 0
SMALL
GASTEIGER

@<TRIPOS>ATOM
      1 C          -0.2205    0.2711   -0.6751 C.ar    1  LIG1        0.0054
      2 C           1.1729    0.2409   -0.6446 C.ar    1  LIG1       -0.0396
      3 C          -0.8994    1.3017   -0.0218 C.ar    1  LIG1       -0.0473
      4 C           1.8996    1.2173    0.0300 C.ar    1  LIG1        0.0016
      5 H           1.7130   -0.5477   -1.1573 H       1  LIG1        0.0635
      6 C          -0.1906    2.2802    0.6492 C.ar    1  LIG1       -0.0427
      7 C           1.2061    2.2484    0.6841 C.ar    1  LIG1        0.0596
      8 H          -0.7153    3.0793    1.1601 H       1  LIG1        0.0631
      9 H          -1.9834    1.3362   -0.0376 H       1  LIG1        0.0629
     10 S          -1.1853   -0.9451   -1.5261 S.3     1  LIG1       -0.1426
     11 H          -0.1616   -1.7217   -1.9138 H       1  LIG1        0.1071
     12 N           2.4624    4.1027    1.9870 N.1     1  LIG1       -0.1909
     13 C           1.9115    3.2696    1.4036 C.1     1  LIG1        0.0998
     14 C           4.1006    0.1533    0.6820 C.ar    1  LIG1        0.0131
     15 C           5.4952    0.1545    0.6443 C.ar    1  LIG1       -0.0390
     16 C           3.3888    1.1706    0.0264 C.ar    1  LIG1       -0.0022
     17 C           6.2076    1.1384   -0.0301 C.ar    1  LIG1        0.0016
     18 H           6.0491   -0.6220    1.1601 H       1  LIG1        0.0635
     19 C           4.0995    2.1596   -0.6433 C.ar    1  LIG1       -0.0350
     20 C           5.4926    2.1542   -0.6840 C.ar    1  LIG1        0.0601
     21 H           3.5600    2.9503   -1.1519 H       1  LIG1        0.0637
     22 S           3.2034   -1.0940    1.5696 S.3     1  LIG1       -0.1420
     23 H           4.2854   -1.7153    2.0645 H       1  LIG1        0.1071
     24 N           6.7083    4.0147   -2.0163 N.1     1  LIG1       -0.1908
     25 C           6.1739    3.1829   -1.4164 C.1     1  LIG1        0.0998
     26 C           8.4260    0.1009   -0.6634 C.ar    1  LIG1        0.0131
     27 C           9.8200    0.1263   -0.6250 C.ar    1  LIG1       -0.0390
     28 C           7.6968    1.1174   -0.0265 C.ar    1  LIG1       -0.0022
     29 C          10.5156    1.1336    0.0325 C.ar    1  LIG1        0.0016
     30 H          10.3875   -0.6499   -1.1264 H       1  LIG1        0.0635
     31 C           8.3898    2.1308    0.6257 C.ar    1  LIG1       -0.0350
     32 C           9.7828    2.1489    0.6673 C.ar    1  LIG1        0.0601
     33 H           7.8365    2.9210    1.1203 H       1  LIG1        0.0637
     34 S           7.5524   -1.1780   -1.5312 S.3     1  LIG1       -0.1420
     35 H           8.6457   -1.7890   -2.0135 H       1  LIG1        0.1071
     36 N          10.9652    4.0544    1.9657 N.1     1  LIG1       -0.1908
     37 C          10.4462    3.2023    1.3810 C.1     1  LIG1        0.0998
     38 C          12.7447    0.1426    0.6948 C.ar    1  LIG1        0.0126
     39 C          14.1401    0.1785    0.6529 C.ar    1  LIG1       -0.0468
     40 C          12.0055    1.1346    0.0300 C.ar    1  LIG1       -0.0022
     41 C          14.8024    1.1798   -0.0327 C.ar    1  LIG1       -0.0433
     42 H          14.7172   -0.5835    1.1652 H       1  LIG1        0.0629
     43 C          12.6812    2.1417   -0.6525 C.ar    1  LIG1       -0.0355
     44 C          14.0739    2.1711   -0.6925 C.ar    1  LIG1        0.0524
     45 H          12.1146    2.9122   -1.1631 H       1  LIG1        0.0637
     46 H          15.8858    1.1986   -0.0589 H       1  LIG1        0.0631
     47 S          11.8800   -1.1245    1.5914 S.3     1  LIG1       -0.1420
     48 H          12.9756   -1.6857    2.1263 H       1  LIG1        0.1071
     49 N          15.3139    4.0311   -2.0021 N.1     1  LIG1       -0.1909
     50 C          14.7555    3.2062   -1.4145 C.1     1  LIG1        0.0992
@<TRIPOS>BOND
     1    24    25    3
     2    35    34    1
     3    49    50    3
     4    11    10    1
     5    34    26    1
     6    10     1    1
     7    25    20    1
     8    50    44    1
     9    45    43    1
    10     5     2    1
    11    21    19    1
    12    30    27    1
    13    44    43   ar
    14    44    41   ar
    15    20    19   ar
    16    20    17   ar
    17     1     2   ar
    18     1     3   ar
    19    26    27   ar
    20    26    28   ar
    21    43    40   ar
    22     2     4   ar
    23    19    16   ar
    24    27    29   ar
    25    46    41    1
    26     9     3    1
    27    41    39   ar
    28    17    28    1
    29    17    15   ar
    30    28    31   ar
    31     3     6   ar
    32    16     4    1
    33    16    14   ar
    34     4     7   ar
    35    40    29    1
    36    40    38   ar
    37    29    32   ar
    38    31    32   ar
    39    31    33    1
    40    15    14   ar
    41    15    18    1
    42     6     7   ar
    43     6     8    1
    44    39    38   ar
    45    39    42    1
    46    32    37    1
    47    14    22    1
    48     7    13    1
    49    38    47    1
    50    37    36    3
    51    13    12    3
    52    22    23    1
    53    47    48    1
