@<TRIPOS>MOLECULE
mol_data/opt/cam/geoms/mol2/4gd4gd-4gd.out
 38 40 0 0 0
SMALL
GASTEIGER

@<TRIPOS>ATOM
      1 C          -0.1089    0.1497   -0.4412 C.ar    1  LIG1        0.0054
      2 C           1.2848    0.1351   -0.4185 C.ar    1  LIG1       -0.0396
      3 C          -0.7913    1.2806    0.0121 C.ar    1  LIG1       -0.0473
      4 C           2.0089    1.2260    0.0531 C.ar    1  LIG1        0.0016
      5 H           1.8274   -0.7324   -0.7784 H       1  LIG1        0.0635
      6 C          -0.0852    2.3730    0.4795 C.ar    1  LIG1       -0.0427
      7 C           1.3120    2.3575    0.5071 C.ar    1  LIG1        0.0596
      8 H          -0.6124    3.2506    0.8351 H       1  LIG1        0.0631
      9 H          -1.8755    1.3041    0.0004 H       1  LIG1        0.0629
     10 S          -1.0702   -1.2115   -1.0389 S.3     1  LIG1       -0.1426
     11 H          -0.0439   -2.0446   -1.2713 H       1  LIG1        0.1071
     12 N           2.5613    4.4337    1.4252 N.1     1  LIG1       -0.1909
     13 C           2.0141    3.5011    1.0144 C.1     1  LIG1        0.0998
     14 C           4.2219    0.3145    0.8728 C.ar    1  LIG1        0.0131
     15 C           5.6160    0.3137    0.8211 C.ar    1  LIG1       -0.0390
     16 C           3.4983    1.1876    0.0450 C.ar    1  LIG1       -0.0022
     17 C           6.3173    1.1551   -0.0339 C.ar    1  LIG1        0.0016
     18 H           6.1789   -0.3503    1.4678 H       1  LIG1        0.0635
     19 C           4.1975    2.0359   -0.8053 C.ar    1  LIG1       -0.0350
     20 C           5.5903    2.0277   -0.8589 C.ar    1  LIG1        0.0601
     21 H           3.6491    2.7150   -1.4480 H       1  LIG1        0.0637
     22 S           3.3404   -0.7479    1.9882 S.3     1  LIG1       -0.1420
     23 H           4.4306   -1.2586    2.5815 H       1  LIG1        0.1071
     24 N           6.7755    3.6129   -2.5313 N.1     1  LIG1       -0.1908
     25 C           6.2572    2.9041   -1.7788 C.1     1  LIG1        0.0998
     26 C           8.5277    0.0217   -0.5008 C.ar    1  LIG1        0.0126
     27 C           9.9238    0.0469   -0.4797 C.ar    1  LIG1       -0.0468
     28 C           7.8070    1.1369   -0.0430 C.ar    1  LIG1       -0.0022
     29 C          10.6050    1.1571   -0.0161 C.ar    1  LIG1       -0.0433
     30 H          10.4865   -0.8103   -0.8329 H       1  LIG1        0.0629
     31 C           8.5016    2.2516    0.4169 C.ar    1  LIG1       -0.0355
     32 C           9.8950    2.2703    0.4373 C.ar    1  LIG1        0.0524
     33 H           7.9495    3.1163    0.7674 H       1  LIG1        0.0637
     34 H          11.6887    1.1667   -0.0042 H       1  LIG1        0.0631
     35 S           7.6382   -1.3885   -1.1148 S.3     1  LIG1       -0.1420
     36 H           8.7207   -2.0586   -1.5400 H       1  LIG1        0.1071
     37 N          11.1699    4.3408    1.3317 N.1     1  LIG1       -0.1909
     38 C          10.5961    3.4211    0.9288 C.1     1  LIG1        0.0992
@<TRIPOS>BOND
     1    24    25    3
     2    25    20    1
     3    36    35    1
     4    21    19    1
     5    11    10    1
     6    35    26    1
     7    10     1    1
     8    20    19   ar
     9    20    17   ar
    10    30    27    1
    11    19    16   ar
    12     5     2    1
    13    26    27   ar
    14    26    28   ar
    15    27    29   ar
    16     1     2   ar
    17     1     3   ar
    18     2     4   ar
    19    28    17    1
    20    28    31   ar
    21    17    15   ar
    22    29    34    1
    23    29    32   ar
    24     9     3    1
    25     3     6   ar
    26    16     4    1
    27    16    14   ar
    28     4     7   ar
    29    31    32   ar
    30    31    33    1
    31    32    38    1
    32     6     7   ar
    33     6     8    1
    34     7    13    1
    35    15    14   ar
    36    15    18    1
    37    14    22    1
    38    38    37    3
    39    13    12    3
    40    22    23    1
