@<TRIPOS>MOLECULE
mol_data/opt/cam/geoms/mol2/4gd4gd4gd4gd.out
 50 53 0 0 0
SMALL
GASTEIGER

@<TRIPOS>ATOM
      1 C          -0.1549    1.4639    1.2366 C.ar    1  LIG1        0.0054
      2 C           1.2368    1.4046    1.1806 C.ar    1  LIG1       -0.0396
      3 C          -0.8969    1.2857    0.0673 C.ar    1  LIG1       -0.0473
      4 C           1.9004    1.1643   -0.0189 C.ar    1  LIG1        0.0016
      5 H           1.8250    1.5548    2.0794 H       1  LIG1        0.0635
      6 C          -0.2512    1.0510   -1.1320 C.ar    1  LIG1       -0.0427
      7 C           1.1438    0.9859   -1.1883 C.ar    1  LIG1        0.0596
      8 H          -0.8250    0.9087   -2.0404 H       1  LIG1        0.0631
      9 H          -1.9802    1.3287    0.0971 H       1  LIG1        0.0629
     10 S          -1.0400    1.7734    2.7381 S.3     1  LIG1       -0.1426
     11 H           0.0253    1.7895    3.5543 H       1  LIG1        0.1071
     12 N           2.2675    0.5129   -3.4747 N.1     1  LIG1       -0.1909
     13 C           1.7790    0.7232   -2.4475 C.1     1  LIG1        0.0998
     14 C           4.1189    0.1219    0.6075 C.ar    1  LIG1        0.0131
     15 C           5.5132    0.1464    0.5684 C.ar    1  LIG1       -0.0390
     16 C           3.3897    1.1279   -0.0462 C.ar    1  LIG1       -0.0022
     17 C           6.2095    1.1385   -0.1112 C.ar    1  LIG1        0.0016
     18 H           6.0794   -0.6223    1.0826 H       1  LIG1        0.0635
     19 C           4.0838    2.1191   -0.7302 C.ar    1  LIG1       -0.0350
     20 C           5.4770    2.1384   -0.7703 C.ar    1  LIG1        0.0601
     21 H           3.5312    2.8961   -1.2457 H       1  LIG1        0.0637
     22 S           3.2448   -1.1646    1.4625 S.3     1  LIG1       -0.1420
     23 H           4.3287   -1.9078    1.7354 H       1  LIG1        0.1071
     24 N           6.6511    4.0487   -2.0688 N.1     1  LIG1       -0.1908
     25 C           6.1377    3.1879   -1.4918 C.1     1  LIG1        0.0998
     26 C           8.4451    0.1268   -0.7279 C.ar    1  LIG1        0.0131
     27 C           9.8386    0.1651   -0.6697 C.ar    1  LIG1       -0.0390
     28 C           7.6991    1.1396   -0.1037 C.ar    1  LIG1       -0.0022
     29 C          10.5175    1.1865   -0.0165 C.ar    1  LIG1        0.0016
     30 H          10.4187   -0.6204   -1.1412 H       1  LIG1        0.0635
     31 C           8.3753    2.1658    0.5453 C.ar    1  LIG1       -0.0350
     32 C           9.7677    2.2016    0.5983 C.ar    1  LIG1        0.0601
     33 H           7.8097    2.9582    1.0219 H       1  LIG1        0.0637
     34 S           7.5941   -1.1717   -1.5866 S.3     1  LIG1       -0.1420
     35 H           8.6959   -1.7389   -2.1021 H       1  LIG1        0.1071
     36 N          10.9063    4.1603    1.8557 N.1     1  LIG1       -0.1908
     37 C          10.4098    3.2849    1.2859 C.1     1  LIG1        0.0998
     38 C          12.7934    1.3461   -1.1071 C.ar    1  LIG1        0.0126
     39 C          14.1859    1.3115   -0.9993 C.ar    1  LIG1       -0.0468
     40 C          12.0063    1.1727    0.0437 C.ar    1  LIG1       -0.0022
     41 C          14.7983    1.1106    0.2238 C.ar    1  LIG1       -0.0433
     42 H          14.8001    1.4470   -1.8826 H       1  LIG1        0.0629
     43 C          12.6320    0.9774    1.2707 C.ar    1  LIG1       -0.0355
     44 C          14.0216    0.9410    1.3713 C.ar    1  LIG1        0.0524
     45 H          12.0287    0.8482    2.1620 H       1  LIG1        0.0637
     46 H          15.8794    1.0856    0.2950 H       1  LIG1        0.0631
     47 S          11.9917    1.6260   -2.6659 S.3     1  LIG1       -0.1420
     48 H          13.1187    1.8451   -3.3612 H       1  LIG1        0.1071
     49 N          15.1538    0.5325    3.6654 N.1     1  LIG1       -0.1909
     50 C          14.6466    0.7205    2.6431 C.1     1  LIG1        0.0992
@<TRIPOS>BOND
     1    12    13    3
     2    48    47    1
     3    47    38    1
     4    13     7    1
     5    35    34    1
     6    24    25    3
     7     8     6    1
     8    42    39    1
     9    34    26    1
    10    25    20    1
    11    21    19    1
    12     7     6   ar
    13     7     4   ar
    14    30    27    1
    15     6     3   ar
    16    38    39   ar
    17    38    40   ar
    18    39    41   ar
    19    20    19   ar
    20    20    17   ar
    21    19    16   ar
    22    26    27   ar
    23    26    28   ar
    24    27    29   ar
    25    17    28    1
    26    17    15   ar
    27    28    31   ar
    28    16     4    1
    29    16    14   ar
    30     4     2   ar
    31    29    40    1
    32    29    32   ar
    33    40    43   ar
    34     3     9    1
    35     3     1   ar
    36    41    46    1
    37    41    44   ar
    38    31    32   ar
    39    31    33    1
    40    15    14   ar
    41    15    18    1
    42    32    37    1
    43    14    22    1
    44     2     1   ar
    45     2     5    1
    46     1    10    1
    47    43    44   ar
    48    43    45    1
    49    37    36    3
    50    44    50    1
    51    22    23    1
    52    50    49    3
    53    10    11    1
