@<TRIPOS>MOLECULE
mol_data/opt/cam/geoms/mol2/4gd4gd-.out
 26 27 0 0 0
SMALL
GASTEIGER

@<TRIPOS>ATOM
      1 C           0.0056    0.2403   -0.6406 C.ar    1  LIG1        0.0054
      2 C           1.3995    0.2352   -0.6294 C.ar    1  LIG1       -0.0396
      3 C          -0.6828    1.2567    0.0247 C.ar    1  LIG1       -0.0473
      4 C           2.1190    1.2218    0.0386 C.ar    1  LIG1        0.0016
      5 H           1.9463   -0.5418   -1.1525 H       1  LIG1        0.0635
      6 C           0.0182    2.2456    0.6887 C.ar    1  LIG1       -0.0427
      7 C           1.4158    2.2383    0.7051 C.ar    1  LIG1        0.0596
      8 H          -0.5133    3.0339    1.2092 H       1  LIG1        0.0631
      9 H          -1.7673    1.2719    0.0241 H       1  LIG1        0.0629
     10 S          -0.9488   -0.9907   -1.4824 S.3     1  LIG1       -0.1426
     11 H           0.0827   -1.7529   -1.8780 H       1  LIG1        0.1071
     12 N           2.6445    4.1161    2.0006 N.1     1  LIG1       -0.1909
     13 C           2.1094    3.2712    1.4194 C.1     1  LIG1        0.0998
     14 C           4.3425    0.1882    0.6561 C.ar    1  LIG1        0.0126
     15 C           5.7378    0.2019    0.5926 C.ar    1  LIG1       -0.0468
     16 C           3.6090    1.1988    0.0129 C.ar    1  LIG1       -0.0022
     17 C           6.4064    1.1989   -0.0932 C.ar    1  LIG1       -0.0433
     18 H           6.3099   -0.5747    1.0882 H       1  LIG1        0.0629
     19 C           4.2916    2.2006   -0.6698 C.ar    1  LIG1       -0.0355
     20 C           5.6840    2.2085   -0.7316 C.ar    1  LIG1        0.0524
     21 H           3.7302    2.9853   -1.1641 H       1  LIG1        0.0637
     22 H           7.4893    1.2001   -0.1361 H       1  LIG1        0.0631
     23 S           3.4705   -1.0734    1.5523 S.3     1  LIG1       -0.1420
     24 H           4.5656   -1.6634    2.0566 H       1  LIG1        0.1071
     25 N           6.9246    4.0663   -2.0436 N.1     1  LIG1       -0.1909
     26 C           6.3683    3.2412   -1.4543 C.1     1  LIG1        0.0992
@<TRIPOS>BOND
     1    25    26    3
     2    11    10    1
     3    10     1    1
     4    26    20    1
     5    21    19    1
     6     5     2    1
     7    20    19   ar
     8    20    17   ar
     9    19    16   ar
    10     1     2   ar
    11     1     3   ar
    12     2     4   ar
    13    22    17    1
    14    17    15   ar
    15    16     4    1
    16    16    14   ar
    17     9     3    1
    18     3     6   ar
    19     4     7   ar
    20    15    14   ar
    21    15    18    1
    22    14    23    1
    23     6     7   ar
    24     6     8    1
    25     7    13    1
    26    13    12    3
    27    23    24    1
