@<TRIPOS>MOLECULE
mol_data/opt/cam/geoms/mol2/4ge.out
 15 15 0 0 0
SMALL
GASTEIGER

@<TRIPOS>ATOM
      1 C           0.1000    0.0546    0.0005 C.ar    1  LIG1        0.0048
      2 C           1.4945    0.0461   -0.0000 C.ar    1  LIG1       -0.0474
      3 C          -0.5757    1.2759    0.0003 C.ar    1  LIG1       -0.0474
      4 C           2.2005    1.2386   -0.0006 C.ar    1  LIG1       -0.0453
      5 H           2.0363   -0.8940    0.0001 H       1  LIG1        0.0629
      6 C           0.1314    2.4661   -0.0003 C.ar    1  LIG1       -0.0453
      7 C           1.5308    2.4661   -0.0008 C.ar    1  LIG1        0.0247
      8 H          -0.3995    3.4114   -0.0004 H       1  LIG1        0.0630
      9 H           3.2846    1.2249   -0.0010 H       1  LIG1        0.0630
     10 H          -1.6607    1.2952    0.0007 H       1  LIG1        0.0629
     11 S          -0.8725   -1.4312    0.0012 S.3     1  LIG1       -0.1426
     12 H           0.1537   -2.2963    0.0012 H       1  LIG1        0.1071
     13 C           2.2616    3.6967   -0.0014 C.1     1  LIG1       -0.0697
     14 C           2.8763    4.7320   -0.0018 C.1     1  LIG1       -0.1139
     15 H           3.4199    5.6485   -0.0011 H       1  LIG1        0.1232
@<TRIPOS>BOND
     1    14    13    3
     2    14    15    1
     3    13     7    1
     4     9     4    1
     5     7     4   ar
     6     7     6   ar
     7     4     2   ar
     8     8     6    1
     9     6     3   ar
    10     2     5    1
    11     2     1   ar
    12     3     1   ar
    13     3    10    1
    14     1    11    1
    15    12    11    1
