@<TRIPOS>MOLECULE
mol_data/opt/cam/geoms/mol2/4ge4ge.out
 28 29 0 0 0
SMALL
GASTEIGER

@<TRIPOS>ATOM
      1 C           0.0855    0.2349    0.8460 C.ar    1  LIG1        0.0054
      2 C           1.4712    0.2451    0.7124 C.ar    1  LIG1       -0.0396
      3 C          -0.6607    1.2746    0.2914 C.ar    1  LIG1       -0.0474
      4 C           2.1258    1.2670    0.0282 C.ar    1  LIG1       -0.0004
      5 H           2.0663   -0.5486    1.1517 H       1  LIG1        0.0635
      6 C          -0.0216    2.2990   -0.3824 C.ar    1  LIG1       -0.0447
      7 C           1.3704    2.3150   -0.5288 C.ar    1  LIG1        0.0325
      8 H          -0.6014    3.1056   -0.8166 H       1  LIG1        0.0630
      9 H          -1.7417    1.2801    0.3835 H       1  LIG1        0.0629
     10 S          -0.7840   -1.0427    1.7192 S.3     1  LIG1       -0.1426
     11 H           0.2666   -1.8575    1.9026 H       1  LIG1        0.1071
     12 C           1.9854    3.3883   -1.2497 C.1     1  LIG1       -0.0691
     13 C           2.4704    4.3048   -1.8611 C.1     1  LIG1       -0.1139
     14 H           2.9120    5.1102   -2.4013 H       1  LIG1        0.1232
     15 C           4.2919    0.2417   -0.7804 C.ar    1  LIG1        0.0126
     16 C           5.6876    0.2520   -0.8191 C.ar    1  LIG1       -0.0468
     17 C           3.6128    1.2430   -0.0697 C.ar    1  LIG1       -0.0024
     18 C           6.4081    1.2387   -0.1713 C.ar    1  LIG1       -0.0453
     19 H           6.2190   -0.5199   -1.3657 H       1  LIG1        0.0629
     20 C           4.3517    2.2318    0.5739 C.ar    1  LIG1       -0.0375
     21 C           5.7467    2.2472    0.5361 C.ar    1  LIG1        0.0253
     22 H           3.8277    3.0093    1.1176 H       1  LIG1        0.0636
     23 H           7.4914    1.2349   -0.2103 H       1  LIG1        0.0630
     24 S           3.3548   -1.0080   -1.6351 S.3     1  LIG1       -0.1420
     25 H           4.4117   -1.5842   -2.2295 H       1  LIG1        0.1071
     26 C           6.4829    3.2730    1.2101 C.1     1  LIG1       -0.0696
     27 C           7.1046    4.1342    1.7768 C.1     1  LIG1       -0.1139
     28 H           7.6526    4.8976    2.2791 H       1  LIG1        0.1232
@<TRIPOS>BOND
     1    14    13    1
     2    25    24    1
     3    13    12    3
     4    24    15    1
     5    19    16    1
     6    12     7    1
     7    16    15   ar
     8    16    18   ar
     9     8     6    1
    10    15    17   ar
    11     7     6   ar
    12     7     4   ar
    13     6     3   ar
    14    23    18    1
    15    18    21   ar
    16    17     4    1
    17    17    20   ar
    18     4     2   ar
    19     3     9    1
    20     3     1   ar
    21    21    20   ar
    22    21    26    1
    23    20    22    1
    24     2     1   ar
    25     2     5    1
    26     1    10    1
    27    26    27    3
    28    10    11    1
    29    27    28    1
