@<TRIPOS>MOLECULE
mol_data/opt/cam/geoms/mol2/4ge4ge-4ge-4ge-.out
 54 57 0 0 0
SMALL
GASTEIGER

@<TRIPOS>ATOM
      1 C          -0.1627    0.0243    0.2015 C.ar    1  LIG1        0.0054
      2 C           1.2287    0.0657    0.1828 C.ar    1  LIG1       -0.0396
      3 C          -0.8806    1.2203    0.2058 C.ar    1  LIG1       -0.0474
      4 C           1.9172    1.2768    0.1766 C.ar    1  LIG1       -0.0004
      5 H           1.8009   -0.8557    0.1653 H       1  LIG1        0.0635
      6 C          -0.2082    2.4284    0.1918 C.ar    1  LIG1       -0.0447
      7 C           1.1906    2.4814    0.1793 C.ar    1  LIG1        0.0325
      8 H          -0.7657    3.3580    0.1982 H       1  LIG1        0.0630
      9 H          -1.9653    1.2057    0.2233 H       1  LIG1        0.0629
     10 S          -1.0757   -1.4977    0.1997 S.3     1  LIG1       -0.1426
     11 H          -0.0227   -2.3175    0.3424 H       1  LIG1        0.1071
     12 C           1.8421    3.7564    0.1810 C.1     1  LIG1       -0.0691
     13 C           2.3580    4.8440    0.1827 C.1     1  LIG1       -0.1139
     14 H           2.8256    5.8015    0.1853 H       1  LIG1        0.1232
     15 C           4.1774    0.7512    1.1863 C.ar    1  LIG1        0.0131
     16 C           5.5671    0.7444    1.0789 C.ar    1  LIG1       -0.0390
     17 C           3.4065    1.2667    0.1344 C.ar    1  LIG1       -0.0023
     18 C           6.2197    1.2351   -0.0466 C.ar    1  LIG1       -0.0004
     19 H           6.1675    0.3566    1.8948 H       1  LIG1        0.0635
     20 C           4.0609    1.7662   -0.9862 C.ar    1  LIG1       -0.0369
     21 C           5.4520    1.7609   -1.1016 C.ar    1  LIG1        0.0330
     22 H           3.4719    2.1694   -1.8016 H       1  LIG1        0.0636
     23 S           3.3651    0.1470    2.6497 S.3     1  LIG1       -0.1420
     24 H           4.4920   -0.1163    3.3300 H       1  LIG1        0.1071
     25 C           6.0570    2.2748   -2.2931 C.1     1  LIG1       -0.0690
     26 C           6.5398    2.7122   -3.3051 C.1     1  LIG1       -0.1139
     27 H           6.9797    3.0941   -4.1975 H       1  LIG1        0.1232
     28 C           8.4406    0.0240   -0.0971 C.ar    1  LIG1        0.0131
     29 C           9.8336    0.0726   -0.1147 C.ar    1  LIG1       -0.0390
     30 C           7.7081    1.2197   -0.0963 C.ar    1  LIG1       -0.0023
     31 C          10.5271    1.2773   -0.1462 C.ar    1  LIG1       -0.0004
     32 H          10.4040   -0.8499   -0.1006 H       1  LIG1        0.0635
     33 C           8.4028    2.4239   -0.1278 C.ar    1  LIG1       -0.0369
     34 C           9.7973    2.4799   -0.1535 C.ar    1  LIG1        0.0330
     35 H           7.8435    3.3520   -0.1378 H       1  LIG1        0.0636
     36 S           7.5774   -1.5327   -0.0882 S.3     1  LIG1       -0.1420
     37 H           8.6666   -2.2904   -0.2924 H       1  LIG1        0.1071
     38 C          10.4441    3.7567   -0.1941 C.1     1  LIG1       -0.0690
     39 C          10.9596    4.8439   -0.2273 C.1     1  LIG1       -0.1139
     40 H          11.4263    5.8014   -0.2580 H       1  LIG1        0.1232
     41 C          12.7588    0.7306   -1.2039 C.ar    1  LIG1        0.0126
     42 C          14.1534    0.7218   -1.1340 C.ar    1  LIG1       -0.0468
     43 C          12.0171    1.2665   -0.1401 C.ar    1  LIG1       -0.0024
     44 C          14.8122    1.2389   -0.0335 C.ar    1  LIG1       -0.0453
     45 H          14.7331    0.3080   -1.9524 H       1  LIG1        0.0629
     46 C          12.6946    1.7877    0.9588 C.ar    1  LIG1       -0.0375
     47 C          14.0882    1.7826    1.0320 C.ar    1  LIG1        0.0253
     48 H          12.1229    2.2080    1.7780 H       1  LIG1        0.0636
     49 H          15.8954    1.2260    0.0071 H       1  LIG1        0.0630
     50 S          11.9031    0.0937   -2.6296 S.3     1  LIG1       -0.1420
     51 H          13.0089   -0.1445   -3.3528 H       1  LIG1        0.1071
     52 C          14.7605    2.3205    2.1753 C.1     1  LIG1       -0.0696
     53 C          15.3288    2.7713    3.1361 C.1     1  LIG1       -0.1139
     54 H          15.8298    3.1712    3.9873 H       1  LIG1        0.1232
@<TRIPOS>BOND
     1    27    26    1
     2    51    50    1
     3    26    25    3
     4    50    41    1
     5    25    21    1
     6    45    42    1
     7    22    20    1
     8    41    42   ar
     9    41    43   ar
    10    42    44   ar
    11    21    20   ar
    12    21    18   ar
    13    20    17   ar
    14    37    36    1
    15    40    39    1
    16    39    38    3
    17    38    34    1
    18    34    31   ar
    19    34    33   ar
    20    31    43    1
    21    31    29   ar
    22    43    46   ar
    23    35    33    1
    24    33    30   ar
    25    29    32    1
    26    29    28   ar
    27    28    30   ar
    28    28    36    1
    29    30    18    1
    30    18    16   ar
    31    44    49    1
    32    44    47   ar
    33    17     4    1
    34    17    15   ar
    35     5     2    1
    36     4     7   ar
    37     4     2   ar
    38     7    12    1
    39     7     6   ar
    40    12    13    3
    41    13    14    1
    42     2     1   ar
    43     6     8    1
    44     6     3   ar
    45    10     1    1
    46    10    11    1
    47     1     3   ar
    48     3     9    1
    49    46    47   ar
    50    46    48    1
    51    47    52    1
    52    16    15   ar
    53    16    19    1
    54    15    23    1
    55    52    53    3
    56    23    24    1
    57    53    54    1
