@<TRIPOS>MOLECULE
mol_data/opt/cam/geoms/mol2/4ge4ge4ge.out
 41 43 0 0 0
SMALL
GASTEIGER

@<TRIPOS>ATOM
      1 C           0.0353    0.7730    1.4320 C.ar    1  LIG1        0.0054
      2 C           1.4192    0.7638    1.2801 C.ar    1  LIG1       -0.0396
      3 C          -0.7576    1.3221    0.4246 C.ar    1  LIG1       -0.0474
      4 C           2.0261    1.2827    0.1384 C.ar    1  LIG1       -0.0004
      5 H           2.0497    0.3548    2.0625 H       1  LIG1        0.0635
      6 C          -0.1660    1.8483   -0.7091 C.ar    1  LIG1       -0.0447
      7 C           1.2236    1.8373   -0.8755 C.ar    1  LIG1        0.0325
      8 H          -0.7823    2.2719   -1.4940 H       1  LIG1        0.0630
      9 H          -1.8378    1.3340    0.5257 H       1  LIG1        0.0629
     10 S          -0.7743    0.1312    2.8756 S.3     1  LIG1       -0.1426
     11 H           0.3119   -0.4219    3.4375 H       1  LIG1        0.1071
     12 C           1.7898    2.3772   -2.0744 C.1     1  LIG1       -0.0691
     13 C           2.2365    2.8379   -3.0929 C.1     1  LIG1       -0.1139
     14 H           2.6467    3.2401   -3.9904 H       1  LIG1        0.1232
     15 C           4.2415    0.0712   -0.0328 C.ar    1  LIG1        0.0131
     16 C           5.6329    0.1193   -0.1024 C.ar    1  LIG1       -0.0390
     17 C           3.5119    1.2670    0.0315 C.ar    1  LIG1       -0.0023
     18 C           6.3270    1.3238   -0.1238 C.ar    1  LIG1       -0.0004
     19 H           6.2016   -0.8037   -0.1384 H       1  LIG1        0.0635
     20 C           4.2073    2.4710    0.0101 C.ar    1  LIG1       -0.0369
     21 C           5.5999    2.5268   -0.0670 C.ar    1  LIG1        0.0330
     22 H           3.6500    3.3996    0.0494 H       1  LIG1        0.0636
     23 S           3.3756   -1.4838   -0.0369 S.3     1  LIG1       -0.1420
     24 H           4.4564   -2.2374   -0.2944 H       1  LIG1        0.1071
     25 C           6.2473    3.8036   -0.0934 C.1     1  LIG1       -0.0690
     26 C           6.7634    4.8908   -0.1131 C.1     1  LIG1       -0.1139
     27 H           7.2304    5.8484   -0.1324 H       1  LIG1        0.1232
     28 C           8.5156    0.8115   -1.2837 C.ar    1  LIG1        0.0126
     29 C           9.9118    0.7999   -1.2679 C.ar    1  LIG1       -0.0468
     30 C           7.8161    1.3121   -0.1750 C.ar    1  LIG1       -0.0024
     31 C          10.6132    1.2804   -0.1771 C.ar    1  LIG1       -0.0453
     32 H          10.4589    0.4131   -2.1212 H       1  LIG1        0.0629
     33 C           8.5362    1.7968    0.9135 C.ar    1  LIG1       -0.0375
     34 C           9.9316    1.7891    0.9326 C.ar    1  LIG1        0.0253
     35 H           7.9969    2.1904    1.7672 H       1  LIG1        0.0636
     36 H          11.6971    1.2658   -0.1787 H       1  LIG1        0.0630
     37 S           7.6044    0.2231   -2.6958 S.3     1  LIG1       -0.1420
     38 H           8.6810    0.0117   -3.4698 H       1  LIG1        0.1071
     39 C          10.6482    2.2892    2.0661 C.1     1  LIG1       -0.0696
     40 C          11.2538    2.7085    3.0184 C.1     1  LIG1       -0.1139
     41 H          11.7877    3.0804    3.8622 H       1  LIG1        0.1232
@<TRIPOS>BOND
     1    14    13    1
     2    38    37    1
     3    13    12    3
     4    37    28    1
     5    32    29    1
     6    12     7    1
     7     8     6    1
     8    28    29   ar
     9    28    30   ar
    10    29    31   ar
    11     7     6   ar
    12     7     4   ar
    13     6     3   ar
    14    24    23    1
    15    36    31    1
    16    31    34   ar
    17    30    18    1
    18    30    33   ar
    19    19    16    1
    20    27    26    1
    21    18    16   ar
    22    18    21   ar
    23    26    25    3
    24    16    15   ar
    25    25    21    1
    26    21    20   ar
    27    23    15    1
    28    15    17   ar
    29    20    17   ar
    30    20    22    1
    31    17     4    1
    32     4     2   ar
    33     3     9    1
    34     3     1   ar
    35    33    34   ar
    36    33    35    1
    37    34    39    1
    38     2     1   ar
    39     2     5    1
    40     1    10    1
    41    39    40    3
    42    10    11    1
    43    40    41    1
