@<TRIPOS>MOLECULE
mol_data/opt/cam/geoms/mol2/4ge4ge-4ge-4ge.out
 54 57 0 0 0
SMALL
GASTEIGER

@<TRIPOS>ATOM
      1 C          -0.1646    0.0348    0.2082 C.ar    1  LIG1        0.0054
      2 C           1.2268    0.0739    0.1856 C.ar    1  LIG1       -0.0396
      3 C          -0.8803    1.2318    0.2306 C.ar    1  LIG1       -0.0474
      4 C           1.9175    1.2838    0.1930 C.ar    1  LIG1       -0.0004
      5 H           1.7972   -0.8482    0.1542 H       1  LIG1        0.0635
      6 C          -0.2058    2.4388    0.2302 C.ar    1  LIG1       -0.0447
      7 C           1.1930    2.4895    0.2138 C.ar    1  LIG1        0.0325
      8 H          -0.7616    3.3693    0.2506 H       1  LIG1        0.0630
      9 H          -1.9650    1.2189    0.2514 H       1  LIG1        0.0629
     10 S          -1.0804   -1.4855    0.1896 S.3     1  LIG1       -0.1426
     11 H          -0.0283   -2.3090    0.3178 H       1  LIG1        0.1071
     12 C           1.8468    3.7632    0.2301 C.1     1  LIG1       -0.0691
     13 C           2.3647    4.8498    0.2444 C.1     1  LIG1       -0.1139
     14 H           2.8341    5.8064    0.2586 H       1  LIG1        0.1232
     15 C           4.1800    0.7408    1.1882 C.ar    1  LIG1        0.0131
     16 C           5.5693    0.7331    1.0762 C.ar    1  LIG1       -0.0390
     17 C           3.4066    1.2716    0.1457 C.ar    1  LIG1       -0.0023
     18 C           6.2191    1.2374   -0.0449 C.ar    1  LIG1       -0.0004
     19 H           6.1717    0.3334    1.8850 H       1  LIG1        0.0635
     20 C           4.0583    1.7847   -0.9702 C.ar    1  LIG1       -0.0369
     21 C           5.4489    1.7784   -1.0903 C.ar    1  LIG1        0.0330
     22 H           3.4673    2.1997   -1.7783 H       1  LIG1        0.0636
     23 S           3.3714    0.1189    2.6462 S.3     1  LIG1       -0.1420
     24 H           4.5001   -0.1552    3.3193 H       1  LIG1        0.1071
     25 C           6.0509    2.3070   -2.2769 C.1     1  LIG1       -0.0690
     26 C           6.5312    2.7569   -3.2846 C.1     1  LIG1       -0.1139
     27 H           6.9688    3.1499   -4.1733 H       1  LIG1        0.1232
     28 C           8.4377    0.0232   -0.1184 C.ar    1  LIG1        0.0131
     29 C           9.8307    0.0697   -0.1400 C.ar    1  LIG1       -0.0390
     30 C           7.7073    1.2201   -0.0996 C.ar    1  LIG1       -0.0023
     31 C          10.5262    1.2734   -0.1580 C.ar    1  LIG1       -0.0004
     32 H          10.3995   -0.8539   -0.1397 H       1  LIG1        0.0635
     33 C           8.4040    2.4234   -0.1177 C.ar    1  LIG1       -0.0369
     34 C           9.7985    2.4773   -0.1473 C.ar    1  LIG1        0.0330
     35 H           7.8464    3.3525   -0.1138 H       1  LIG1        0.0636
     36 S           7.5718   -1.5319   -0.1270 S.3     1  LIG1       -0.1420
     37 H           8.6590   -2.2888   -0.3447 H       1  LIG1        0.1071
     38 C          10.4474    3.7534   -0.1734 C.1     1  LIG1       -0.0690
     39 C          10.9647    4.8400   -0.1940 C.1     1  LIG1       -0.1139
     40 H          11.4330    5.7971   -0.2137 H       1  LIG1        0.1232
     41 C          12.7536    0.7364   -1.2299 C.ar    1  LIG1        0.0126
     42 C          14.1483    0.7243   -1.1646 C.ar    1  LIG1       -0.0468
     43 C          12.0162    1.2600   -0.1568 C.ar    1  LIG1       -0.0024
     44 C          14.8116    1.2261   -0.0597 C.ar    1  LIG1       -0.0453
     45 H          14.7246    0.3200   -1.9902 H       1  LIG1        0.0629
     46 C          12.6982    1.7658    0.9464 C.ar    1  LIG1       -0.0375
     47 C          14.0921    1.7574    1.0150 C.ar    1  LIG1        0.0253
     48 H          12.1299    2.1765    1.7728 H       1  LIG1        0.0636
     49 H          15.8949    1.2107   -0.0228 H       1  LIG1        0.0630
     50 S          11.8921    0.1195   -2.6609 S.3     1  LIG1       -0.1420
     51 H          12.9952   -0.1114   -3.3906 H       1  LIG1        0.1071
     52 C          14.7690    2.2793    2.1630 C.1     1  LIG1       -0.0696
     53 C          15.3412    2.7168    3.1276 C.1     1  LIG1       -0.1139
     54 H          15.8454    3.1047    3.9824 H       1  LIG1        0.1232
@<TRIPOS>BOND
     1    27    26    1
     2    51    50    1
     3    26    25    3
     4    50    41    1
     5    25    21    1
     6    45    42    1
     7    22    20    1
     8    41    42   ar
     9    41    43   ar
    10    42    44   ar
    11    21    20   ar
    12    21    18   ar
    13    20    17   ar
    14    37    36    1
    15    40    39    1
    16    39    38    3
    17    38    34    1
    18    31    43    1
    19    31    34   ar
    20    31    29   ar
    21    43    46   ar
    22    34    33   ar
    23    29    32    1
    24    29    28   ar
    25    36    28    1
    26    28    30   ar
    27    33    35    1
    28    33    30   ar
    29    30    18    1
    30    44    49    1
    31    44    47   ar
    32    18    16   ar
    33    17     4    1
    34    17    15   ar
    35     5     2    1
    36     2     4   ar
    37     2     1   ar
    38    10     1    1
    39    10    11    1
    40     4     7   ar
    41     1     3   ar
    42     7    12    1
    43     7     6   ar
    44    12    13    3
    45     6     3   ar
    46     6     8    1
    47     3     9    1
    48    13    14    1
    49    46    47   ar
    50    46    48    1
    51    47    52    1
    52    16    15   ar
    53    16    19    1
    54    15    23    1
    55    52    53    3
    56    23    24    1
    57    53    54    1
