@<TRIPOS>MOLECULE
mol_data/opt/cam/geoms/mol2/4ge4ge-.out
 28 29 0 0 0
SMALL
GASTEIGER

@<TRIPOS>ATOM
      1 C           0.0724    0.2379   -0.8050 C.ar    1  LIG1        0.0054
      2 C           1.4600    0.2472   -0.6925 C.ar    1  LIG1       -0.0396
      3 C          -0.6648    1.2767   -0.2369 C.ar    1  LIG1       -0.0474
      4 C           2.1254    1.2674   -0.0162 C.ar    1  LIG1       -0.0004
      5 H           2.0480   -0.5458   -1.1424 H       1  LIG1        0.0635
      6 C          -0.0150    2.2995    0.4292 C.ar    1  LIG1       -0.0447
      7 C           1.3790    2.3146    0.5544 C.ar    1  LIG1        0.0325
      8 H          -0.5878    3.1053    0.8738 H       1  LIG1        0.0630
      9 H          -1.7471    1.2829   -0.3125 H       1  LIG1        0.0629
     10 S          -0.8109   -1.0375   -1.6676 S.3     1  LIG1       -0.1426
     11 H           0.2364   -1.8526   -1.8682 H       1  LIG1        0.1071
     12 C           2.0054    3.3861    1.2681 C.1     1  LIG1       -0.0691
     13 C           2.5000    4.3012    1.8739 C.1     1  LIG1       -0.1139
     14 H           2.9502    5.1052    2.4091 H       1  LIG1        0.1232
     15 C           4.3030    0.2395    0.7571 C.ar    1  LIG1        0.0126
     16 C           5.6992    0.2493    0.7747 C.ar    1  LIG1       -0.0468
     17 C           3.6137    1.2427    0.0590 C.ar    1  LIG1       -0.0024
     18 C           6.4102    1.2371    0.1180 C.ar    1  LIG1       -0.0453
     19 H           6.2386   -0.5240    1.3115 H       1  LIG1        0.0629
     20 C           4.3431    2.2325   -0.5937 C.ar    1  LIG1       -0.0375
     21 C           5.7385    2.2473   -0.5771 C.ar    1  LIG1        0.0253
     22 H           3.8113    3.0114   -1.1277 H       1  LIG1        0.0636
     23 H           7.4940    1.2327    0.1405 H       1  LIG1        0.0630
     24 S           3.3785   -1.0116    1.6234 S.3     1  LIG1       -0.1420
     25 H           4.4441   -1.5894    2.2005 H       1  LIG1        0.1071
     26 C           6.4649    3.2742   -1.2601 C.1     1  LIG1       -0.0696
     27 C           7.0782    4.1364   -1.8343 C.1     1  LIG1       -0.1139
     28 H           7.6188    4.9006   -2.3433 H       1  LIG1        0.1232
@<TRIPOS>BOND
     1    28    27    1
     2    11    10    1
     3    27    26    3
     4    10     1    1
     5    26    21    1
     6     5     2    1
     7    22    20    1
     8     1     2   ar
     9     1     3   ar
    10     2     4   ar
    11    20    21   ar
    12    20    17   ar
    13    21    18   ar
    14     9     3    1
    15     3     6   ar
    16     4    17    1
    17     4     7   ar
    18    17    15   ar
    19    18    23    1
    20    18    16   ar
    21     6     7   ar
    22     6     8    1
    23     7    12    1
    24    15    16   ar
    25    15    24    1
    26    16    19    1
    27    12    13    3
    28    24    25    1
    29    13    14    1
