@<TRIPOS>MOLECULE
mol_data/opt/cam/geoms/mol2/4ge4ge-4ge-.out
 41 43 0 0 0
SMALL
GASTEIGER

@<TRIPOS>ATOM
      1 C          -0.0827    0.1562   -0.4419 C.ar    1  LIG1        0.0054
      2 C           1.3089    0.1634   -0.4078 C.ar    1  LIG1       -0.0396
      3 C          -0.7813    1.2871   -0.0188 C.ar    1  LIG1       -0.0474
      4 C           2.0163    1.2740    0.0475 C.ar    1  LIG1       -0.0004
      5 H           1.8667   -0.7034   -0.7459 H       1  LIG1        0.0635
      6 C          -0.0898    2.3981    0.4275 C.ar    1  LIG1       -0.0447
      7 C           1.3092    2.4138    0.4716 C.ar    1  LIG1        0.0325
      8 H          -0.6324    3.2761    0.7591 H       1  LIG1        0.0630
      9 H          -1.8660    1.2966   -0.0359 H       1  LIG1        0.0629
     10 S          -1.0200   -1.2341   -1.0241 S.3     1  LIG1       -0.1426
     11 H           0.0141   -2.0775   -1.1671 H       1  LIG1        0.1071
     12 C           1.9809    3.5817    0.9561 C.1     1  LIG1       -0.0691
     13 C           2.5146    4.5788    1.3685 C.1     1  LIG1       -0.1139
     14 H           2.9975    5.4559    1.7332 H       1  LIG1        0.1232
     15 C           4.2303    0.3600    0.8635 C.ar    1  LIG1        0.0131
     16 C           5.6229    0.3563    0.8020 C.ar    1  LIG1       -0.0390
     17 C           3.5058    1.2393    0.0458 C.ar    1  LIG1       -0.0023
     18 C           6.3232    1.2016   -0.0515 C.ar    1  LIG1       -0.0004
     19 H           6.1879   -0.3147    1.4401 H       1  LIG1        0.0635
     20 C           4.2076    2.0904   -0.8005 C.ar    1  LIG1       -0.0369
     21 C           5.6018    2.0904   -0.8690 C.ar    1  LIG1        0.0330
     22 H           3.6545    2.7752   -1.4327 H       1  LIG1        0.0636
     23 S           3.3560   -0.7093    1.9853 S.3     1  LIG1       -0.1420
     24 H           4.4531   -1.2279    2.5593 H       1  LIG1        0.1071
     25 C           6.2568    2.9833   -1.7765 C.1     1  LIG1       -0.0690
     26 C           6.7800    3.7444   -2.5485 C.1     1  LIG1       -0.1139
     27 H           7.2529    4.4132   -3.2300 H       1  LIG1        0.1232
     28 C           8.5261    0.0407   -0.4913 C.ar    1  LIG1        0.0126
     29 C           9.9218    0.0539   -0.4553 C.ar    1  LIG1       -0.0468
     30 C           7.8127    1.1687   -0.0583 C.ar    1  LIG1       -0.0024
     31 C          10.6092    1.1659   -0.0040 C.ar    1  LIG1       -0.0453
     32 H          10.4796   -0.8155   -0.7872 H       1  LIG1        0.0629
     33 C           8.5186    2.2818    0.3898 C.ar    1  LIG1       -0.0375
     34 C           9.9136    2.3002    0.4256 C.ar    1  LIG1        0.0253
     35 H           7.9684    3.1559    0.7182 H       1  LIG1        0.0636
     36 H          11.6930    1.1629    0.0178 H       1  LIG1        0.0630
     37 S           7.6320   -1.3752   -1.0968 S.3     1  LIG1       -0.1420
     38 H           8.7162   -2.0535   -1.5052 H       1  LIG1        0.1071
     39 C          10.6160    3.4556    0.8948 C.1     1  LIG1       -0.0696
     40 C          11.2096    4.4257    1.2896 C.1     1  LIG1       -0.1139
     41 H          11.7328    5.2855    1.6395 H       1  LIG1        0.1232
@<TRIPOS>BOND
     1    27    26    1
     2    26    25    3
     3    25    21    1
     4    38    37    1
     5    22    20    1
     6    11    10    1
     7    37    28    1
     8    10     1    1
     9    21    20   ar
    10    21    18   ar
    11    20    17   ar
    12    32    29    1
    13     5     2    1
    14    28    29   ar
    15    28    30   ar
    16    29    31   ar
    17     1     2   ar
    18     1     3   ar
    19     2     4   ar
    20    30    18    1
    21    30    33   ar
    22    18    16   ar
    23     9     3    1
    24     3     6   ar
    25    31    36    1
    26    31    34   ar
    27    17     4    1
    28    17    15   ar
    29     4     7   ar
    30    33    34   ar
    31    33    35    1
    32    34    39    1
    33     6     7   ar
    34     6     8    1
    35     7    12    1
    36    16    15   ar
    37    16    19    1
    38    15    23    1
    39    39    40    3
    40    12    13    3
    41    40    41    1
    42    13    14    1
    43    23    24    1
