@<TRIPOS>MOLECULE
mol_data/opt/cam/geoms/mol2/4ge4ge-4ge4ge-.out
 54 57 0 0 0
SMALL
GASTEIGER

@<TRIPOS>ATOM
      1 C          -0.1754    0.2554   -0.7698 C.ar    1  LIG1        0.0054
      2 C           1.2152    0.2565   -0.7049 C.ar    1  LIG1       -0.0396
      3 C          -0.8875    1.2882   -0.1598 C.ar    1  LIG1       -0.0474
      4 C           1.9081    1.2638   -0.0370 C.ar    1  LIG1       -0.0004
      5 H           1.7837   -0.5326   -1.1855 H       1  LIG1        0.0635
      6 C          -0.2102    2.2973    0.4996 C.ar    1  LIG1       -0.0447
      7 C           1.1874    2.3050    0.5758 C.ar    1  LIG1        0.0325
      8 H          -0.7634    3.0985    0.9764 H       1  LIG1        0.0630
      9 H          -1.9716    1.3007   -0.1985 H       1  LIG1        0.0629
     10 S          -1.0942   -1.0034   -1.6192 S.3     1  LIG1       -0.1426
     11 H          -0.0527   -1.8019   -1.9000 H       1  LIG1        0.1071
     12 C           1.8434    3.3629    1.2832 C.1     1  LIG1       -0.0691
     13 C           2.3634    4.2663    1.8854 C.1     1  LIG1       -0.1139
     14 H           2.8348    5.0605    2.4171 H       1  LIG1        0.1232
     15 C           4.1105    0.2156    0.6387 C.ar    1  LIG1        0.0131
     16 C           5.5039    0.2258    0.6065 C.ar    1  LIG1       -0.0390
     17 C           3.3975    1.2317   -0.0143 C.ar    1  LIG1       -0.0023
     18 C           6.2163    1.2178   -0.0581 C.ar    1  LIG1       -0.0004
     19 H           6.0598   -0.5519    1.1190 H       1  LIG1        0.0635
     20 C           4.1114    2.2276   -0.6710 C.ar    1  LIG1       -0.0369
     21 C           5.5068    2.2430   -0.7093 C.ar    1  LIG1        0.0330
     22 H           3.5675    3.0180   -1.1749 H       1  LIG1        0.0636
     23 S           3.2201   -1.0462    1.5224 S.3     1  LIG1       -0.1420
     24 H           4.3085   -1.6622    2.0101 H       1  LIG1        0.1071
     25 C           6.1740    3.2917   -1.4202 C.1     1  LIG1       -0.0690
     26 C           6.7063    4.1854   -2.0259 C.1     1  LIG1       -0.1139
     27 H           7.1864    4.9719   -2.5610 H       1  LIG1        0.1232
     28 C           8.4397    0.1581   -0.6398 C.ar    1  LIG1        0.0131
     29 C           9.8316    0.1744   -0.5679 C.ar    1  LIG1       -0.0390
     30 C           7.7053    1.1899   -0.0376 C.ar    1  LIG1       -0.0023
     31 C          10.5222    1.1877    0.0876 C.ar    1  LIG1       -0.0004
     32 H          10.4041   -0.6161   -1.0413 H       1  LIG1        0.0635
     33 C           8.3975    2.2075    0.6095 C.ar    1  LIG1       -0.0369
     34 C           9.7910    2.2290    0.6874 C.ar    1  LIG1        0.0330
     35 H           7.8370    3.0104    1.0739 H       1  LIG1        0.0636
     36 S           7.5795   -1.1328   -1.5120 S.3     1  LIG1       -0.1420
     37 H           8.6835   -1.7552   -1.9543 H       1  LIG1        0.1071
     38 C          10.4349    3.3004    1.3857 C.1     1  LIG1       -0.0690
     39 C          10.9483    4.2130    1.9793 C.1     1  LIG1       -0.1139
     40 H          11.4125    5.0155    2.5047 H       1  LIG1        0.1232
     41 C          12.7257    0.1558    0.7770 C.ar    1  LIG1        0.0126
     42 C          14.1216    0.1675    0.7475 C.ar    1  LIG1       -0.0468
     43 C          12.0117    1.1642    0.1120 C.ar    1  LIG1       -0.0024
     44 C          14.8086    1.1629    0.0768 C.ar    1  LIG1       -0.0453
     45 H          14.6799   -0.6099    1.2583 H       1  LIG1        0.0629
     46 C          12.7174    2.1618   -0.5551 C.ar    1  LIG1       -0.0375
     47 C          14.1125    2.1787   -0.5854 C.ar    1  LIG1        0.0253
     48 H          12.1666    2.9449   -1.0631 H       1  LIG1        0.0636
     49 H          15.8926    1.1602    0.0627 H       1  LIG1        0.0630
     50 S          11.8327   -1.1049    1.6627 S.3     1  LIG1       -0.1420
     51 H          12.9172   -1.6803    2.2058 H       1  LIG1        0.1071
     52 C          14.8143    3.2134   -1.2821 C.1     1  LIG1       -0.0696
     53 C          15.4076    4.0818   -1.8680 C.1     1  LIG1       -0.1139
     54 H          15.9311    4.8510   -2.3873 H       1  LIG1        0.1232
@<TRIPOS>BOND
     1    27    26    1
     2    54    53    1
     3    26    25    3
     4    37    36    1
     5    11    10    1
     6    53    52    3
     7    10     1    1
     8    36    28    1
     9    25    21    1
    10    52    47    1
    11     5     2    1
    12    22    20    1
    13    48    46    1
    14    32    29    1
    15     1     2   ar
    16     1     3   ar
    17    21    20   ar
    18    21    18   ar
    19     2     4   ar
    20    20    17   ar
    21    28    29   ar
    22    28    30   ar
    23    47    46   ar
    24    47    44   ar
    25    29    31   ar
    26    46    43   ar
    27     9     3    1
    28     3     6   ar
    29    18    30    1
    30    18    16   ar
    31    30    33   ar
    32     4    17    1
    33     4     7   ar
    34    17    15   ar
    35    49    44    1
    36    44    42   ar
    37    31    43    1
    38    31    34   ar
    39    43    41   ar
    40     6     7   ar
    41     6     8    1
    42     7    12    1
    43    16    15   ar
    44    16    19    1
    45    33    34   ar
    46    33    35    1
    47    15    23    1
    48    34    38    1
    49    42    41   ar
    50    42    45    1
    51    41    50    1
    52    12    13    3
    53    38    39    3
    54    23    24    1
    55    50    51    1
    56    13    14    1
    57    39    40    1
