@<TRIPOS>MOLECULE
mol_data/opt/cam/geoms/mol2/4ge4ge4ge4ge.out
 54 57 0 0 0
SMALL
GASTEIGER

@<TRIPOS>ATOM
      1 C          -0.0458    1.5298    1.6366 C.ar    1  LIG1        0.0054
      2 C           1.3376    1.4832    1.4868 C.ar    1  LIG1       -0.0396
      3 C          -0.8577    1.4265    0.5073 C.ar    1  LIG1       -0.0474
      4 C           1.9257    1.3255    0.2337 C.ar    1  LIG1       -0.0004
      5 H           1.9821    1.5788    2.3543 H       1  LIG1        0.0635
      6 C          -0.2851    1.2791   -0.7427 C.ar    1  LIG1       -0.0447
      7 C           1.1041    1.2233   -0.9038 C.ar    1  LIG1        0.0325
      8 H          -0.9159    1.1952   -1.6203 H       1  LIG1        0.0630
      9 H          -1.9376    1.4574    0.6069 H       1  LIG1        0.0629
     10 S          -0.8322    1.7398    3.2141 S.3     1  LIG1       -0.1426
     11 H           0.2737    1.6138    3.9640 H       1  LIG1        0.1071
     12 C           1.6510    1.0514   -2.2156 C.1     1  LIG1       -0.0691
     13 C           2.0816    0.9062   -3.3303 C.1     1  LIG1       -0.1139
     14 H           2.4780    0.7756   -4.3108 H       1  LIG1        0.1232
     15 C           4.1831    0.2817    0.7017 C.ar    1  LIG1        0.0131
     16 C           5.5721    0.3280    0.5927 C.ar    1  LIG1       -0.0390
     17 C           3.4112    1.3001    0.1243 C.ar    1  LIG1       -0.0023
     18 C           6.2227    1.3515   -0.0874 C.ar    1  LIG1       -0.0004
     19 H           6.1730   -0.4496    1.0519 H       1  LIG1        0.0635
     20 C           4.0632    2.3232   -0.5554 C.ar    1  LIG1       -0.0369
     21 C           5.4530    2.3718   -0.6755 C.ar    1  LIG1        0.0330
     22 H           3.4731    3.1084   -1.0131 H       1  LIG1        0.0636
     23 S           3.3735   -1.0554    1.5528 S.3     1  LIG1       -0.1420
     24 H           4.4791   -1.7993    1.7150 H       1  LIG1        0.1071
     25 C           6.0545    3.4509   -1.3991 C.1     1  LIG1       -0.0690
     26 C           6.5338    4.3690   -2.0123 C.1     1  LIG1       -0.1139
     27 H           6.9707    5.1757   -2.5545 H       1  LIG1        0.1232
     28 C           8.4363    0.3519   -0.8005 C.ar    1  LIG1        0.0131
     29 C           9.8296    0.3980   -0.7962 C.ar    1  LIG1       -0.0390
     30 C           7.7106    1.3604   -0.1499 C.ar    1  LIG1       -0.0023
     31 C          10.5300    1.4267   -0.1761 C.ar    1  LIG1       -0.0004
     32 H          10.3948   -0.3881   -1.2854 H       1  LIG1        0.0635
     33 C           8.4124    2.3893    0.4687 C.ar    1  LIG1       -0.0369
     34 C           9.8070    2.4461    0.4696 C.ar    1  LIG1        0.0330
     35 H           7.8587    3.1784    0.9639 H       1  LIG1        0.0636
     36 S           7.5647   -0.9588   -1.6311 S.3     1  LIG1       -0.1420
     37 H           8.6523   -1.5007   -2.2018 H       1  LIG1        0.1071
     38 C          10.4607    3.5413    1.1204 C.1     1  LIG1       -0.0690
     39 C          10.9819    4.4734    1.6757 C.1     1  LIG1       -0.1139
     40 H          11.4534    5.2953    2.1632 H       1  LIG1        0.1232
     41 C          12.7575    1.5290   -1.3708 C.ar    1  LIG1        0.0126
     42 C          14.1521    1.4796   -1.3221 C.ar    1  LIG1       -0.0468
     43 C          12.0199    1.4091   -0.1830 C.ar    1  LIG1       -0.0024
     44 C          14.8150    1.3201   -0.1189 C.ar    1  LIG1       -0.0453
     45 H          14.7285    1.5706   -2.2367 H       1  LIG1        0.0629
     46 C          12.7016    1.2536    1.0208 C.ar    1  LIG1       -0.0375
     47 C          14.0953    1.2058    1.0744 C.ar    1  LIG1        0.0253
     48 H          12.1332    1.1677    1.9396 H       1  LIG1        0.0636
     49 H          15.8983    1.2843   -0.0958 H       1  LIG1        0.0630
     50 S          11.8965    1.7644   -2.9114 S.3     1  LIG1       -0.1420
     51 H          12.9997    1.9530   -3.6530 H       1  LIG1        0.1071
     52 C          14.7719    1.0408    2.3248 C.1     1  LIG1       -0.0696
     53 C          15.3438    0.9013    3.3749 C.1     1  LIG1       -0.1139
     54 H          15.8480    0.7782    4.3055 H       1  LIG1        0.1232
@<TRIPOS>BOND
     1    14    13    1
     2    51    50    1
     3    13    12    3
     4    50    41    1
     5    27    26    1
     6    45    42    1
     7    12     7    1
     8    37    36    1
     9    26    25    3
    10    36    28    1
    11     8     6    1
    12    25    21    1
    13    41    42   ar
    14    41    43   ar
    15    42    44   ar
    16    32    29    1
    17    22    20    1
    18     7     6   ar
    19     7     4   ar
    20    28    29   ar
    21    28    30   ar
    22    29    31   ar
    23     6     3   ar
    24    21    20   ar
    25    21    18   ar
    26    20    17   ar
    27    43    31    1
    28    43    46   ar
    29    31    34   ar
    30    30    18    1
    31    30    33   ar
    32    44    49    1
    33    44    47   ar
    34    18    16   ar
    35    17     4    1
    36    17    15   ar
    37     4     2   ar
    38    33    34   ar
    39    33    35    1
    40    34    38    1
    41     3     9    1
    42     3     1   ar
    43    16    15   ar
    44    16    19    1
    45    15    23    1
    46    46    47   ar
    47    46    48    1
    48    47    52    1
    49    38    39    3
    50     2     1   ar
    51     2     5    1
    52    23    24    1
    53     1    10    1
    54    39    40    1
    55    52    53    3
    56    10    11    1
    57    53    54    1
