@<TRIPOS>MOLECULE
mol_data/opt/cam/geoms/mol2/4ge4ge-4ge.out
 41 43 0 0 0
SMALL
GASTEIGER

@<TRIPOS>ATOM
      1 C          -0.0829    0.1601   -0.4478 C.ar    1  LIG1        0.0054
      2 C           1.3088    0.1670   -0.4141 C.ar    1  LIG1       -0.0396
      3 C          -0.7812    1.2878   -0.0161 C.ar    1  LIG1       -0.0474
      4 C           2.0163    1.2740    0.0493 C.ar    1  LIG1       -0.0004
      5 H           1.8664   -0.6974   -0.7588 H       1  LIG1        0.0635
      6 C          -0.0895    2.3954    0.4384 C.ar    1  LIG1       -0.0447
      7 C           1.3095    2.4107    0.4820 C.ar    1  LIG1        0.0325
      8 H          -0.6320    3.2709    0.7767 H       1  LIG1        0.0630
      9 H          -1.8660    1.2976   -0.0329 H       1  LIG1        0.0629
     10 S          -1.0205   -1.2258   -1.0399 S.3     1  LIG1       -0.1426
     11 H           0.0137   -2.0677   -1.1912 H       1  LIG1        0.1071
     12 C           1.9814    3.5748    0.9753 C.1     1  LIG1       -0.0691
     13 C           2.5149    4.5689    1.3950 C.1     1  LIG1       -0.1139
     14 H           2.9981    5.4433    1.7659 H       1  LIG1        0.1232
     15 C           4.2305    0.3535    0.8573 C.ar    1  LIG1        0.0131
     16 C           5.6231    0.3501    0.7953 C.ar    1  LIG1       -0.0390
     17 C           3.5058    1.2392    0.0468 C.ar    1  LIG1       -0.0023
     18 C           6.3231    1.2020   -0.0517 C.ar    1  LIG1       -0.0004
     19 H           6.1882   -0.3260    1.4279 H       1  LIG1        0.0635
     20 C           4.2074    2.0969   -0.7930 C.ar    1  LIG1       -0.0369
     21 C           5.6016    2.0973   -0.8619 C.ar    1  LIG1        0.0330
     22 H           3.6542    2.7866   -1.4197 H       1  LIG1        0.0636
     23 S           3.3565   -0.7245    1.9710 S.3     1  LIG1       -0.1420
     24 H           4.4538   -1.2478    2.5405 H       1  LIG1        0.1071
     25 C           6.2563    2.9972   -1.7628 C.1     1  LIG1       -0.0690
     26 C           6.7790    3.7643   -2.5291 C.1     1  LIG1       -0.1139
     27 H           7.2515    4.4387   -3.2054 H       1  LIG1        0.1232
     28 C           8.5256    0.0440   -0.5012 C.ar    1  LIG1        0.0126
     29 C           9.9214    0.0566   -0.4655 C.ar    1  LIG1       -0.0468
     30 C           7.8127    1.1689   -0.0594 C.ar    1  LIG1       -0.0024
     31 C          10.6091    1.1650   -0.0062 C.ar    1  LIG1       -0.0453
     32 H          10.4788   -0.8104   -0.8041 H       1  LIG1        0.0629
     33 C           8.5190    2.2784    0.3968 C.ar    1  LIG1       -0.0375
     34 C           9.9140    2.2962    0.4322 C.ar    1  LIG1        0.0253
     35 H           7.9691    3.1501    0.7320 H       1  LIG1        0.0636
     36 H          11.6930    1.1615    0.0153 H       1  LIG1        0.0630
     37 S           7.6310   -1.3671   -1.1170 S.3     1  LIG1       -0.1420
     38 H           8.7149   -2.0428   -1.5305 H       1  LIG1        0.1071
     39 C          10.6167    3.4479    0.9099 C.1     1  LIG1       -0.0696
     40 C          11.2107    4.4148    1.3118 C.1     1  LIG1       -0.1139
     41 H          11.7346    5.2720    1.6671 H       1  LIG1        0.1232
@<TRIPOS>BOND
     1    27    26    1
     2    26    25    3
     3    25    21    1
     4    38    37    1
     5    22    20    1
     6    11    10    1
     7    37    28    1
     8    10     1    1
     9    21    20   ar
    10    21    18   ar
    11    32    29    1
    12    20    17   ar
    13     5     2    1
    14    28    29   ar
    15    28    30   ar
    16    29    31   ar
    17     1     2   ar
    18     1     3   ar
    19     2     4   ar
    20    30    18    1
    21    30    33   ar
    22    18    16   ar
    23     9     3    1
    24     3     6   ar
    25    31    36    1
    26    31    34   ar
    27    17     4    1
    28    17    15   ar
    29     4     7   ar
    30    33    34   ar
    31    33    35    1
    32    34    39    1
    33     6     7   ar
    34     6     8    1
    35     7    12    1
    36    16    15   ar
    37    16    19    1
    38    15    23    1
    39    39    40    3
    40    12    13    3
    41    40    41    1
    42    13    14    1
    43    23    24    1
