@<TRIPOS>MOLECULE
mol_data/opt/cam/geoms/mol2/4ge4ge4ge-4ge.out
 54 57 0 0 0
SMALL
GASTEIGER

@<TRIPOS>ATOM
      1 C          -0.1743    0.2611    0.7934 C.ar    1  LIG1        0.0054
      2 C           1.2162    0.2617    0.7267 C.ar    1  LIG1       -0.0396
      3 C          -0.8872    1.2893    0.1766 C.ar    1  LIG1       -0.0474
      4 C           1.9082    1.2640    0.0502 C.ar    1  LIG1       -0.0004
      5 H           1.7854   -0.5238    1.2124 H       1  LIG1        0.0635
      6 C          -0.2109    2.2934   -0.4912 C.ar    1  LIG1       -0.0447
      7 C           1.1867    2.3005   -0.5694 C.ar    1  LIG1        0.0325
      8 H          -0.7648    3.0909   -0.9733 H       1  LIG1        0.0630
      9 H          -1.9713    1.3020    0.2167 H       1  LIG1        0.0629
     10 S          -1.0920   -0.9913    1.6535 S.3     1  LIG1       -0.1426
     11 H          -0.0501   -1.7878    1.9388 H       1  LIG1        0.1071
     12 C           1.8417    3.3531   -1.2856 C.1     1  LIG1       -0.0691
     13 C           2.3608    4.2520   -1.8953 C.1     1  LIG1       -0.1139
     14 H           2.8314    5.0421   -2.4336 H       1  LIG1        0.1232
     15 C           4.1097    0.2108   -0.6205 C.ar    1  LIG1        0.0131
     16 C           5.5031    0.2212   -0.5903 C.ar    1  LIG1       -0.0390
     17 C           3.3976    1.2317    0.0258 C.ar    1  LIG1       -0.0023
     18 C           6.2164    1.2183    0.0659 C.ar    1  LIG1       -0.0004
     19 H           6.0584   -0.5603   -1.0977 H       1  LIG1        0.0635
     20 C           4.1123    2.2326    0.6741 C.ar    1  LIG1       -0.0369
     21 C           5.5077    2.2483    0.7104 C.ar    1  LIG1        0.0330
     22 H           3.5690    3.0267    1.1727 H       1  LIG1        0.0636
     23 S           3.2181   -1.0576   -1.4936 S.3     1  LIG1       -0.1420
     24 H           4.3059   -1.6773   -1.9781 H       1  LIG1        0.1071
     25 C           6.1758    3.3023    1.4125 C.1     1  LIG1       -0.0690
     26 C           6.7089    4.2005    2.0107 C.1     1  LIG1       -0.1139
     27 H           7.1898    4.9910    2.5393 H       1  LIG1        0.1232
     28 C           8.4406    0.1629    0.6526 C.ar    1  LIG1        0.0131
     29 C           9.8324    0.1787    0.5787 C.ar    1  LIG1       -0.0390
     30 C           7.7053    1.1902    0.0436 C.ar    1  LIG1       -0.0023
     31 C          10.5221    1.1871   -0.0853 C.ar    1  LIG1       -0.0004
     32 H          10.4056   -0.6082    1.0572 H       1  LIG1        0.0635
     33 C           8.3967    2.2030   -0.6120 C.ar    1  LIG1       -0.0369
     34 C           9.7901    2.2238   -0.6919 C.ar    1  LIG1        0.0330
     35 H           7.8355    3.0023   -1.0816 H       1  LIG1        0.0636
     36 S           7.5816   -1.1214    1.5356 S.3     1  LIG1       -0.1420
     37 H           8.6862   -1.7405    1.9810 H       1  LIG1        0.1071
     38 C          10.4330    3.2900   -1.3991 C.1     1  LIG1       -0.0690
     39 C          10.9455    4.1982   -2.0002 C.1     1  LIG1       -0.1139
     40 H          11.4089    4.9967   -2.5323 H       1  LIG1        0.1232
     41 C          12.7247    0.1501   -0.7700 C.ar    1  LIG1        0.0126
     42 C          14.1206    0.1621   -0.7424 C.ar    1  LIG1       -0.0468
     43 C          12.0116    1.1635   -0.1115 C.ar    1  LIG1       -0.0024
     44 C          14.8085    1.1624   -0.0801 C.ar    1  LIG1       -0.0453
     45 H          14.6782   -0.6192   -1.2481 H       1  LIG1        0.0629
     46 C          12.7181    2.1660    0.5471 C.ar    1  LIG1       -0.0375
     47 C          14.1132    2.1832    0.5754 C.ar    1  LIG1        0.0253
     48 H          12.1680    2.9529    1.0500 H       1  LIG1        0.0636
     49 H          15.8925    1.1599   -0.0674 H       1  LIG1        0.0630
     50 S          11.8306   -1.1172   -1.6449 S.3     1  LIG1       -0.1420
     51 H          12.9143   -1.6967   -2.1852 H       1  LIG1        0.1071
     52 C          14.8160    3.2230    1.2634 C.1     1  LIG1       -0.0696
     53 C          15.4101    4.0958    1.8419 C.1     1  LIG1       -0.1139
     54 H          15.9342    4.8689    2.3548 H       1  LIG1        0.1232
@<TRIPOS>BOND
     1    40    39    1
     2    14    13    1
     3    51    50    1
     4    39    38    3
     5    24    23    1
     6    13    12    3
     7    50    41    1
     8    23    15    1
     9    38    34    1
    10    12     7    1
    11    45    42    1
    12    19    16    1
    13    35    33    1
    14     8     6    1
    15    41    42   ar
    16    41    43   ar
    17    42    44   ar
    18    34    33   ar
    19    34    31   ar
    20    15    16   ar
    21    15    17   ar
    22    33    30   ar
    23    16    18   ar
    24     7     6   ar
    25     7     4   ar
    26     6     3   ar
    27    43    31    1
    28    43    46   ar
    29    31    29   ar
    30    44    49    1
    31    44    47   ar
    32    17     4    1
    33    17    20   ar
    34    30    18    1
    35    30    28   ar
    36     4     2   ar
    37    18    21   ar
    38     3     9    1
    39     3     1   ar
    40    46    47   ar
    41    46    48    1
    42    47    52    1
    43    29    28   ar
    44    29    32    1
    45    28    36    1
    46    20    21   ar
    47    20    22    1
    48    21    25    1
    49     2     1   ar
    50     2     5    1
    51     1    10    1
    52    52    53    3
    53    25    26    3
    54    36    37    1
    55    10    11    1
    56    53    54    1
    57    26    27    1
