@<TRIPOS>MOLECULE
mol_data/opt/cam/geoms/mol2/4ge4ge4ge4ge-.out
 54 57 0 0 0
SMALL
GASTEIGER

@<TRIPOS>ATOM
      1 C          -0.1083    0.8414    1.3750 C.ar    1  LIG1        0.0054
      2 C           1.2778    0.8128    1.2479 C.ar    1  LIG1       -0.0396
      3 C          -0.8757    1.3940    0.3497 C.ar    1  LIG1       -0.0474
      4 C           1.9118    1.3163    0.1142 C.ar    1  LIG1       -0.0004
      5 H           1.8886    0.3996    2.0437 H       1  LIG1        0.0635
      6 C          -0.2569    1.9046   -0.7765 C.ar    1  LIG1       -0.0447
      7 C           1.1353    1.8747   -0.9175 C.ar    1  LIG1        0.0325
      8 H          -0.8533    2.3311   -1.5750 H       1  LIG1        0.0630
      9 H          -1.9572    1.4214    0.4315 H       1  LIG1        0.0629
     10 S          -0.9522    0.2183    2.8070 S.3     1  LIG1       -0.1426
     11 H           0.1220   -0.3190    3.4058 H       1  LIG1        0.1071
     12 C           1.7303    2.4000   -2.1090 C.1     1  LIG1       -0.0691
     13 C           2.2017    2.8489   -3.1215 C.1     1  LIG1       -0.1139
     14 H           2.6338    3.2411   -4.0132 H       1  LIG1        0.1232
     15 C           4.1125    0.0732   -0.0128 C.ar    1  LIG1        0.0131
     16 C           5.5053    0.1011   -0.0586 C.ar    1  LIG1       -0.0390
     17 C           3.3990    1.2796    0.0341 C.ar    1  LIG1       -0.0023
     18 C           6.2165    1.2958   -0.0720 C.ar    1  LIG1       -0.0004
     19 H           6.0616   -0.8298   -0.0819 H       1  LIG1        0.0635
     20 C           4.1115    2.4735    0.0206 C.ar    1  LIG1       -0.0369
     21 C           5.5060    2.5093   -0.0320 C.ar    1  LIG1        0.0330
     22 H           3.5669    3.4100    0.0467 H       1  LIG1        0.0636
     23 S           3.2246   -1.4690   -0.0259 S.3     1  LIG1       -0.1420
     24 H           4.2992   -2.2399   -0.2560 H       1  LIG1        0.1071
     25 C           6.1716    3.7769   -0.0516 C.1     1  LIG1       -0.0690
     26 C           6.7025    4.8570   -0.0663 C.1     1  LIG1       -0.1139
     27 H           7.1810    5.8091   -0.0817 H       1  LIG1        0.1232
     28 C           8.4207    0.7398   -1.1849 C.ar    1  LIG1        0.0131
     29 C           9.8136    0.7135   -1.1404 C.ar    1  LIG1       -0.0390
     30 C           7.7054    1.2623   -0.0975 C.ar    1  LIG1       -0.0023
     31 C          10.5237    1.1907   -0.0443 C.ar    1  LIG1       -0.0004
     32 H          10.3713    0.3205   -1.9837 H       1  LIG1        0.0635
     33 C           8.4171    1.7484    0.9937 C.ar    1  LIG1       -0.0369
     34 C           9.8117    1.7228    1.0459 C.ar    1  LIG1        0.0330
     35 H           7.8716    2.1577    1.8359 H       1  LIG1        0.0636
     36 S           7.5353    0.1533   -2.6127 S.3     1  LIG1       -0.1420
     37 H           8.6276   -0.1319   -3.3392 H       1  LIG1        0.1071
     38 C          10.4763    2.2251    2.2105 C.1     1  LIG1       -0.0690
     39 C          11.0071    2.6538    3.2021 C.1     1  LIG1       -0.1139
     40 H          11.4871    3.0299    4.0760 H       1  LIG1        0.1232
     41 C          12.7268   -0.0504   -0.0839 C.ar    1  LIG1        0.0126
     42 C          14.1222   -0.0241   -0.1268 C.ar    1  LIG1       -0.0468
     43 C          12.0131    1.1575   -0.0635 C.ar    1  LIG1       -0.0024
     44 C          14.8090    1.1761   -0.1436 C.ar    1  LIG1       -0.0453
     45 H          14.6802   -0.9544   -0.1442 H       1  LIG1        0.0629
     46 C          12.7186    2.3576   -0.0767 C.ar    1  LIG1       -0.0375
     47 C          14.1132    2.3886   -0.1175 C.ar    1  LIG1        0.0253
     48 H          12.1681    3.2909   -0.0543 H       1  LIG1        0.0636
     49 H          15.8926    1.1817   -0.1763 H       1  LIG1        0.0630
     50 S          11.8346   -1.5906   -0.0332 S.3     1  LIG1       -0.1420
     51 H          12.9210   -2.3709    0.0815 H       1  LIG1        0.1071
     52 C          14.8148    3.6360   -0.1348 C.1     1  LIG1       -0.0696
     53 C          15.4076    4.6837   -0.1502 C.1     1  LIG1       -0.1139
     54 H          15.9304    5.6120   -0.1643 H       1  LIG1        0.1232
@<TRIPOS>BOND
     1    14    13    1
     2    37    36    1
     3    13    12    3
     4    36    28    1
     5    12     7    1
     6    32    29    1
     7     8     6    1
     8    28    29   ar
     9    28    30   ar
    10    29    31   ar
    11     7     6   ar
    12     7     4   ar
    13     6     3   ar
    14    24    23    1
    15    49    44    1
    16    54    53    1
    17    53    52    3
    18    45    42    1
    19    44    42   ar
    20    44    47   ar
    21    52    47    1
    22    42    41   ar
    23    47    46   ar
    24    30    18    1
    25    30    33   ar
    26    41    43   ar
    27    41    50    1
    28    19    16    1
    29    27    26    1
    30    46    43   ar
    31    46    48    1
    32    18    16   ar
    33    18    21   ar
    34    26    25    3
    35    43    31    1
    36    16    15   ar
    37    25    21    1
    38    31    34   ar
    39    50    51    1
    40    21    20   ar
    41    23    15    1
    42    15    17   ar
    43    20    17   ar
    44    20    22    1
    45    17     4    1
    46     4     2   ar
    47     3     9    1
    48     3     1   ar
    49    33    34   ar
    50    33    35    1
    51    34    38    1
    52     2     1   ar
    53     2     5    1
    54     1    10    1
    55    38    39    3
    56    10    11    1
    57    39    40    1
