@<TRIPOS>MOLECULE
mol_data/opt/cam/geoms/mol2/4ge4ge-4ge4ge.out
 54 57 0 0 0
SMALL
GASTEIGER

@<TRIPOS>ATOM
      1 C          -0.1753    0.2582   -0.7730 C.ar    1  LIG1        0.0054
      2 C           1.2153    0.2592   -0.7086 C.ar    1  LIG1       -0.0396
      3 C          -0.8875    1.2872   -0.1568 C.ar    1  LIG1       -0.0474
      4 C           1.9082    1.2627   -0.0350 C.ar    1  LIG1       -0.0004
      5 H           1.7838   -0.5269   -1.1940 H       1  LIG1        0.0635
      6 C          -0.2103    2.2926    0.5083 C.ar    1  LIG1       -0.0447
      7 C           1.1874    2.3002    0.5841 C.ar    1  LIG1        0.0325
      8 H          -0.7635    3.0908    0.9899 H       1  LIG1        0.0630
      9 H          -1.9717    1.2997   -0.1951 H       1  LIG1        0.0629
     10 S          -1.0941   -0.9958   -1.6295 S.3     1  LIG1       -0.1426
     11 H          -0.0525   -1.7925   -1.9153 H       1  LIG1        0.1071
     12 C           1.8434    3.3541    1.2975 C.1     1  LIG1       -0.0691
     13 C           2.3633    4.2541    1.9049 C.1     1  LIG1       -0.1139
     14 H           2.8346    5.0452    2.4410 H       1  LIG1        0.1232
     15 C           4.1110    0.2112    0.6339 C.ar    1  LIG1        0.0131
     16 C           5.5043    0.2218    0.6014 C.ar    1  LIG1       -0.0390
     17 C           3.3976    1.2308   -0.0129 C.ar    1  LIG1       -0.0023
     18 C           6.2164    1.2180   -0.0576 C.ar    1  LIG1       -0.0004
     19 H           6.0606   -0.5587    1.1091 H       1  LIG1        0.0635
     20 C           4.1110    2.2308   -0.6640 C.ar    1  LIG1       -0.0369
     21 C           5.5064    2.2468   -0.7026 C.ar    1  LIG1        0.0330
     22 H           3.5667    3.0240   -1.1630 H       1  LIG1        0.0636
     23 S           3.2211   -1.0560    1.5105 S.3     1  LIG1       -0.1420
     24 H           4.3098   -1.6746    1.9942 H       1  LIG1        0.1071
     25 C           6.1731    3.2998   -1.4076 C.1     1  LIG1       -0.0690
     26 C           6.7051    4.1970   -2.0082 C.1     1  LIG1       -0.1139
     27 H           7.1848    4.9869   -2.5388 H       1  LIG1        0.1232
     28 C           8.4398    0.1621   -0.6462 C.ar    1  LIG1        0.0131
     29 C           9.8318    0.1784   -0.5747 C.ar    1  LIG1       -0.0390
     30 C           7.7053    1.1903   -0.0377 C.ar    1  LIG1       -0.0023
     31 C          10.5223    1.1880    0.0865 C.ar    1  LIG1       -0.0004
     32 H          10.4043   -0.6092   -1.0528 H       1  LIG1        0.0635
     33 C           8.3975    2.2043    0.6151 C.ar    1  LIG1       -0.0369
     34 C           9.7910    2.2256    0.6927 C.ar    1  LIG1        0.0330
     35 H           7.8369    3.0042    1.0843 H       1  LIG1        0.0636
     36 S           7.5796   -1.1238   -1.5257 S.3     1  LIG1       -0.1420
     37 H           8.6837   -1.7434   -1.9719 H       1  LIG1        0.1071
     38 C          10.4349    3.2930    1.3971 C.1     1  LIG1       -0.0690
     39 C          10.9482    4.2023    1.9959 C.1     1  LIG1       -0.1139
     40 H          11.4124    5.0018    2.5258 H       1  LIG1        0.1232
     41 C          12.7262    0.1526    0.7693 C.ar    1  LIG1        0.0126
     42 C          14.1221    0.1649    0.7394 C.ar    1  LIG1       -0.0468
     43 C          12.0118    1.1647    0.1104 C.ar    1  LIG1       -0.0024
     44 C          14.8087    1.1643    0.0744 C.ar    1  LIG1       -0.0453
     45 H          14.6807   -0.6155    1.2455 H       1  LIG1        0.0629
     46 C          12.7170    2.1664   -0.5511 C.ar    1  LIG1       -0.0375
     47 C          14.1121    2.1838   -0.5817 C.ar    1  LIG1        0.0253
     48 H          12.1659    2.9523   -1.0543 H       1  LIG1        0.0636
     49 H          15.8927    1.1620    0.0599 H       1  LIG1        0.0630
     50 S          11.8339   -1.1134    1.6478 S.3     1  LIG1       -0.1420
     51 H          12.9187   -1.6918    2.1873 H       1  LIG1        0.1071
     52 C          14.8135    3.2227   -1.2726 C.1     1  LIG1       -0.0696
     53 C          15.4064    4.0946   -1.8535 C.1     1  LIG1       -0.1139
     54 H          15.9295    4.8670   -2.3685 H       1  LIG1        0.1232
@<TRIPOS>BOND
     1    27    26    1
     2    54    53    1
     3    26    25    3
     4    37    36    1
     5    11    10    1
     6    53    52    3
     7    10     1    1
     8    36    28    1
     9    25    21    1
    10    52    47    1
    11     5     2    1
    12    22    20    1
    13    48    46    1
    14    32    29    1
    15     1     2   ar
    16     1     3   ar
    17     2     4   ar
    18    21    20   ar
    19    21    18   ar
    20    20    17   ar
    21    28    29   ar
    22    28    30   ar
    23    47    46   ar
    24    47    44   ar
    25    29    31   ar
    26    46    43   ar
    27     9     3    1
    28     3     6   ar
    29    18    30    1
    30    18    16   ar
    31    30    33   ar
    32     4    17    1
    33     4     7   ar
    34    17    15   ar
    35    49    44    1
    36    44    42   ar
    37    31    43    1
    38    31    34   ar
    39    43    41   ar
    40     6     7   ar
    41     6     8    1
    42     7    12    1
    43    16    15   ar
    44    16    19    1
    45    33    34   ar
    46    33    35    1
    47    15    23    1
    48    34    38    1
    49    42    41   ar
    50    42    45    1
    51    41    50    1
    52    12    13    3
    53    38    39    3
    54    23    24    1
    55    50    51    1
    56    13    14    1
    57    39    40    1
