@<TRIPOS>MOLECULE
mol_data/opt/cam/geoms/mol2/4ge4ge4ge-.out
 41 43 0 0 0
SMALL
GASTEIGER

@<TRIPOS>ATOM
      1 C          -0.0819    0.1612    0.4637 C.ar    1  LIG1        0.0054
      2 C           1.3098    0.1684    0.4283 C.ar    1  LIG1       -0.0396
      3 C          -0.7811    1.2853    0.0241 C.ar    1  LIG1       -0.0474
      4 C           2.0163    1.2721   -0.0444 C.ar    1  LIG1       -0.0004
      5 H           1.8682   -0.6931    0.7790 H       1  LIG1        0.0635
      6 C          -0.0904    2.3897   -0.4396 C.ar    1  LIG1       -0.0447
      7 C           1.3085    2.4051   -0.4850 C.ar    1  LIG1        0.0325
      8 H          -0.6336    3.2623   -0.7839 H       1  LIG1        0.0630
      9 H          -1.8659    1.2948    0.0422 H       1  LIG1        0.0629
     10 S          -1.0182   -1.2205    1.0676 S.3     1  LIG1       -0.1426
     11 H           0.0165   -2.0610    1.2233 H       1  LIG1        0.1071
     12 C           1.9794    3.5657   -0.9879 C.1     1  LIG1       -0.0691
     13 C           2.5122    4.5567   -1.4158 C.1     1  LIG1       -0.1139
     14 H           2.9945    5.4284   -1.7941 H       1  LIG1        0.1232
     15 C           4.2300    0.3464   -0.8481 C.ar    1  LIG1        0.0131
     16 C           5.6226    0.3442   -0.7877 C.ar    1  LIG1       -0.0390
     17 C           3.5058    1.2379   -0.0434 C.ar    1  LIG1       -0.0023
     18 C           6.3233    1.2027    0.0520 C.ar    1  LIG1       -0.0004
     19 H           6.1873   -0.3364   -1.4160 H       1  LIG1        0.0635
     20 C           4.2080    2.1022    0.7891 C.ar    1  LIG1       -0.0369
     21 C           5.6023    2.1037    0.8563 C.ar    1  LIG1        0.0330
     22 H           3.6553    2.7964    1.4111 H       1  LIG1        0.0636
     23 S           3.3551   -0.7403   -1.9526 S.3     1  LIG1       -0.1420
     24 H           4.4520   -1.2672   -2.5195 H       1  LIG1        0.1071
     25 C           6.2578    3.0108    1.7495 C.1     1  LIG1       -0.0690
     26 C           6.7812    3.7839    2.5092 C.1     1  LIG1       -0.1139
     27 H           7.2543    4.4634    3.1800 H       1  LIG1        0.1232
     28 C           8.5270    0.0494    0.5075 C.ar    1  LIG1        0.0126
     29 C           9.9227    0.0625    0.4701 C.ar    1  LIG1       -0.0468
     30 C           7.8129    1.1704    0.0580 C.ar    1  LIG1       -0.0024
     31 C          10.6093    1.1677    0.0014 C.ar    1  LIG1       -0.0453
     32 H          10.4810   -0.8015    0.8147 H       1  LIG1        0.0629
     33 C           8.5180    2.2768   -0.4075 C.ar    1  LIG1       -0.0375
     34 C           9.9130    2.2951   -0.4448 C.ar    1  LIG1        0.0253
     35 H           7.9672    3.1456   -0.7486 H       1  LIG1        0.0636
     36 H          11.6931    1.1648   -0.0213 H       1  LIG1        0.0630
     37 S           7.6340   -1.3574    1.1352 S.3     1  LIG1       -0.1420
     38 H           8.7188   -2.0291    1.5529 H       1  LIG1        0.1071
     39 C          10.6145    3.4436   -0.9320 C.1     1  LIG1       -0.0696
     40 C          11.2075    4.4077   -1.3420 C.1     1  LIG1       -0.1139
     41 H          11.7302    5.2622   -1.7054 H       1  LIG1        0.1232
@<TRIPOS>BOND
     1    24    23    1
     2    23    15    1
     3    14    13    1
     4    41    40    1
     5    19    16    1
     6    13    12    3
     7    40    39    3
     8    12     7    1
     9    39    34    1
    10    15    16   ar
    11    15    17   ar
    12    16    18   ar
    13     8     6    1
    14    35    33    1
    15     7     6   ar
    16     7     4   ar
    17    34    33   ar
    18    34    31   ar
    19     6     3   ar
    20    33    30   ar
    21     4    17    1
    22     4     2   ar
    23    17    20   ar
    24    36    31    1
    25    31    29   ar
    26     3     9    1
    27     3     1   ar
    28    18    30    1
    29    18    21   ar
    30    30    28   ar
    31     2     1   ar
    32     2     5    1
    33     1    10    1
    34    29    28   ar
    35    29    32    1
    36    28    37    1
    37    20    21   ar
    38    20    22    1
    39    21    25    1
    40    10    11    1
    41    37    38    1
    42    25    26    3
    43    26    27    1
