@<TRIPOS>MOLECULE
mol_data/opt/cam/geoms/mol2/4ge4ge4ge-4ge-.out
 54 57 0 0 0
SMALL
GASTEIGER

@<TRIPOS>ATOM
      1 C          -0.1755    0.2677    0.7911 C.ar    1  LIG1        0.0054
      2 C           1.2151    0.2676    0.7259 C.ar    1  LIG1       -0.0396
      3 C          -0.8875    1.2923    0.1674 C.ar    1  LIG1       -0.0474
      4 C           1.9081    1.2656    0.0442 C.ar    1  LIG1       -0.0004
      5 H           1.7835   -0.5151    1.2170 H       1  LIG1        0.0635
      6 C          -0.2102    2.2923   -0.5058 C.ar    1  LIG1       -0.0447
      7 C           1.1875    2.2985   -0.5825 C.ar    1  LIG1        0.0325
      8 H          -0.7633    3.0870   -0.9932 H       1  LIG1        0.0630
      9 H          -1.9716    1.3056    0.2062 H       1  LIG1        0.0629
     10 S          -1.0944   -0.9792    1.6578 S.3     1  LIG1       -0.1426
     11 H          -0.0530   -1.7742    1.9490 H       1  LIG1        0.1071
     12 C           1.8435    3.3467   -1.3043 C.1     1  LIG1       -0.0691
     13 C           2.3636    4.2417   -1.9189 C.1     1  LIG1       -0.1139
     14 H           2.8350    5.0283   -2.4615 H       1  LIG1        0.1232
     15 C           4.1100    0.2078   -0.6179 C.ar    1  LIG1        0.0131
     16 C           5.5034    0.2181   -0.5862 C.ar    1  LIG1       -0.0390
     17 C           3.3975    1.2328    0.0215 C.ar    1  LIG1       -0.0023
     18 C           6.2163    1.2189    0.0647 C.ar    1  LIG1       -0.0004
     19 H           6.0590   -0.5666   -1.0883 H       1  LIG1        0.0635
     20 C           4.1118    2.2374    0.6645 C.ar    1  LIG1       -0.0369
     21 C           5.5071    2.2530    0.7022 C.ar    1  LIG1        0.0330
     22 H           3.5681    3.0346    1.1577 H       1  LIG1        0.0636
     23 S           3.2190   -1.0656   -1.4842 S.3     1  LIG1       -0.1420
     24 H           4.3072   -1.6885   -1.9638 H       1  LIG1        0.1071
     25 C           6.1748    3.3110    1.3986 C.1     1  LIG1       -0.0690
     26 C           6.7076    4.2126    1.9920 C.1     1  LIG1       -0.1139
     27 H           7.1879    5.0062    2.5164 H       1  LIG1        0.1232
     28 C           8.4396    0.1665    0.6601 C.ar    1  LIG1        0.0131
     29 C           9.8315    0.1815    0.5877 C.ar    1  LIG1       -0.0390
     30 C           7.7052    1.1903    0.0442 C.ar    1  LIG1       -0.0023
     31 C          10.5221    1.1857   -0.0817 C.ar    1  LIG1       -0.0004
     32 H          10.4039   -0.6026    1.0716 H       1  LIG1        0.0635
     33 C           8.3975    2.1989   -0.6168 C.ar    1  LIG1       -0.0369
     34 C           9.7910    2.2189   -0.6954 C.ar    1  LIG1        0.0330
     35 H           7.8370    2.9955   -1.0919 H       1  LIG1        0.0636
     36 S           7.5793   -1.1121    1.5500 S.3     1  LIG1       -0.1420
     37 H           8.6833   -1.7288    2.0003 H       1  LIG1        0.1071
     38 C          10.4350    3.2806   -1.4083 C.1     1  LIG1       -0.0690
     39 C          10.9484    4.1850   -2.0143 C.1     1  LIG1       -0.1139
     40 H          11.4127    4.9802   -2.5507 H       1  LIG1        0.1232
     41 C          12.7252    0.1441   -0.7577 C.ar    1  LIG1        0.0126
     42 C          14.1211    0.1559   -0.7287 C.ar    1  LIG1       -0.0468
     43 C          12.0116    1.1616   -0.1062 C.ar    1  LIG1       -0.0024
     44 C          14.8085    1.1601   -0.0718 C.ar    1  LIG1       -0.0453
     45 H          14.6790   -0.6286   -1.2291 H       1  LIG1        0.0629
     46 C          12.7177    2.1680    0.5471 C.ar    1  LIG1       -0.0375
     47 C          14.1128    2.1850    0.5768 C.ar    1  LIG1        0.0253
     48 H          12.1672    2.9580    1.0447 H       1  LIG1        0.0636
     49 H          15.8925    1.1573   -0.0579 H       1  LIG1        0.0630
     50 S          11.8317   -1.1283   -1.6259 S.3     1  LIG1       -0.1420
     51 H          12.9159   -1.7113   -2.1615 H       1  LIG1        0.1071
     52 C          14.8151    3.2288    1.2593 C.1     1  LIG1       -0.0696
     53 C          15.4087    4.1049    1.8332 C.1     1  LIG1       -0.1139
     54 H          15.9324    4.8809    2.3421 H       1  LIG1        0.1232
@<TRIPOS>BOND
     1    40    39    1
     2    14    13    1
     3    51    50    1
     4    39    38    3
     5    24    23    1
     6    13    12    3
     7    50    41    1
     8    23    15    1
     9    38    34    1
    10    12     7    1
    11    45    42    1
    12    35    33    1
    13    19    16    1
    14     8     6    1
    15    41    42   ar
    16    41    43   ar
    17    42    44   ar
    18    34    33   ar
    19    34    31   ar
    20    15    16   ar
    21    15    17   ar
    22    33    30   ar
    23    16    18   ar
    24     7     6   ar
    25     7     4   ar
    26     6     3   ar
    27    43    31    1
    28    43    46   ar
    29    31    29   ar
    30    44    49    1
    31    44    47   ar
    32    17     4    1
    33    17    20   ar
    34     4     2   ar
    35    30    18    1
    36    30    28   ar
    37    18    21   ar
    38     3     9    1
    39     3     1   ar
    40    46    47   ar
    41    46    48    1
    42    47    52    1
    43    29    28   ar
    44    29    32    1
    45    28    36    1
    46    20    21   ar
    47    20    22    1
    48    21    25    1
    49     2     1   ar
    50     2     5    1
    51     1    10    1
    52    52    53    3
    53    25    26    3
    54    36    37    1
    55    10    11    1
    56    53    54    1
    57    26    27    1
