@<TRIPOS>MOLECULE
mol_data/opt/cam/geoms/mol2/4gf.out
 14 14 0 0 0
SMALL
GASTEIGER

@<TRIPOS>ATOM
      1 C           0.1068    0.0705    0.0004 C.ar    1  LIG1        0.0050
      2 C           1.5013    0.0788   -0.0000 C.ar    1  LIG1       -0.0451
      3 C          -0.5727    1.2855    0.0003 C.ar    1  LIG1       -0.0451
      4 C           2.2024    1.2746   -0.0005 C.ar    1  LIG1       -0.0191
      5 H           2.0530   -0.8558    0.0000 H       1  LIG1        0.0630
      6 C           0.1253    2.4859   -0.0002 C.ar    1  LIG1       -0.0191
      7 C           1.5164    2.4853   -0.0006 C.ar    1  LIG1        0.1169
      8 H          -0.4195    3.4265   -0.0003 H       1  LIG1        0.0654
      9 H           3.2863    1.2863   -0.0008 H       1  LIG1        0.0654
     10 H          -1.6578    1.3017    0.0006 H       1  LIG1        0.0630
     11 S          -0.8552   -1.4306    0.0010 S.3     1  LIG1       -0.1426
     12 H           0.1791   -2.2856    0.0011 H       1  LIG1        0.1071
     13 O           2.2563    3.6291   -0.0011 O.3     1  LIG1       -0.5068
     14 H           1.6667    4.3919   -0.0011 H       1  LIG1        0.2921
@<TRIPOS>BOND
     1    14    13    1
     2    13     7    1
     3     9     4    1
     4     7     4   ar
     5     7     6   ar
     6     4     2   ar
     7     8     6    1
     8     6     3   ar
     9     2     5    1
    10     2     1   ar
    11     3     1   ar
    12     3    10    1
    13     1    11    1
    14    11    12    1
