@<TRIPOS>MOLECULE
mol_data/opt/cam/geoms/mol2/4gf4gf4gf4gf-.out
 50 53 0 0 0
SMALL
GASTEIGER

@<TRIPOS>ATOM
      1 C          -0.1641    0.7370    1.1969 C.ar    1  LIG1        0.0055
      2 C           1.2271    0.7154    1.1194 C.ar    1  LIG1       -0.0373
      3 C          -0.8885    1.3201    0.1628 C.ar    1  LIG1       -0.0451
      4 C           1.9096    1.2384    0.0239 C.ar    1  LIG1        0.0257
      5 H           1.7982    0.2840    1.9342 H       1  LIG1        0.0636
      6 C          -0.2291    1.8669   -0.9289 C.ar    1  LIG1       -0.0185
      7 C           1.1597    1.8277   -1.0051 C.ar    1  LIG1        0.1246
      8 H          -0.7984    2.3230   -1.7348 H       1  LIG1        0.0654
      9 H          -1.9712    1.3463    0.2117 H       1  LIG1        0.0630
     10 S          -1.0146    0.0924    2.6346 S.3     1  LIG1       -0.1426
     11 H          -0.8665   -1.2160    2.3584 H       1  LIG1        0.1071
     12 O           1.8356    2.3543   -2.0597 O.3     1  LIG1       -0.5062
     13 H           1.2048    2.6694   -2.7177 H       1  LIG1        0.2922
     14 C           4.1030   -0.0149   -0.0286 C.ar    1  LIG1        0.0134
     15 C           5.4962    0.0123   -0.0404 C.ar    1  LIG1       -0.0367
     16 C           3.3961    1.1933   -0.0341 C.ar    1  LIG1        0.0023
     17 C           6.2183    1.2011   -0.0821 C.ar    1  LIG1        0.0258
     18 H           6.0514   -0.9192   -0.0182 H       1  LIG1        0.0636
     19 C           4.1156    2.3869   -0.0673 C.ar    1  LIG1       -0.0107
     20 C           5.5021    2.4045   -0.0943 C.ar    1  LIG1        0.1252
     21 H           3.5680    3.3249   -0.0834 H       1  LIG1        0.0661
     22 S           3.2152   -1.5656   -0.0248 S.3     1  LIG1       -0.1420
     23 H           4.2812   -2.3291   -0.3116 H       1  LIG1        0.1071
     24 O           6.2057    3.5715   -0.1239 O.3     1  LIG1       -0.5061
     25 H           5.5881    4.3075   -0.2057 H       1  LIG1        0.2922
     26 C           8.4439    0.5443   -1.0918 C.ar    1  LIG1        0.0134
     27 C           9.8351    0.5345   -1.0107 C.ar    1  LIG1       -0.0367
     28 C           7.7062    1.1820   -0.0869 C.ar    1  LIG1        0.0023
     29 C          10.5270    1.1406    0.0337 C.ar    1  LIG1        0.0258
     30 H          10.4144    0.0488   -1.7889 H       1  LIG1        0.0636
     31 C           8.3962    1.8030    0.9534 C.ar    1  LIG1       -0.0107
     32 C           9.7812    1.7939    1.0224 C.ar    1  LIG1        0.1252
     33 H           7.8252    2.3108    1.7253 H       1  LIG1        0.0661
     34 S           7.5988   -0.2066   -2.4758 S.3     1  LIG1       -0.1420
     35 H           8.7137   -0.5531   -3.1380 H       1  LIG1        0.1071
     36 O          10.4545    2.4052    2.0373 O.3     1  LIG1       -0.5061
     37 H           9.8166    2.7711    2.6611 H       1  LIG1        0.2922
     38 C          12.7363   -0.0851    0.1060 C.ar    1  LIG1        0.0128
     39 C          14.1321   -0.0405    0.0958 C.ar    1  LIG1       -0.0445
     40 C          12.0147    1.1148    0.0704 C.ar    1  LIG1        0.0022
     41 C          14.8142    1.1627    0.0680 C.ar    1  LIG1       -0.0191
     42 H          14.7004   -0.9647    0.1154 H       1  LIG1        0.0630
     43 C          12.7125    2.3239    0.0437 C.ar    1  LIG1       -0.0113
     44 C          14.0991    2.3564    0.0464 C.ar    1  LIG1        0.1175
     45 H          12.1472    3.2512    0.0303 H       1  LIG1        0.0660
     46 H          15.8976    1.1943    0.0657 H       1  LIG1        0.0654
     47 S          11.8666   -1.6457    0.1893 S.3     1  LIG1       -0.1420
     48 H          12.9535   -2.3872    0.4562 H       1  LIG1        0.1071
     49 O          14.8089    3.5186    0.0219 O.3     1  LIG1       -0.5067
     50 H          14.1975    4.2641    0.0275 H       1  LIG1        0.2921
@<TRIPOS>BOND
     1    35    34    1
     2    13    12    1
     3    34    26    1
     4    12     7    1
     5    30    27    1
     6     8     6    1
     7    26    27   ar
     8    26    28   ar
     9    27    29   ar
    10     7     6   ar
    11     7     4   ar
    12     6     3   ar
    13    23    22    1
    14    25    24    1
    15    24    20    1
    16    20    17   ar
    17    20    19   ar
    18    28    17    1
    19    28    31   ar
    20    21    19    1
    21    17    15   ar
    22    19    16   ar
    23    15    14   ar
    24    15    18    1
    25    16    14   ar
    26    16     4    1
    27    14    22    1
    28    49    50    1
    29    49    44    1
    30     4     2   ar
    31    45    43    1
    32    29    40    1
    33    29    32   ar
    34    43    44   ar
    35    43    40   ar
    36    44    41   ar
    37    46    41    1
    38    41    39   ar
    39    40    38   ar
    40    39    38   ar
    41    39    42    1
    42    38    47    1
    43     3     9    1
    44     3     1   ar
    45    47    48    1
    46    31    32   ar
    47    31    33    1
    48    32    36    1
    49     2     1   ar
    50     2     5    1
    51     1    10    1
    52    36    37    1
    53    11    10    1
