@<TRIPOS>MOLECULE
mol_data/opt/cam/geoms/mol2/4gf4gf4gf4gf.out
 50 53 0 0 0
SMALL
GASTEIGER

@<TRIPOS>ATOM
      1 C          -0.1612    1.3841    1.2492 C.ar    1  LIG1        0.0055
      2 C           1.2299    1.3256    1.1888 C.ar    1  LIG1       -0.0373
      3 C          -0.8886    1.3818    0.0639 C.ar    1  LIG1       -0.0451
      4 C           1.9093    1.2393   -0.0238 C.ar    1  LIG1        0.0257
      5 H           1.8031    1.3527    2.1091 H       1  LIG1        0.0636
      6 C          -0.2323    1.3183   -1.1571 C.ar    1  LIG1       -0.0185
      7 C           1.1563    1.2452   -1.2076 C.ar    1  LIG1        0.1246
      8 H          -0.8039    1.3181   -2.0816 H       1  LIG1        0.0654
      9 H          -1.9712    1.4302    0.0963 H       1  LIG1        0.0630
     10 S          -1.0072    1.5346    2.8200 S.3     1  LIG1       -0.1426
     11 H          -0.8603    0.2601    3.2255 H       1  LIG1        0.1071
     12 O           1.8290    1.1830   -2.3864 O.3     1  LIG1       -0.5062
     13 H           1.1965    1.1356   -3.1130 H       1  LIG1        0.2922
     14 C           4.1039    0.1267    0.5515 C.ar    1  LIG1        0.0134
     15 C           5.4972    0.1461    0.5266 C.ar    1  LIG1       -0.0367
     16 C           3.3956    1.1703   -0.0553 C.ar    1  LIG1        0.0023
     17 C           6.2187    1.1544   -0.1052 C.ar    1  LIG1        0.0258
     18 H           6.0518   -0.6478    1.0154 H       1  LIG1        0.0636
     19 C           4.1142    2.1881   -0.6809 C.ar    1  LIG1       -0.0107
     20 C           5.5005    2.1909   -0.7154 C.ar    1  LIG1        0.1252
     21 H           3.5657    2.9926   -1.1625 H       1  LIG1        0.0661
     22 S           3.2196   -1.2160    1.3317 S.3     1  LIG1       -0.1420
     23 H           4.2792   -2.0344    1.4281 H       1  LIG1        0.1071
     24 O           6.2022    3.1878   -1.3237 O.3     1  LIG1       -0.5061
     25 H           5.5857    3.7793   -1.7708 H       1  LIG1        0.2922
     26 C           8.4414    0.0599   -0.6218 C.ar    1  LIG1        0.0134
     27 C           9.8328    0.0886   -0.5426 C.ar    1  LIG1       -0.0367
     28 C           7.7060    1.1337   -0.1049 C.ar    1  LIG1        0.0023
     29 C          10.5285    1.1605    0.0077 C.ar    1  LIG1        0.0258
     30 H          10.4076   -0.7496   -0.9216 H       1  LIG1        0.0636
     31 C           8.3995    2.2063    0.4553 C.ar    1  LIG1       -0.0107
     32 C           9.7846    2.2339    0.5134 C.ar    1  LIG1        0.1252
     33 H           7.8311    3.0468    0.8425 H       1  LIG1        0.0661
     34 S           7.6013   -1.3180   -1.3912 S.3     1  LIG1       -0.1420
     35 H           8.6988   -1.8348   -1.9658 H       1  LIG1        0.1071
     36 O          10.4599    3.2822    1.0629 O.3     1  LIG1       -0.5061
     37 H           9.8296    3.9745    1.2936 H       1  LIG1        0.2922
     38 C          12.8089    1.0379   -1.0768 C.ar    1  LIG1        0.0128
     39 C          14.1978    0.9846   -0.9422 C.ar    1  LIG1       -0.0445
     40 C          12.0154    1.1443    0.0726 C.ar    1  LIG1        0.0022
     41 C          14.8047    1.0510    0.2993 C.ar    1  LIG1       -0.0191
     42 H          14.8212    0.8946   -1.8259 H       1  LIG1        0.0630
     43 C          12.6377    1.2127    1.3207 C.ar    1  LIG1       -0.0113
     44 C          14.0189    1.1712    1.4414 C.ar    1  LIG1        0.1175
     45 H          12.0177    1.3096    2.2072 H       1  LIG1        0.0660
     46 H          15.8832    1.0149    0.3999 H       1  LIG1        0.0654
     47 S          12.0392    0.9998   -2.6907 S.3     1  LIG1       -0.1420
     48 H          13.1805    1.1425   -3.3831 H       1  LIG1        0.1071
     49 O          14.6556    1.2369    2.6435 O.3     1  LIG1       -0.5067
     50 H          14.0013    1.3386    3.3444 H       1  LIG1        0.2921
@<TRIPOS>BOND
     1    48    47    1
     2    13    12    1
     3    47    38    1
     4    12     7    1
     5     8     6    1
     6    35    34    1
     7    42    39    1
     8    25    24    1
     9    34    26    1
    10    24    20    1
    11     7     6   ar
    12     7     4   ar
    13    21    19    1
    14     6     3   ar
    15    38    39   ar
    16    38    40   ar
    17    39    41   ar
    18    30    27    1
    19    20    19   ar
    20    20    17   ar
    21    19    16   ar
    22    26    27   ar
    23    26    28   ar
    24    27    29   ar
    25    17    28    1
    26    17    15   ar
    27    28    31   ar
    28    16     4    1
    29    16    14   ar
    30     4     2   ar
    31    29    40    1
    32    29    32   ar
    33     3     9    1
    34     3     1   ar
    35    40    43   ar
    36    41    46    1
    37    41    44   ar
    38    31    32   ar
    39    31    33    1
    40    32    36    1
    41    15    14   ar
    42    15    18    1
    43    14    22    1
    44    36    37    1
    45     2     1   ar
    46     2     5    1
    47     1    10    1
    48    43    44   ar
    49    43    45    1
    50    22    23    1
    51    44    49    1
    52    49    50    1
    53    10    11    1
