@<TRIPOS>MOLECULE
mol_data/opt/cam/geoms/mol2/4gf4gf-4gf4gf-.out
 50 53 0 0 0
SMALL
GASTEIGER

@<TRIPOS>ATOM
      1 C          -0.2104    0.2648   -0.7135 C.ar    1  LIG1        0.0055
      2 C           1.1828    0.2573   -0.6868 C.ar    1  LIG1       -0.0373
      3 C          -0.8926    1.2887   -0.0650 C.ar    1  LIG1       -0.0451
      4 C           1.9081    1.2329   -0.0072 C.ar    1  LIG1        0.0257
      5 H           1.7224   -0.5249   -1.2092 H       1  LIG1        0.0636
      6 C          -0.1901    2.2840    0.5992 C.ar    1  LIG1       -0.0185
      7 C           1.2007    2.2601    0.6344 C.ar    1  LIG1        0.1246
      8 H          -0.7267    3.0837    1.1035 H       1  LIG1        0.0654
      9 H          -1.9765    1.3070   -0.0793 H       1  LIG1        0.0630
     10 S          -1.1213   -0.9772   -1.6261 S.3     1  LIG1       -0.1426
     11 H          -0.9070   -2.0072   -0.7877 H       1  LIG1        0.1071
     12 O           1.9187    3.2188    1.2778 O.3     1  LIG1       -0.5062
     13 H           1.3128    3.8286    1.7151 H       1  LIG1        0.2922
     14 C           4.1058    0.1432    0.5981 C.ar    1  LIG1        0.0134
     15 C           5.4982    0.1504    0.5499 C.ar    1  LIG1       -0.0367
     16 C           3.3965    1.1962    0.0087 C.ar    1  LIG1        0.0023
     17 C           6.2170    1.1735   -0.0617 C.ar    1  LIG1        0.0258
     18 H           6.0565   -0.6588    1.0081 H       1  LIG1        0.0636
     19 C           4.1124    2.2291   -0.5936 C.ar    1  LIG1       -0.0107
     20 C           5.4989    2.2321   -0.6315 C.ar    1  LIG1        0.1252
     21 H           3.5624    3.0526   -1.0403 H       1  LIG1        0.0661
     22 S           3.2158   -1.1629    1.4298 S.3     1  LIG1       -0.1420
     23 H           4.3067   -1.8133    1.8635 H       1  LIG1        0.1071
     24 O           6.2002    3.2443   -1.2157 O.3     1  LIG1       -0.5061
     25 H           5.5799    3.8697   -1.6081 H       1  LIG1        0.2922
     26 C           8.4288    0.1078   -0.6718 C.ar    1  LIG1        0.0134
     27 C           9.8210    0.1290   -0.6130 C.ar    1  LIG1       -0.0367
     28 C           7.7047    1.1474   -0.0755 C.ar    1  LIG1        0.0023
     29 C          10.5266    1.1521    0.0133 C.ar    1  LIG1        0.0258
     30 H          10.3900   -0.6698   -1.0767 H       1  LIG1        0.0636
     31 C           8.4081    2.1812    0.5412 C.ar    1  LIG1       -0.0107
     32 C           9.7939    2.1981    0.5877 C.ar    1  LIG1        0.1252
     33 H           7.8471    2.9956    0.9904 H       1  LIG1        0.0661
     34 S           7.5639   -1.2007   -1.5277 S.3     1  LIG1       -0.1420
     35 H           8.6682   -1.8082   -1.9892 H       1  LIG1        0.1071
     36 O          10.4808    3.2116    1.1862 O.3     1  LIG1       -0.5061
     37 H           9.8513    3.8316    1.5723 H       1  LIG1        0.2922
     38 C          12.7382    0.0974    0.6327 C.ar    1  LIG1        0.0128
     39 C          14.1337    0.1248    0.5854 C.ar    1  LIG1       -0.0445
     40 C          12.0147    1.1392    0.0387 C.ar    1  LIG1        0.0022
     41 C          14.8135    1.1662   -0.0204 C.ar    1  LIG1       -0.0191
     42 H          14.7035   -0.6815    1.0359 H       1  LIG1        0.0630
     43 C          12.7101    2.1864   -0.5688 C.ar    1  LIG1       -0.0113
     44 C          14.0967    2.2092   -0.5989 C.ar    1  LIG1        0.1175
     45 H          12.1432    2.9983   -1.0150 H       1  LIG1        0.0660
     46 H          15.8967    1.1874   -0.0508 H       1  LIG1        0.0654
     47 S          11.8710   -1.2300    1.4600 S.3     1  LIG1       -0.1420
     48 H          12.9634   -1.7662    2.0268 H       1  LIG1        0.1071
     49 O          14.8045    3.2162   -1.1822 O.3     1  LIG1       -0.5067
     50 H          14.1921    3.8768   -1.5263 H       1  LIG1        0.2921
@<TRIPOS>BOND
     1    35    34    1
     2    10    11    1
     3    10     1    1
     4    25    24    1
     5    34    26    1
     6    50    49    1
     7    24    20    1
     8     5     2    1
     9    49    44    1
    10    30    27    1
    11    21    19    1
    12    45    43    1
    13     1     2   ar
    14     1     3   ar
    15     2     4   ar
    16    26    27   ar
    17    26    28   ar
    18    20    19   ar
    19    20    17   ar
    20    27    29   ar
    21    44    43   ar
    22    44    41   ar
    23    19    16   ar
    24    43    40   ar
    25     9     3    1
    26    28    17    1
    27    28    31   ar
    28     3     6   ar
    29    17    15   ar
    30    46    41    1
    31    41    39   ar
    32     4    16    1
    33     4     7   ar
    34    16    14   ar
    35    29    40    1
    36    29    32   ar
    37    40    38   ar
    38    31    32   ar
    39    31    33    1
    40    15    14   ar
    41    15    18    1
    42    39    38   ar
    43    39    42    1
    44    32    36    1
    45    14    22    1
    46     6     7   ar
    47     6     8    1
    48    38    47    1
    49     7    12    1
    50    36    37    1
    51    12    13    1
    52    22    23    1
    53    47    48    1
