@<TRIPOS>MOLECULE
mol_data/opt/cam/geoms/mol2/4gf4gf-.out
 26 27 0 0 0
SMALL
GASTEIGER

@<TRIPOS>ATOM
      1 C           0.0299    0.2541   -0.7099 C.ar    1  LIG1        0.0055
      2 C           1.4234    0.2680   -0.7044 C.ar    1  LIG1       -0.0373
      3 C          -0.6577    1.2505   -0.0252 C.ar    1  LIG1       -0.0451
      4 C           2.1447    1.2370   -0.0116 C.ar    1  LIG1        0.0257
      5 H           1.9659   -0.4922   -1.2556 H       1  LIG1        0.0636
      6 C           0.0401    2.2379    0.6557 C.ar    1  LIG1       -0.0185
      7 C           1.4317    2.2350    0.6687 C.ar    1  LIG1        0.1246
      8 H          -0.5005    3.0156    1.1890 H       1  LIG1        0.0654
      9 H          -1.7418    1.2537   -0.0247 H       1  LIG1        0.0630
     10 S          -0.8732   -0.9798   -1.6416 S.3     1  LIG1       -0.1426
     11 H          -0.6885   -2.0120   -0.7984 H       1  LIG1        0.1071
     12 O           2.1453    3.1865    1.3260 O.3     1  LIG1       -0.5062
     13 H           1.5384    3.7774    1.7873 H       1  LIG1        0.2922
     14 C           4.3640    0.1701    0.5415 C.ar    1  LIG1        0.0128
     15 C           5.7582    0.1927    0.4684 C.ar    1  LIG1       -0.0445
     16 C           3.6341    1.2238   -0.0208 C.ar    1  LIG1        0.0022
     17 C           6.4294    1.2408   -0.1358 C.ar    1  LIG1       -0.0191
     18 H           6.3339   -0.6222    0.8953 H       1  LIG1        0.0630
     19 C           4.3197    2.2776   -0.6269 C.ar    1  LIG1       -0.0113
     20 C           5.7058    2.2950   -0.6853 C.ar    1  LIG1        0.1175
     21 H           3.7473    3.0970   -1.0524 H       1  LIG1        0.0660
     22 H           7.5118    1.2583   -0.1882 H       1  LIG1        0.0654
     23 S           3.4991   -1.1644    1.3577 S.3     1  LIG1       -0.1420
     24 H           4.5981   -1.7457    1.8639 H       1  LIG1        0.1071
     25 O           6.4068    3.3064   -1.2683 O.3     1  LIG1       -0.5067
     26 H           5.7917    3.9717   -1.5980 H       1  LIG1        0.2921
@<TRIPOS>BOND
     1    10    11    1
     2    10     1    1
     3    26    25    1
     4    25    20    1
     5     5     2    1
     6    21    19    1
     7     1     2   ar
     8     1     3   ar
     9     2     4   ar
    10    20    19   ar
    11    20    17   ar
    12    19    16   ar
    13    22    17    1
    14    17    15   ar
    15     3     9    1
    16     3     6   ar
    17    16     4    1
    18    16    14   ar
    19     4     7   ar
    20    15    14   ar
    21    15    18    1
    22    14    23    1
    23     6     7   ar
    24     6     8    1
    25     7    12    1
    26    12    13    1
    27    23    24    1
