@<TRIPOS>MOLECULE
mol_data/opt/cam/geoms/mol2/4gf4gf-4gf-.out
 38 40 0 0 0
SMALL
GASTEIGER

@<TRIPOS>ATOM
      1 C          -0.0864    0.1358   -0.5403 C.ar    1  LIG1        0.0055
      2 C           1.3066    0.1410   -0.5045 C.ar    1  LIG1       -0.0373
      3 C          -0.7774    1.2581   -0.0960 C.ar    1  LIG1       -0.0451
      4 C           2.0232    1.2290   -0.0122 C.ar    1  LIG1        0.0257
      5 H           1.8529   -0.7211   -0.8709 H       1  LIG1        0.0636
      6 C          -0.0836    2.3626    0.3775 C.ar    1  LIG1       -0.0185
      7 C           1.3070    2.3530    0.4248 C.ar    1  LIG1        0.1246
      8 H          -0.6270    3.2386    0.7223 H       1  LIG1        0.0654
      9 H          -1.8612    1.2676   -0.1200 H       1  LIG1        0.0630
     10 S          -0.9856   -1.2583   -1.2133 S.3     1  LIG1       -0.1426
     11 H          -0.7755   -2.1134   -0.1962 H       1  LIG1        0.1071
     12 O           2.0166    3.4176    0.8847 O.3     1  LIG1       -0.5062
     13 H           1.4053    4.0951    1.1970 H       1  LIG1        0.2922
     14 C           4.2219    0.2806    0.7934 C.ar    1  LIG1        0.0134
     15 C           5.6147    0.2853    0.7497 C.ar    1  LIG1       -0.0367
     16 C           3.5116    1.2037    0.0177 C.ar    1  LIG1        0.0023
     17 C           6.3327    1.1810   -0.0372 C.ar    1  LIG1        0.0258
     18 H           6.1738   -0.4232    1.3517 H       1  LIG1        0.0636
     19 C           4.2266    2.1115   -0.7616 C.ar    1  LIG1       -0.0107
     20 C           5.6133    2.1137   -0.7944 C.ar    1  LIG1        0.1252
     21 H           3.6757    2.8361   -1.3546 H       1  LIG1        0.0661
     22 S           3.3330   -0.8543    1.8481 S.3     1  LIG1       -0.1420
     23 H           4.4247   -1.4104    2.3963 H       1  LIG1        0.1071
     24 O           6.3138    3.0032   -1.5522 O.3     1  LIG1       -0.5061
     25 H           5.6940    3.5439   -2.0555 H       1  LIG1        0.2922
     26 C           8.5421    0.0252   -0.4463 C.ar    1  LIG1        0.0128
     27 C           9.9372    0.0519   -0.3889 C.ar    1  LIG1       -0.0445
     28 C           7.8210    1.1562   -0.0435 C.ar    1  LIG1        0.0022
     29 C          10.6189    1.1761    0.0415 C.ar    1  LIG1       -0.0191
     30 H          10.5053   -0.8218   -0.6914 H       1  LIG1        0.0630
     31 C           8.5181    2.2863    0.3880 C.ar    1  LIG1       -0.0113
     32 C           9.9044    2.3056    0.4293 C.ar    1  LIG1        0.1175
     33 H           7.9531    3.1647    0.6861 H       1  LIG1        0.0660
     34 H          11.7019    1.1958    0.0798 H       1  LIG1        0.0654
     35 S           7.6720   -1.4170   -1.0471 S.3     1  LIG1       -0.1420
     36 H           8.7642   -2.0459   -1.5096 H       1  LIG1        0.1071
     37 O          10.6140    3.3916    0.8439 O.3     1  LIG1       -0.5067
     38 H          10.0035    4.1049    1.0634 H       1  LIG1        0.2921
@<TRIPOS>BOND
     1    25    24    1
     2    24    20    1
     3    36    35    1
     4    21    19    1
     5    10     1    1
     6    10    11    1
     7    35    26    1
     8     5     2    1
     9    20    19   ar
    10    20    17   ar
    11    19    16   ar
    12    30    27    1
    13     1     2   ar
    14     1     3   ar
    15     2     4   ar
    16    26    27   ar
    17    26    28   ar
    18    27    29   ar
    19     9     3    1
    20     3     6   ar
    21    28    17    1
    22    28    31   ar
    23    17    15   ar
    24     4    16    1
    25     4     7   ar
    26    16    14   ar
    27    29    34    1
    28    29    32   ar
    29     6     7   ar
    30     6     8    1
    31    31    32   ar
    32    31    33    1
    33     7    12    1
    34    32    37    1
    35    15    14   ar
    36    15    18    1
    37    14    22    1
    38    37    38    1
    39    12    13    1
    40    22    23    1
