@<TRIPOS>MOLECULE
mol_data/opt/cam/geoms/mol2/4gf4gf4gf-4gf-.out
 50 53 0 0 0
SMALL
GASTEIGER

@<TRIPOS>ATOM
      1 C          -0.2125    0.2760    0.7147 C.ar    1  LIG1        0.0055
      2 C           1.1807    0.2680    0.6922 C.ar    1  LIG1       -0.0373
      3 C          -0.8928    1.2904    0.0493 C.ar    1  LIG1       -0.0451
      4 C           1.9081    1.2335    0.0004 C.ar    1  LIG1        0.0257
      5 H           1.7187   -0.5065    1.2275 H       1  LIG1        0.0636
      6 C          -0.1882    2.2758   -0.6275 C.ar    1  LIG1       -0.0185
      7 C           1.2027    2.2512   -0.6583 C.ar    1  LIG1        0.1246
      8 H          -0.7232    3.0680   -1.1450 H       1  LIG1        0.0654
      9 H          -1.9767    1.3089    0.0602 H       1  LIG1        0.0630
     10 S          -1.1263   -0.9523    1.6428 S.3     1  LIG1       -0.1426
     11 H          -0.9096   -1.9946    0.8203 H       1  LIG1        0.1071
     12 O           1.9226    3.2003   -1.3136 O.3     1  LIG1       -0.5062
     13 H           1.3181    3.8036   -1.7616 H       1  LIG1        0.2922
     14 C           4.1074    0.1348   -0.5824 C.ar    1  LIG1        0.0134
     15 C           5.4996    0.1426   -0.5303 C.ar    1  LIG1       -0.0367
     16 C           3.3965    1.1964   -0.0107 C.ar    1  LIG1        0.0023
     17 C           6.2168    1.1745    0.0682 C.ar    1  LIG1        0.0258
     18 H           6.0592   -0.6734   -0.9750 H       1  LIG1        0.0636
     19 C           4.1108    2.2379    0.5785 C.ar    1  LIG1       -0.0107
     20 C           5.4972    2.2414    0.6203 C.ar    1  LIG1        0.1252
     21 H           3.5597    3.0681    1.0114 H       1  LIG1        0.0661
     22 S           3.2196   -1.1833   -1.3974 S.3     1  LIG1       -0.1420
     23 H           4.3117   -1.8401   -1.8184 H       1  LIG1        0.1071
     24 O           6.1970    3.2620    1.1917 O.3     1  LIG1       -0.5061
     25 H           5.5756    3.8932    1.5730 H       1  LIG1        0.2922
     26 C           8.4267    0.1177    0.7003 C.ar    1  LIG1        0.0134
     27 C           9.8191    0.1379    0.6452 C.ar    1  LIG1       -0.0367
     28 C           7.7045    1.1485    0.0867 C.ar    1  LIG1        0.0023
     29 C          10.5266    1.1516    0.0060 C.ar    1  LIG1        0.0258
     30 H          10.3866   -0.6541    1.1223 H       1  LIG1        0.0636
     31 C           8.4098    2.1730   -0.5431 C.ar    1  LIG1       -0.0107
     32 C           9.7957    2.1892   -0.5858 C.ar    1  LIG1        0.1252
     33 H           7.8502    2.9808   -1.0058 H       1  LIG1        0.0661
     34 S           7.5592   -1.1780    1.5728 S.3     1  LIG1       -0.1420
     35 H           8.6620   -1.7788    2.0464 H       1  LIG1        0.1071
     36 O          10.4845    3.1936   -1.1971 O.3     1  LIG1       -0.5061
     37 H           9.8562    3.8080   -1.5941 H       1  LIG1        0.2922
     38 C          12.7399    0.0877   -0.5914 C.ar    1  LIG1        0.0128
     39 C          14.1352    0.1157   -0.5406 C.ar    1  LIG1       -0.0445
     40 C          12.0147    1.1382   -0.0149 C.ar    1  LIG1        0.0022
     41 C          14.8134    1.1658    0.0519 C.ar    1  LIG1       -0.0191
     42 H          14.7062   -0.6972   -0.9774 H       1  LIG1        0.0630
     43 C          12.7086    2.1942    0.5792 C.ar    1  LIG1       -0.0113
     44 C          14.0950    2.2173    0.6129 C.ar    1  LIG1        0.1175
     45 H          12.1405    3.0125    1.0117 H       1  LIG1        0.0660
     46 H          15.8966    1.1874    0.0851 H       1  LIG1        0.0654
     47 S          11.8749   -1.2516   -1.4016 S.3     1  LIG1       -0.1420
     48 H          12.9688   -1.7962   -1.9574 H       1  LIG1        0.1071
     49 O          14.8013    3.2326    1.1834 O.3     1  LIG1       -0.5067
     50 H          14.1881    3.8983    1.5160 H       1  LIG1        0.2921
@<TRIPOS>BOND
     1    48    47    1
     2    23    22    1
     3    13    12    1
     4    37    36    1
     5    47    38    1
     6    22    14    1
     7    12     7    1
     8    36    32    1
     9     8     6    1
    10    33    31    1
    11    42    39    1
    12    18    15    1
    13     7     6   ar
    14     7     4   ar
    15     6     3   ar
    16    38    39   ar
    17    38    40   ar
    18    32    31   ar
    19    32    29   ar
    20    14    15   ar
    21    14    16   ar
    22    31    28   ar
    23    39    41   ar
    24    15    17   ar
    25    40    29    1
    26    40    43   ar
    27    16     4    1
    28    16    19   ar
    29     4     2   ar
    30    29    27   ar
    31     3     9    1
    32     3     1   ar
    33    41    46    1
    34    41    44   ar
    35    17    28    1
    36    17    20   ar
    37    28    26   ar
    38    19    20   ar
    39    19    21    1
    40    43    44   ar
    41    43    45    1
    42    44    49    1
    43    20    24    1
    44    27    26   ar
    45    27    30    1
    46     2     1   ar
    47     2     5    1
    48    26    34    1
    49     1    10    1
    50    11    10    1
    51    49    50    1
    52    24    25    1
    53    34    35    1
