@<TRIPOS>MOLECULE
mol_data/opt/cam/geoms/mol2/4gf4gf-4gf-4gf.out
 50 53 0 0 0
SMALL
GASTEIGER

@<TRIPOS>ATOM
      1 C          -0.2094    0.0326   -0.1480 C.ar    1  LIG1        0.0055
      2 C           1.1838    0.0421   -0.1249 C.ar    1  LIG1       -0.0373
      3 C          -0.8939    1.2420   -0.0912 C.ar    1  LIG1       -0.0451
      4 C           1.9072    1.2277   -0.0212 C.ar    1  LIG1        0.0257
      5 H           1.7250   -0.8951   -0.1921 H       1  LIG1        0.0636
      6 C          -0.1934    2.4371   -0.0096 C.ar    1  LIG1       -0.0185
      7 C           1.1975    2.4365    0.0287 C.ar    1  LIG1        0.1246
      8 H          -0.7318    3.3805    0.0329 H       1  LIG1        0.0654
      9 H          -1.9778    1.2487   -0.1102 H       1  LIG1        0.0630
     10 S          -1.1172   -1.5007   -0.3219 S.3     1  LIG1       -0.1426
     11 H          -0.9099   -1.9725    0.9209 H       1  LIG1        0.1071
     12 O           1.9136    3.5894    0.1096 O.3     1  LIG1       -0.5062
     13 H           1.3065    4.3351    0.1850 H       1  LIG1        0.2922
     14 C           4.1110    0.5827    1.0330 C.ar    1  LIG1        0.0134
     15 C           5.5032    0.5656    0.9793 C.ar    1  LIG1       -0.0367
     16 C           3.3957    1.2061    0.0042 C.ar    1  LIG1        0.0023
     17 C           6.2168    1.1501   -0.0631 C.ar    1  LIG1        0.0258
     18 H           6.0648    0.0916    1.7774 H       1  LIG1        0.0636
     19 C           4.1062    1.8066   -1.0335 C.ar    1  LIG1       -0.0107
     20 C           5.4924    1.7902   -1.0767 C.ar    1  LIG1        0.1252
     21 H           3.5518    2.3016   -1.8259 H       1  LIG1        0.0661
     22 S           3.2289   -0.1405    2.4074 S.3     1  LIG1       -0.1420
     23 H           4.3236   -0.5125    3.0890 H       1  LIG1        0.1071
     24 O           6.1871    2.3815   -2.0886 O.3     1  LIG1       -0.5061
     25 H           5.5643    2.7220   -2.7413 H       1  LIG1        0.2922
     26 C           8.4226   -0.0887   -0.0401 C.ar    1  LIG1        0.0134
     27 C           9.8155   -0.0462   -0.0060 C.ar    1  LIG1       -0.0367
     28 C           7.7037    1.1126   -0.0748 C.ar    1  LIG1        0.0023
     29 C          10.5283    1.1483   -0.0343 C.ar    1  LIG1        0.0258
     30 H          10.3776   -0.9726    0.0430 H       1  LIG1        0.0636
     31 C           8.4142    2.3126   -0.0930 C.ar    1  LIG1       -0.0107
     32 C           9.8003    2.3441   -0.0777 C.ar    1  LIG1        0.1252
     33 H           7.8585    3.2447   -0.1349 H       1  LIG1        0.0661
     34 S           7.5597   -1.6543   -0.0599 S.3     1  LIG1       -0.1420
     35 H           8.6389   -2.3934   -0.3613 H       1  LIG1        0.1071
     36 O          10.4918    3.5184   -0.0946 O.3     1  LIG1       -0.5061
     37 H           9.8694    4.2463   -0.2068 H       1  LIG1        0.2922
     38 C          12.7834    0.4920   -0.9703 C.ar    1  LIG1        0.0128
     39 C          14.1747    0.4884   -0.8505 C.ar    1  LIG1       -0.0445
     40 C          12.0162    1.1429    0.0045 C.ar    1  LIG1        0.0022
     41 C          14.8096    1.1268    0.1998 C.ar    1  LIG1       -0.0191
     42 H          14.7778   -0.0191   -1.5965 H       1  LIG1        0.0630
     43 C          12.6668    1.7865    1.0592 C.ar    1  LIG1       -0.0113
     44 C          14.0500    1.7865    1.1612 C.ar    1  LIG1        0.1175
     45 H          12.0674    2.3022    1.8037 H       1  LIG1        0.0660
     46 H          15.8899    1.1265    0.2869 H       1  LIG1        0.0654
     47 S          11.9786   -0.2947   -2.3603 S.3     1  LIG1       -0.1420
     48 H          13.1070   -0.5264   -3.0497 H       1  LIG1        0.1071
     49 O          14.7138    2.4055    2.1768 O.3     1  LIG1       -0.5067
     50 H          14.0754    2.8359    2.7573 H       1  LIG1        0.2921
@<TRIPOS>BOND
     1    48    47    1
     2    25    24    1
     3    47    38    1
     4    24    20    1
     5    21    19    1
     6    42    39    1
     7    20    19   ar
     8    20    17   ar
     9    19    16   ar
    10    38    39   ar
    11    38    40   ar
    12    39    41   ar
    13    35    34    1
    14    10     1    1
    15    10    11    1
    16    37    36    1
    17     5     2    1
    18     1     2   ar
    19     1     3   ar
    20    33    31    1
    21     2     4   ar
    22     9     3    1
    23    36    32    1
    24    31    32   ar
    25    31    28   ar
    26     3     6   ar
    27    32    29   ar
    28    28    17    1
    29    28    26   ar
    30    17    15   ar
    31    34    26    1
    32    26    27   ar
    33    29    27   ar
    34    29    40    1
    35     4    16    1
    36     4     7   ar
    37     6     7   ar
    38     6     8    1
    39    27    30    1
    40    16    14   ar
    41    40    43   ar
    42     7    12    1
    43    12    13    1
    44    41    46    1
    45    41    44   ar
    46    15    14   ar
    47    15    18    1
    48    14    22    1
    49    43    44   ar
    50    43    45    1
    51    44    49    1
    52    49    50    1
    53    22    23    1
