@<TRIPOS>MOLECULE
mol_data/opt/cam/geoms/mol2/4gf4gf.out
 26 27 0 0 0
SMALL
GASTEIGER

@<TRIPOS>ATOM
      1 C           0.0348    0.2573    0.7338 C.ar    1  LIG1        0.0055
      2 C           1.4282    0.2714    0.7191 C.ar    1  LIG1       -0.0373
      3 C          -0.6574    1.2500    0.0484 C.ar    1  LIG1       -0.0451
      4 C           2.1448    1.2369    0.0166 C.ar    1  LIG1        0.0257
      5 H           1.9745   -0.4858    1.2708 H       1  LIG1        0.0636
      6 C           0.0357    2.2340   -0.6423 C.ar    1  LIG1       -0.0185
      7 C           1.4271    2.2313   -0.6643 C.ar    1  LIG1        0.1246
      8 H          -0.5086    3.0088   -1.1761 H       1  LIG1        0.0654
      9 H          -1.7415    1.2530    0.0550 H       1  LIG1        0.0630
     10 S          -0.8620   -0.9718    1.6778 S.3     1  LIG1       -0.1426
     11 H          -0.6825   -2.0084    0.8389 H       1  LIG1        0.1071
     12 O           2.1362    3.1794   -1.3312 O.3     1  LIG1       -0.5062
     13 H           1.5263    3.7677   -1.7916 H       1  LIG1        0.2922
     14 C           4.3607    0.1675   -0.5454 C.ar    1  LIG1        0.0128
     15 C           5.7553    0.1907   -0.4816 C.ar    1  LIG1       -0.0445
     16 C           3.6342    1.2241    0.0161 C.ar    1  LIG1        0.0022
     17 C           6.4302    1.2421    0.1128 C.ar    1  LIG1       -0.0191
     18 H           6.3284   -0.6263   -0.9079 H       1  LIG1        0.0630
     19 C           4.3236    2.2811    0.6121 C.ar    1  LIG1       -0.0113
     20 C           5.7100    2.2990    0.6614 C.ar    1  LIG1        0.1175
     21 H           3.7538    3.1027    1.0370 H       1  LIG1        0.0660
     22 H           7.5129    1.2601    0.1580 H       1  LIG1        0.0654
     23 S           3.4907   -1.1714   -1.3490 S.3     1  LIG1       -0.1420
     24 H           4.5865   -1.7552   -1.8593 H       1  LIG1        0.1071
     25 O           6.4146    3.3137    1.2345 O.3     1  LIG1       -0.5067
     26 H           5.8014    3.9805    1.5647 H       1  LIG1        0.2921
@<TRIPOS>BOND
     1    24    23    1
     2    13    12    1
     3    23    14    1
     4    12     7    1
     5     8     6    1
     6    18    15    1
     7     7     6   ar
     8     7     4   ar
     9     6     3   ar
    10    14    15   ar
    11    14    16   ar
    12    15    17   ar
    13    16     4    1
    14    16    19   ar
    15     4     2   ar
    16     3     9    1
    17     3     1   ar
    18    17    22    1
    19    17    20   ar
    20    19    20   ar
    21    19    21    1
    22    20    25    1
    23     2     1   ar
    24     2     5    1
    25     1    10    1
    26    11    10    1
    27    25    26    1
