@<TRIPOS>MOLECULE
mol_data/opt/cam/geoms/mol2/4gf4gf4gf.out
 38 40 0 0 0
SMALL
GASTEIGER

@<TRIPOS>ATOM
      1 C          -0.0820    0.7688    1.1001 C.ar    1  LIG1        0.0055
      2 C           1.3108    0.7426    1.0615 C.ar    1  LIG1       -0.0373
      3 C          -0.7763    1.3280    0.0328 C.ar    1  LIG1       -0.0451
      4 C           2.0246    1.2377   -0.0271 C.ar    1  LIG1        0.0257
      5 H           1.8582    0.3301    1.9019 H       1  LIG1        0.0636
      6 C          -0.0857    1.8470   -1.0532 C.ar    1  LIG1       -0.0185
      7 C           1.3046    1.8033   -1.0902 C.ar    1  LIG1        0.1246
      8 H          -0.6313    2.2847   -1.8852 H       1  LIG1        0.0654
      9 H          -1.8598    1.3577    0.0513 H       1  LIG1        0.0630
     10 S          -0.9735    0.1623    2.5296 S.3     1  LIG1       -0.1426
     11 H          -0.8209   -1.1532    2.2917 H       1  LIG1        0.1071
     12 O           2.0103    2.3031   -2.1382 O.3     1  LIG1       -0.5062
     13 H           1.3982    2.6059   -2.8193 H       1  LIG1        0.2922
     14 C           4.2155   -0.0201    0.0110 C.ar    1  LIG1        0.0134
     15 C           5.6087    0.0048    0.0391 C.ar    1  LIG1       -0.0367
     16 C           3.5120    1.1886   -0.0428 C.ar    1  LIG1        0.0023
     17 C           6.3349    1.1906   -0.0110 C.ar    1  LIG1        0.0258
     18 H           6.1603   -0.9271    0.1018 H       1  LIG1        0.0636
     19 C           4.2352    2.3799   -0.0839 C.ar    1  LIG1       -0.0107
     20 C           5.6219    2.3946   -0.0724 C.ar    1  LIG1        0.1252
     21 H           3.6905    3.3183   -0.1376 H       1  LIG1        0.0661
     22 S           3.3248   -1.5693    0.0265 S.3     1  LIG1       -0.1420
     23 H           4.3941   -2.3388   -0.2306 H       1  LIG1        0.1071
     24 O           6.3289    3.5587   -0.1102 O.3     1  LIG1       -0.5061
     25 H           5.7162    4.2946   -0.2241 H       1  LIG1        0.2922
     26 C           8.5806    0.5047   -0.9477 C.ar    1  LIG1        0.0128
     27 C           9.9721    0.4870   -0.8313 C.ar    1  LIG1       -0.0445
     28 C           7.8228    1.1688    0.0253 C.ar    1  LIG1        0.0022
     29 C          10.6157    1.1237    0.2147 C.ar    1  LIG1       -0.0191
     30 H          10.5681   -0.0305   -1.5759 H       1  LIG1        0.0630
     31 C           8.4820    1.8101    1.0759 C.ar    1  LIG1       -0.0113
     32 C           9.8655    1.7956    1.1751 C.ar    1  LIG1        0.1175
     33 H           7.8897    2.3354    1.8194 H       1  LIG1        0.0660
     34 H          11.6962    1.1125    0.2995 H       1  LIG1        0.0654
     35 S           7.7628   -0.2823   -2.3298 S.3     1  LIG1       -0.1420
     36 H           8.8861   -0.5306   -3.0218 H       1  LIG1        0.1071
     37 O          10.5383    2.4116    2.1862 O.3     1  LIG1       -0.5067
     38 H           9.9064    2.8499    2.7679 H       1  LIG1        0.2921
@<TRIPOS>BOND
     1    36    35    1
     2    13    12    1
     3    35    26    1
     4    12     7    1
     5     8     6    1
     6    30    27    1
     7     7     6   ar
     8     7     4   ar
     9     6     3   ar
    10    26    27   ar
    11    26    28   ar
    12    27    29   ar
    13    23    22    1
    14    25    24    1
    15    21    19    1
    16    24    20    1
    17    19    20   ar
    18    19    16   ar
    19    20    17   ar
    20    16     4    1
    21    16    14   ar
    22     4     2   ar
    23    17    28    1
    24    17    15   ar
    25    14    22    1
    26    14    15   ar
    27    28    31   ar
    28     3     9    1
    29     3     1   ar
    30    15    18    1
    31    29    34    1
    32    29    32   ar
    33     2     1   ar
    34     2     5    1
    35    31    32   ar
    36    31    33    1
    37     1    10    1
    38    32    37    1
    39    37    38    1
    40    11    10    1
