@<TRIPOS>MOLECULE
mol_data/opt/cam/geoms/mol2/4gf4gf-4gf.out
 38 40 0 0 0
SMALL
GASTEIGER

@<TRIPOS>ATOM
      1 C          -0.0865    0.1415   -0.5501 C.ar    1  LIG1        0.0055
      2 C           1.3065    0.1457   -0.5132 C.ar    1  LIG1       -0.0373
      3 C          -0.7772    1.2616   -0.1000 C.ar    1  LIG1       -0.0451
      4 C           2.0233    1.2306   -0.0141 C.ar    1  LIG1        0.0257
      5 H           1.8527   -0.7145   -0.8840 H       1  LIG1        0.0636
      6 C          -0.0832    2.3630    0.3804 C.ar    1  LIG1       -0.0185
      7 C           1.3073    2.3524    0.4288 C.ar    1  LIG1        0.1246
      8 H          -0.6265    3.2373    0.7298 H       1  LIG1        0.0654
      9 H          -1.8610    1.2719   -0.1249 H       1  LIG1        0.0630
     10 S          -0.9858   -1.2483   -1.2318 S.3     1  LIG1       -0.1426
     11 H          -0.7780   -2.1090   -0.2190 H       1  LIG1        0.1071
     12 O           2.0171    3.4140    0.8953 O.3     1  LIG1       -0.5062
     13 H           1.4059    4.0901    1.2108 H       1  LIG1        0.2922
     14 C           4.2209    0.2767    0.7881 C.ar    1  LIG1        0.0134
     15 C           5.6136    0.2809    0.7456 C.ar    1  LIG1       -0.0367
     16 C           3.5116    1.2044    0.0169 C.ar    1  LIG1        0.0023
     17 C           6.3328    1.1804   -0.0358 C.ar    1  LIG1        0.0258
     18 H           6.1718   -0.4311    1.3443 H       1  LIG1        0.0636
     19 C           4.2278    2.1159   -0.7570 C.ar    1  LIG1       -0.0107
     20 C           5.6145    2.1175   -0.7886 C.ar    1  LIG1        0.1252
     21 H           3.6778    2.8439   -1.3467 H       1  LIG1        0.0661
     22 S           3.3303   -0.8634    1.8360 S.3     1  LIG1       -0.1420
     23 H           4.4212   -1.4232    2.3819 H       1  LIG1        0.1071
     24 O           6.3161    3.0107   -1.5411 O.3     1  LIG1       -0.5061
     25 H           5.6970    3.5544   -2.0420 H       1  LIG1        0.2922
     26 C           8.5420    0.0258   -0.4496 C.ar    1  LIG1        0.0128
     27 C           9.9370    0.0516   -0.3910 C.ar    1  LIG1       -0.0445
     28 C           7.8210    1.1549   -0.0410 C.ar    1  LIG1        0.0022
     29 C          10.6189    1.1730    0.0463 C.ar    1  LIG1       -0.0191
     30 H          10.5049   -0.8207   -0.6981 H       1  LIG1        0.0630
     31 C           8.5183    2.2822    0.3974 C.ar    1  LIG1       -0.0113
     32 C           9.9046    2.3005    0.4400 C.ar    1  LIG1        0.1175
     33 H           7.9536    3.1592    0.7000 H       1  LIG1        0.0660
     34 H          11.7019    1.1919    0.0856 H       1  LIG1        0.0654
     35 S           7.6716   -1.4124   -1.0593 S.3     1  LIG1       -0.1420
     36 H           8.7639   -2.0395   -1.5242 H       1  LIG1        0.1071
     37 O          10.6145    3.3839    0.8613 O.3     1  LIG1       -0.5067
     38 H          10.0041    4.0962    1.0844 H       1  LIG1        0.2921
@<TRIPOS>BOND
     1    25    24    1
     2    24    20    1
     3    36    35    1
     4    21    19    1
     5    10     1    1
     6    10    11    1
     7    35    26    1
     8     5     2    1
     9    20    19   ar
    10    20    17   ar
    11    19    16   ar
    12    30    27    1
    13     1     2   ar
    14     1     3   ar
    15     2     4   ar
    16    26    27   ar
    17    26    28   ar
    18    27    29   ar
    19     9     3    1
    20     3     6   ar
    21    28    17    1
    22    28    31   ar
    23    17    15   ar
    24     4    16    1
    25     4     7   ar
    26    16    14   ar
    27    29    34    1
    28    29    32   ar
    29     6     7   ar
    30     6     8    1
    31    31    32   ar
    32    31    33    1
    33     7    12    1
    34    32    37    1
    35    15    14   ar
    36    15    18    1
    37    14    22    1
    38    37    38    1
    39    12    13    1
    40    22    23    1
