@<TRIPOS>MOLECULE
mol_data/opt/cam/geoms/mol2/4gf4gf4gf-4gf.out
 50 53 0 0 0
SMALL
GASTEIGER

@<TRIPOS>ATOM
      1 C          -0.2115    0.2719    0.7203 C.ar    1  LIG1        0.0055
      2 C           1.1817    0.2641    0.6957 C.ar    1  LIG1       -0.0373
      3 C          -0.8927    1.2896    0.0611 C.ar    1  LIG1       -0.0451
      4 C           1.9081    1.2331    0.0080 C.ar    1  LIG1        0.0257
      5 H           1.7205   -0.5131    1.2263 H       1  LIG1        0.0636
      6 C          -0.1891    2.2786   -0.6115 C.ar    1  LIG1       -0.0185
      7 C           1.2017    2.2543   -0.6444 C.ar    1  LIG1        0.1246
      8 H          -0.7250    3.0734   -1.1241 H       1  LIG1        0.0654
      9 H          -1.9766    1.3080    0.0736 H       1  LIG1        0.0630
     10 S          -1.1239   -0.9614    1.6433 S.3     1  LIG1       -0.1426
     11 H          -0.9083   -1.9993    0.8150 H       1  LIG1        0.1071
     12 O           1.9207    3.2068   -1.2958 O.3     1  LIG1       -0.5062
     13 H           1.3155    3.8124   -1.7398 H       1  LIG1        0.2922
     14 C           4.1067    0.1376   -0.5836 C.ar    1  LIG1        0.0134
     15 C           5.4990    0.1453   -0.5334 C.ar    1  LIG1       -0.0367
     16 C           3.3965    1.1962   -0.0054 C.ar    1  LIG1        0.0023
     17 C           6.2169    1.1741    0.0695 C.ar    1  LIG1        0.0258
     18 H           6.0579   -0.6683   -0.9831 H       1  LIG1        0.0636
     19 C           4.1115    2.2348    0.5882 C.ar    1  LIG1       -0.0107
     20 C           5.4980    2.2381    0.6281 C.ar    1  LIG1        0.1252
     21 H           3.5610    3.0626    1.0262 H       1  LIG1        0.0661
     22 S           3.2178   -1.1763   -1.4042 S.3     1  LIG1       -0.1420
     23 H           4.3093   -1.8308   -1.8302 H       1  LIG1        0.1071
     24 O           6.1985    3.2558    1.2038 O.3     1  LIG1       -0.5061
     25 H           5.5776    3.8849    1.5893 H       1  LIG1        0.2922
     26 C           8.4277    0.1142    0.6929 C.ar    1  LIG1        0.0134
     27 C           9.8200    0.1348    0.6360 C.ar    1  LIG1       -0.0367
     28 C           7.7046    1.1481    0.0857 C.ar    1  LIG1        0.0023
     29 C          10.5266    1.1519    0.0011 C.ar    1  LIG1        0.0258
     30 H          10.3883   -0.6596    1.1082 H       1  LIG1        0.0636
     31 C           8.4089    2.1759   -0.5397 C.ar    1  LIG1       -0.0107
     32 C           9.7948    2.1924   -0.5843 C.ar    1  LIG1        0.1252
     33 H           7.8487    2.9861   -0.9975 H       1  LIG1        0.0661
     34 S           7.5615   -1.1861    1.5599 S.3     1  LIG1       -0.1420
     35 H           8.6651   -1.7893    2.0289 H       1  LIG1        0.1071
     36 O          10.4827    3.2001   -1.1914 O.3     1  LIG1       -0.5061
     37 H           9.8538    3.8165   -1.5842 H       1  LIG1        0.2922
     38 C          12.7391    0.0912   -0.6049 C.ar    1  LIG1        0.0128
     39 C          14.1345    0.1190   -0.5559 C.ar    1  LIG1       -0.0445
     40 C          12.0147    1.1387   -0.0220 C.ar    1  LIG1        0.0022
     41 C          14.8135    1.1661    0.0411 C.ar    1  LIG1       -0.0191
     42 H          14.7050   -0.6915   -0.9978 H       1  LIG1        0.0630
     43 C          12.7093    2.1916    0.5766 C.ar    1  LIG1       -0.0113
     44 C          14.0958    2.2146    0.6086 C.ar    1  LIG1        0.1175
     45 H          12.1418    3.0076    1.0142 H       1  LIG1        0.0660
     46 H          15.8967    1.1876    0.0729 H       1  LIG1        0.0654
     47 S          11.8730   -1.2439   -1.4209 S.3     1  LIG1       -0.1420
     48 H          12.9663   -1.7856   -1.9810 H       1  LIG1        0.1071
     49 O          14.8028    3.2270    1.1833 O.3     1  LIG1       -0.5067
     50 H          14.1900    3.8909    1.5202 H       1  LIG1        0.2921
@<TRIPOS>BOND
     1    48    47    1
     2    23    22    1
     3    13    12    1
     4    37    36    1
     5    47    38    1
     6    22    14    1
     7    12     7    1
     8    36    32    1
     9     8     6    1
    10    42    39    1
    11    33    31    1
    12    18    15    1
    13     7     6   ar
    14     7     4   ar
    15     6     3   ar
    16    38    39   ar
    17    38    40   ar
    18    32    31   ar
    19    32    29   ar
    20    14    15   ar
    21    14    16   ar
    22    39    41   ar
    23    31    28   ar
    24    15    17   ar
    25    40    29    1
    26    40    43   ar
    27    16     4    1
    28    16    19   ar
    29    29    27   ar
    30     4     2   ar
    31    41    46    1
    32    41    44   ar
    33     3     9    1
    34     3     1   ar
    35    17    28    1
    36    17    20   ar
    37    28    26   ar
    38    43    44   ar
    39    43    45    1
    40    19    20   ar
    41    19    21    1
    42    44    49    1
    43    20    24    1
    44    27    26   ar
    45    27    30    1
    46    26    34    1
    47     2     1   ar
    48     2     5    1
    49     1    10    1
    50    11    10    1
    51    49    50    1
    52    24    25    1
    53    34    35    1
