@<TRIPOS>MOLECULE
mol_data/opt/cam/geoms/mol2/4gf4gf-4gf4gf.out
 50 53 0 0 0
SMALL
GASTEIGER

@<TRIPOS>ATOM
      1 C          -0.2114    0.2710   -0.7103 C.ar    1  LIG1        0.0055
      2 C           1.1818    0.2629   -0.6851 C.ar    1  LIG1       -0.0373
      3 C          -0.8926    1.2920   -0.0561 C.ar    1  LIG1       -0.0451
      4 C           1.9082    1.2349   -0.0015 C.ar    1  LIG1        0.0257
      5 H           1.7205   -0.5169   -1.2119 H       1  LIG1        0.0636
      6 C          -0.1890    2.2838    0.6123 C.ar    1  LIG1       -0.0185
      7 C           1.2018    2.2592    0.6459 C.ar    1  LIG1        0.1246
      8 H          -0.7248    3.0812    1.1210 H       1  LIG1        0.0654
      9 H          -1.9765    1.3107   -0.0692 H       1  LIG1        0.0630
     10 S          -1.1238   -0.9661   -1.6280 S.3     1  LIG1       -0.1426
     11 H          -0.9090   -2.0003   -0.7949 H       1  LIG1        0.1071
     12 O           1.9208    3.2144    1.2932 O.3     1  LIG1       -0.5062
     13 H           1.3156    3.8223    1.7342 H       1  LIG1        0.2922
     14 C           4.1061    0.1413    0.5961 C.ar    1  LIG1        0.0134
     15 C           5.4984    0.1483    0.5466 C.ar    1  LIG1       -0.0367
     16 C           3.3965    1.1975    0.0127 C.ar    1  LIG1        0.0023
     17 C           6.2169    1.1741   -0.0608 C.ar    1  LIG1        0.0258
     18 H           6.0569   -0.6634    1.0002 H       1  LIG1        0.0636
     19 C           4.1122    2.2331   -0.5853 C.ar    1  LIG1       -0.0107
     20 C           5.4987    2.2357   -0.6245 C.ar    1  LIG1        0.1252
     21 H           3.5621    3.0590   -1.0273 H       1  LIG1        0.0661
     22 S           3.2164   -1.1685    1.4223 S.3     1  LIG1       -0.1420
     23 H           4.3075   -1.8214    1.8518 H       1  LIG1        0.1071
     24 O           6.1998    3.2505   -1.2046 O.3     1  LIG1       -0.5061
     25 H           5.5793    3.8781   -1.5932 H       1  LIG1        0.2922
     26 C           8.4277    0.1106   -0.6783 C.ar    1  LIG1        0.0134
     27 C           9.8200    0.1310   -0.6209 C.ar    1  LIG1       -0.0367
     28 C           7.7046    1.1475   -0.0762 C.ar    1  LIG1        0.0023
     29 C          10.5266    1.1507    0.0097 C.ar    1  LIG1        0.0258
     30 H          10.3882   -0.6658   -1.0891 H       1  LIG1        0.0636
     31 C           8.4090    2.1780    0.5448 C.ar    1  LIG1       -0.0107
     32 C           9.7949    2.1942    0.5899 C.ar    1  LIG1        0.1252
     33 H           7.8488    2.9904    0.9986 H       1  LIG1        0.0661
     34 S           7.5614   -1.1934   -1.5398 S.3     1  LIG1       -0.1420
     35 H           8.6650   -1.7990   -2.0054 H       1  LIG1        0.1071
     36 O          10.4828    3.2044    1.1927 O.3     1  LIG1       -0.5061
     37 H           9.8539    3.8228    1.5825 H       1  LIG1        0.2922
     38 C          12.7385    0.0921    0.6216 C.ar    1  LIG1        0.0128
     39 C          14.1339    0.1192    0.5730 C.ar    1  LIG1       -0.0445
     40 C          12.0147    1.1371    0.0335 C.ar    1  LIG1        0.0022
     41 C          14.8135    1.1633   -0.0284 C.ar    1  LIG1       -0.0191
     42 H          14.7039   -0.6895    1.0189 H       1  LIG1        0.0630
     43 C          12.7099    2.1870   -0.5696 C.ar    1  LIG1       -0.0113
     44 C          14.0964    2.2095   -0.6010 C.ar    1  LIG1        0.1175
     45 H          12.1429    3.0013   -1.0112 H       1  LIG1        0.0660
     46 H          15.8967    1.1843   -0.0598 H       1  LIG1        0.0654
     47 S          11.8716   -1.2390    1.4432 S.3     1  LIG1       -0.1420
     48 H          12.9644   -1.7784    2.0063 H       1  LIG1        0.1071
     49 O          14.8040    3.2190   -1.1801 O.3     1  LIG1       -0.5067
     50 H          14.1916    3.8815   -1.5203 H       1  LIG1        0.2921
@<TRIPOS>BOND
     1    35    34    1
     2    10    11    1
     3    10     1    1
     4    25    24    1
     5    34    26    1
     6    50    49    1
     7     5     2    1
     8    24    20    1
     9    49    44    1
    10    30    27    1
    11    21    19    1
    12    45    43    1
    13     1     2   ar
    14     1     3   ar
    15     2     4   ar
    16    26    27   ar
    17    26    28   ar
    18    20    19   ar
    19    20    17   ar
    20    27    29   ar
    21    44    43   ar
    22    44    41   ar
    23    19    16   ar
    24    43    40   ar
    25    28    17    1
    26    28    31   ar
    27     9     3    1
    28    17    15   ar
    29    46    41    1
    30     3     6   ar
    31    41    39   ar
    32     4    16    1
    33     4     7   ar
    34    29    40    1
    35    29    32   ar
    36    16    14   ar
    37    40    38   ar
    38    31    32   ar
    39    31    33    1
    40    15    14   ar
    41    15    18    1
    42    39    38   ar
    43    39    42    1
    44    32    36    1
    45    14    22    1
    46     6     7   ar
    47     6     8    1
    48    38    47    1
    49     7    12    1
    50    36    37    1
    51    12    13    1
    52    22    23    1
    53    47    48    1
