@<TRIPOS>MOLECULE
mol_data/opt/cam/geoms/mol2/4gf4gf4gf-.out
 38 40 0 0 0
SMALL
GASTEIGER

@<TRIPOS>ATOM
      1 C          -0.0868    0.1501    0.5661 C.ar    1  LIG1        0.0055
      2 C           1.3061    0.1530    0.5283 C.ar    1  LIG1       -0.0373
      3 C          -0.7771    1.2666    0.1064 C.ar    1  LIG1       -0.0451
      4 C           2.0233    1.2327    0.0189 C.ar    1  LIG1        0.0257
      5 H           1.8519   -0.7042    0.9065 H       1  LIG1        0.0636
      6 C          -0.0826    2.3631   -0.3843 C.ar    1  LIG1       -0.0185
      7 C           1.3079    2.3511   -0.4335 C.ar    1  LIG1        0.1246
      8 H          -0.6255    3.2347   -0.7412 H       1  LIG1        0.0654
      9 H          -1.8609    1.2778    0.1319 H       1  LIG1        0.0630
     10 S          -0.9868   -1.2329    1.2609 S.3     1  LIG1       -0.1426
     11 H          -0.7792   -2.1031    0.2562 H       1  LIG1        0.1071
     12 O           2.0181    3.4080   -0.9100 O.3     1  LIG1       -0.5062
     13 H           1.4071    4.0815   -1.2313 H       1  LIG1        0.2922
     14 C           4.2197    0.2699   -0.7759 C.ar    1  LIG1        0.0134
     15 C           5.6125    0.2735   -0.7343 C.ar    1  LIG1       -0.0367
     16 C           3.5116    1.2052   -0.0128 C.ar    1  LIG1        0.0023
     17 C           6.3328    1.1797    0.0383 C.ar    1  LIG1        0.0258
     18 H           6.1698   -0.4445   -1.3267 H       1  LIG1        0.0636
     19 C           4.2289    2.1234    0.7521 C.ar    1  LIG1       -0.0107
     20 C           5.6156    2.1243    0.7828 C.ar    1  LIG1        0.1252
     21 H           3.6798    2.8573    1.3353 H       1  LIG1        0.0661
     22 S           3.3278   -0.8793   -1.8125 S.3     1  LIG1       -0.1420
     23 H           4.4180   -1.4446   -2.3541 H       1  LIG1        0.1071
     24 O           6.3184    3.0240    1.5265 O.3     1  LIG1       -0.5061
     25 H           5.7000    3.5728    2.0226 H       1  LIG1        0.2922
     26 C           8.5414    0.0273    0.4610 C.ar    1  LIG1        0.0128
     27 C           9.9364    0.0515    0.4012 C.ar    1  LIG1       -0.0445
     28 C           7.8210    1.1532    0.0428 C.ar    1  LIG1        0.0022
     29 C          10.6189    1.1684   -0.0466 C.ar    1  LIG1       -0.0191
     30 H          10.5039   -0.8184    0.7157 H       1  LIG1        0.0630
     31 C           8.5189    2.2759   -0.4063 C.ar    1  LIG1       -0.0113
     32 C           9.9051    2.2929   -0.4500 C.ar    1  LIG1        0.1175
     33 H           7.9545    3.1506   -0.7164 H       1  LIG1        0.0660
     34 H          11.7018    1.1861   -0.0868 H       1  LIG1        0.0654
     35 S           7.6704   -1.4048    1.0843 S.3     1  LIG1       -0.1420
     36 H           8.7625   -2.0282    1.5544 H       1  LIG1        0.1071
     37 O          10.6155    3.3719   -0.8815 O.3     1  LIG1       -0.5067
     38 H          10.0055    4.0826   -1.1106 H       1  LIG1        0.2921
@<TRIPOS>BOND
     1    23    22    1
     2    22    14    1
     3    18    15    1
     4    13    12    1
     5    38    37    1
     6    12     7    1
     7    37    32    1
     8    14    15   ar
     9    14    16   ar
    10     8     6    1
    11    15    17   ar
    12    33    31    1
    13    32    31   ar
    14    32    29   ar
    15     7     6   ar
    16     7     4   ar
    17    31    28   ar
    18     6     3   ar
    19    34    29    1
    20    29    27   ar
    21    16     4    1
    22    16    19   ar
    23     4     2   ar
    24    17    28    1
    25    17    20   ar
    26    28    26   ar
    27     3     9    1
    28     3     1   ar
    29    11    10    1
    30    27    26   ar
    31    27    30    1
    32    26    35    1
    33     2     1   ar
    34     2     5    1
    35     1    10    1
    36    19    20   ar
    37    19    21    1
    38    20    24    1
    39    35    36    1
    40    24    25    1
