@<TRIPOS>MOLECULE
mol_data/opt/cam/geoms/mol2/4gf4gf-4gf-4gf-.out
 50 53 0 0 0
SMALL
GASTEIGER

@<TRIPOS>ATOM
      1 C          -0.2088    0.0321   -0.1712 C.ar    1  LIG1        0.0055
      2 C           1.1843    0.0416   -0.1417 C.ar    1  LIG1       -0.0373
      3 C          -0.8933    1.2421   -0.1288 C.ar    1  LIG1       -0.0451
      4 C           1.9074    1.2281   -0.0456 C.ar    1  LIG1        0.0257
      5 H           1.7256   -0.8962   -0.1977 H       1  LIG1        0.0636
      6 C          -0.1931    2.4378   -0.0552 C.ar    1  LIG1       -0.0185
      7 C           1.1977    2.4374   -0.0103 C.ar    1  LIG1        0.1246
      8 H          -0.7315    3.3816   -0.0240 H       1  LIG1        0.0654
      9 H          -1.9772    1.2487   -0.1531 H       1  LIG1        0.0630
     10 S          -1.1160   -1.5026   -0.3351 S.3     1  LIG1       -0.1426
     11 H          -0.9147   -1.9628    0.9130 H       1  LIG1        0.1071
     12 O           1.9136    3.5909    0.0632 O.3     1  LIG1       -0.5062
     13 H           1.3062    4.3373    0.1288 H       1  LIG1        0.2922
     14 C           4.1061    0.5926    1.0248 C.ar    1  LIG1        0.0134
     15 C           5.4985    0.5749    0.9778 C.ar    1  LIG1       -0.0367
     16 C           3.3958    1.2065   -0.0130 C.ar    1  LIG1        0.0023
     17 C           6.2171    1.1496   -0.0666 C.ar    1  LIG1        0.0258
     18 H           6.0563    0.1082    1.7828 H       1  LIG1        0.0636
     19 C           4.1111    1.7973   -1.0530 C.ar    1  LIG1       -0.0107
     20 C           5.4976    1.7804   -1.0895 C.ar    1  LIG1        0.1252
     21 H           3.5606    2.2850   -1.8526 H       1  LIG1        0.0661
     22 S           3.2175   -0.1176    2.4017 S.3     1  LIG1       -0.1420
     23 H           4.3090   -0.4834    3.0919 H       1  LIG1        0.1071
     24 O           6.1971    2.3621   -2.1036 O.3     1  LIG1       -0.5061
     25 H           5.5774    2.6967   -2.7623 H       1  LIG1        0.2922
     26 C           8.4226   -0.0892   -0.0219 C.ar    1  LIG1        0.0134
     27 C           9.8153   -0.0466    0.0184 C.ar    1  LIG1       -0.0367
     28 C           7.7040    1.1118   -0.0711 C.ar    1  LIG1        0.0023
     29 C          10.5285    1.1476   -0.0177 C.ar    1  LIG1        0.0258
     30 H          10.3771   -0.9725    0.0786 H       1  LIG1        0.0636
     31 C           8.4149    2.3114   -0.0970 C.ar    1  LIG1       -0.0107
     32 C           9.8009    2.3429   -0.0756 C.ar    1  LIG1        0.1252
     33 H           7.8595    3.2432   -0.1502 H       1  LIG1        0.0661
     34 S           7.5595   -1.6549   -0.0311 S.3     1  LIG1       -0.1420
     35 H           8.6400   -2.3968   -0.3207 H       1  LIG1        0.1071
     36 O          10.4926    3.5169   -0.1001 O.3     1  LIG1       -0.5061
     37 H           9.8709    4.2439   -0.2220 H       1  LIG1        0.2922
     38 C          12.7878    0.4823   -0.9370 C.ar    1  LIG1        0.0128
     39 C          14.1785    0.4796   -0.8107 C.ar    1  LIG1       -0.0445
     40 C          12.0161    1.1423    0.0281 C.ar    1  LIG1        0.0022
     41 C          14.8086    1.1276    0.2366 C.ar    1  LIG1       -0.0191
     42 H          14.7850   -0.0349   -1.5491 H       1  LIG1        0.0630
     43 C          12.6619    1.7955    1.0798 C.ar    1  LIG1       -0.0113
     44 C          14.0446    1.7963    1.1883 C.ar    1  LIG1        0.1175
     45 H          12.0591    2.3183    1.8167 H       1  LIG1        0.0660
     46 H          15.8885    1.1280    0.3288 H       1  LIG1        0.0654
     47 S          11.9894   -0.3172   -2.3233 S.3     1  LIG1       -0.1420
     48 H          13.1209   -0.5554   -3.0053 H       1  LIG1        0.1071
     49 O          14.7037    2.4247    2.2011 O.3     1  LIG1       -0.5067
     50 H          14.0628    2.8605    2.7747 H       1  LIG1        0.2921
@<TRIPOS>BOND
     1    48    47    1
     2    25    24    1
     3    47    38    1
     4    24    20    1
     5    21    19    1
     6    42    39    1
     7    20    19   ar
     8    20    17   ar
     9    19    16   ar
    10    38    39   ar
    11    38    40   ar
    12    39    41   ar
    13    10     1    1
    14    10    11    1
    15    35    34    1
    16    37    36    1
    17     5     2    1
    18     1     2   ar
    19     1     3   ar
    20     9     3    1
    21    33    31    1
    22     2     4   ar
    23     3     6   ar
    24    36    32    1
    25    31    32   ar
    26    31    28   ar
    27    32    29   ar
    28    28    17    1
    29    28    26   ar
    30    17    15   ar
    31     6     8    1
    32     6     7   ar
    33     4    16    1
    34     4     7   ar
    35    34    26    1
    36    26    27   ar
    37    29    27   ar
    38    29    40    1
    39    16    14   ar
    40     7    12    1
    41    27    30    1
    42    40    43   ar
    43    12    13    1
    44    41    46    1
    45    41    44   ar
    46    15    14   ar
    47    15    18    1
    48    14    22    1
    49    43    44   ar
    50    43    45    1
    51    44    49    1
    52    49    50    1
    53    22    23    1
