@<TRIPOS>MOLECULE
mol_data/opt/cam/geoms/mol2/4gg.out
 14 14 0 0 0
SMALL
GASTEIGER

@<TRIPOS>ATOM
      1 C           0.0921    0.0327    0.0004 C.ar    1  LIG1        0.0048
      2 C           1.4851    0.0399    0.0000 C.ar    1  LIG1       -0.0475
      3 C          -0.5877    1.2490    0.0003 C.ar    1  LIG1       -0.0475
      4 C           2.1829    1.2388   -0.0005 C.ar    1  LIG1       -0.0475
      5 H           2.0383   -0.8937    0.0001 H       1  LIG1        0.0629
      6 C           0.1101    2.4479   -0.0002 C.ar    1  LIG1       -0.0475
      7 C           1.5031    2.4550   -0.0006 C.ar    1  LIG1        0.0048
      8 H          -0.4432    3.3815   -0.0003 H       1  LIG1        0.0629
      9 H           3.2680    1.2226   -0.0008 H       1  LIG1        0.0629
     10 H          -1.6728    1.2652    0.0006 H       1  LIG1        0.0629
     11 S          -0.8700   -1.4641    0.0010 S.3     1  LIG1       -0.1426
     12 H           0.1630   -2.3208    0.0011 H       1  LIG1        0.1071
     13 S           2.4652    3.9519   -0.0012 S.3     1  LIG1       -0.1426
     14 H           1.4322    4.8086   -0.0012 H       1  LIG1        0.1071
@<TRIPOS>BOND
     1    13    14    1
     2    13     7    1
     3     9     4    1
     4     7     4   ar
     5     7     6   ar
     6     4     2   ar
     7     8     6    1
     8     6     3   ar
     9     2     5    1
    10     2     1   ar
    11     3     1   ar
    12     3    10    1
    13     1    11    1
    14    11    12    1
