@<TRIPOS>MOLECULE
mol_data/opt/cam/geoms/mol2/4gg4gg4gg-.out
 38 40 0 0 0
SMALL
GASTEIGER

@<TRIPOS>ATOM
      1 C          -0.0998    0.1375    0.5401 C.ar    1  LIG1        0.0054
      2 C           1.2902    0.1522    0.5062 C.ar    1  LIG1       -0.0398
      3 C          -0.7961    1.2362    0.0419 C.ar    1  LIG1       -0.0475
      4 C           1.9927    1.2320   -0.0282 C.ar    1  LIG1       -0.0026
      5 H           1.8564   -0.6851    0.9007 H       1  LIG1        0.0635
      6 C          -0.1097    2.3234   -0.4740 C.ar    1  LIG1       -0.0469
      7 C           1.2837    2.3346   -0.5238 C.ar    1  LIG1        0.0125
      8 H          -0.6726    3.1693   -0.8546 H       1  LIG1        0.0629
      9 H          -1.8811    1.2429    0.0495 H       1  LIG1        0.0629
     10 S          -1.0305   -1.2122    1.2320 S.3     1  LIG1       -0.1426
     11 H          -0.0600   -2.1358    1.1497 H       1  LIG1        0.1071
     12 S           2.1882    3.7100   -1.2043 S.3     1  LIG1       -0.1420
     13 H           1.1098    4.3725   -1.6520 H       1  LIG1        0.1071
     14 C           4.1946    0.3567   -0.9049 C.ar    1  LIG1        0.0131
     15 C           5.5852    0.3525   -0.8524 C.ar    1  LIG1       -0.0392
     16 C           3.4840    1.1942   -0.0354 C.ar    1  LIG1       -0.0026
     17 C           6.2914    1.1560    0.0394 C.ar    1  LIG1       -0.0026
     18 H           6.1513   -0.2873   -1.5213 H       1  LIG1        0.0635
     19 C           4.1902    1.9977    0.8564 C.ar    1  LIG1       -0.0392
     20 C           5.5808    1.9935    0.9089 C.ar    1  LIG1        0.0131
     21 H           3.6240    2.6374    1.5252 H       1  LIG1        0.0635
     22 S           3.2954   -0.6635   -2.0540 S.3     1  LIG1       -0.1420
     23 H           4.3796   -1.1667   -2.6651 H       1  LIG1        0.1071
     24 S           6.4799    3.0136    2.0580 S.3     1  LIG1       -0.1420
     25 H           5.3958    3.5168    2.6691 H       1  LIG1        0.1071
     26 C           8.4917    0.0156    0.5277 C.ar    1  LIG1        0.0125
     27 C           9.8850    0.0268    0.4779 C.ar    1  LIG1       -0.0469
     28 C           7.7827    1.1182    0.0322 C.ar    1  LIG1       -0.0026
     29 C          10.5715    1.1139   -0.0380 C.ar    1  LIG1       -0.0475
     30 H          10.4480   -0.8192    0.8586 H       1  LIG1        0.0629
     31 C           8.4851    2.1979   -0.5022 C.ar    1  LIG1       -0.0398
     32 C           9.8752    2.2127   -0.5361 C.ar    1  LIG1        0.0054
     33 H           7.9190    3.0353   -0.8967 H       1  LIG1        0.0635
     34 H          11.6564    1.1073   -0.0456 H       1  LIG1        0.0629
     35 S           7.5871   -1.3598    1.2082 S.3     1  LIG1       -0.1420
     36 H           8.6656   -2.0223    1.6559 H       1  LIG1        0.1071
     37 S          10.8059    3.5624   -1.2280 S.3     1  LIG1       -0.1426
     38 H           9.8353    4.4860   -1.1457 H       1  LIG1        0.1071
@<TRIPOS>BOND
     1    23    22    1
     2    22    14    1
     3    13    12    1
     4    18    15    1
     5    37    38    1
     6    37    32    1
     7    12     7    1
     8    14    15   ar
     9    14    16   ar
    10    33    31    1
    11     8     6    1
    12    15    17   ar
    13    32    31   ar
    14    32    29   ar
    15     7     6   ar
    16     7     4   ar
    17    31    28   ar
    18     6     3   ar
    19    34    29    1
    20    29    27   ar
    21    16     4    1
    22    16    19   ar
    23     4     2   ar
    24    28    17    1
    25    28    26   ar
    26    17    20   ar
    27     3     9    1
    28     3     1   ar
    29    27    26   ar
    30    27    30    1
    31     2     1   ar
    32     2     5    1
    33    26    35    1
    34     1    10    1
    35    19    20   ar
    36    19    21    1
    37    20    24    1
    38    11    10    1
    39    35    36    1
    40    24    25    1
