@<TRIPOS>MOLECULE
mol_data/opt/cam/geoms/mol2/4gg4gg-4gg4gg-.out
 50 53 0 0 0
SMALL
GASTEIGER

@<TRIPOS>ATOM
      1 C          -0.1982    0.2324   -0.7407 C.ar    1  LIG1        0.0054
      2 C           1.1916    0.2464   -0.7005 C.ar    1  LIG1       -0.0398
      3 C          -0.9005    1.2255   -0.0620 C.ar    1  LIG1       -0.0475
      4 C           1.8883    1.2199    0.0151 C.ar    1  LIG1       -0.0026
      5 H           1.7623   -0.5075   -1.2326 H       1  LIG1        0.0635
      6 C          -0.2199    2.2093    0.6367 C.ar    1  LIG1       -0.0469
      7 C           1.1733    2.2172    0.6921 C.ar    1  LIG1        0.0125
      8 H          -0.7875    2.9740    1.1568 H       1  LIG1        0.0629
      9 H          -1.9854    1.2290   -0.0714 H       1  LIG1        0.0629
     10 S          -1.1211   -0.9801   -1.6599 S.3     1  LIG1       -0.1426
     11 H          -0.1512   -1.9058   -1.7246 H       1  LIG1        0.1071
     12 S           2.0693    3.4570    1.6049 S.3     1  LIG1       -0.1420
     13 H           0.9856    4.0334    2.1488 H       1  LIG1        0.1071
     14 C           4.0942    0.2084    0.7204 C.ar    1  LIG1        0.0131
     15 C           5.4847    0.2200    0.6691 C.ar    1  LIG1       -0.0392
     16 C           3.3798    1.1878    0.0182 C.ar    1  LIG1       -0.0026
     17 C           6.1872    1.1766   -0.0597 C.ar    1  LIG1       -0.0026
     18 H           6.0540   -0.5292    1.2091 H       1  LIG1        0.0635
     19 C           4.0825    2.1439   -0.7109 C.ar    1  LIG1       -0.0392
     20 C           5.4732    2.1558   -0.7623 C.ar    1  LIG1        0.0131
     21 H           3.5135    2.8927   -1.2518 H       1  LIG1        0.0635
     22 S           3.2006   -1.0089    1.6634 S.3     1  LIG1       -0.1420
     23 H           4.2877   -1.6134    2.1682 H       1  LIG1        0.1071
     24 S           6.3667    3.3736   -1.7049 S.3     1  LIG1       -0.1420
     25 H           5.2800    3.9710   -2.2189 H       1  LIG1        0.1071
     26 C           8.3961    0.1508   -0.7346 C.ar    1  LIG1        0.0131
     27 C           9.7864    0.1638   -0.6761 C.ar    1  LIG1       -0.0392
     28 C           7.6784    1.1438   -0.0554 C.ar    1  LIG1       -0.0026
     29 C          10.4854    1.1343    0.0375 C.ar    1  LIG1       -0.0026
     30 H          10.3583   -0.5956   -1.1990 H       1  LIG1        0.0635
     31 C           8.3772    2.1147    0.6578 C.ar    1  LIG1       -0.0392
     32 C           9.7673    2.1275    0.7163 C.ar    1  LIG1        0.0131
     33 H           7.8050    2.8745    1.1798 H       1  LIG1        0.0635
     34 S           7.5075   -1.0856   -1.6574 S.3     1  LIG1       -0.1420
     35 H           8.5969   -1.6930   -2.1536 H       1  LIG1        0.1071
     36 S          10.6560    3.3634    1.6395 S.3     1  LIG1       -0.1420
     37 H           9.5663    3.9777    2.1264 H       1  LIG1        0.1071
     38 C          12.6882    0.1186    0.7434 C.ar    1  LIG1        0.0125
     39 C          14.0817    0.1255    0.6953 C.ar    1  LIG1       -0.0469
     40 C          11.9769    1.1022    0.0429 C.ar    1  LIG1       -0.0026
     41 C          14.7660    1.0952   -0.0193 C.ar    1  LIG1       -0.0475
     42 H          14.6465   -0.6286    1.2335 H       1  LIG1        0.0629
     43 C          12.6774    2.0612   -0.6883 C.ar    1  LIG1       -0.0398
     44 C          14.0674    2.0746   -0.7214 C.ar    1  LIG1        0.0054
     45 H          12.1096    2.8044   -1.2383 H       1  LIG1        0.0635
     46 H          15.8509    1.0915   -0.0230 H       1  LIG1        0.0629
     47 S          11.7874   -1.1027    1.6760 S.3     1  LIG1       -0.1420
     48 H          12.8681   -1.6682    2.2370 H       1  LIG1        0.1071
     49 S          14.9952    3.2686   -1.6597 S.3     1  LIG1       -0.1426
     50 H          14.0257    4.1926   -1.7483 H       1  LIG1        0.1071
@<TRIPOS>BOND
     1    25    24    1
     2    35    34    1
     3    50    49    1
     4    11    10    1
     5    24    20    1
     6    10     1    1
     7    49    44    1
     8    34    26    1
     9    21    19    1
    10    45    43    1
    11     5     2    1
    12    30    27    1
    13    20    19   ar
    14    20    17   ar
    15     1     2   ar
    16     1     3   ar
    17    26    27   ar
    18    26    28   ar
    19    44    43   ar
    20    44    41   ar
    21    19    16   ar
    22     2     4   ar
    23    43    40   ar
    24    27    29   ar
    25     9     3    1
    26     3     6   ar
    27    17    28    1
    28    17    15   ar
    29    28    31   ar
    30    46    41    1
    31    41    39   ar
    32     4    16    1
    33     4     7   ar
    34    16    14   ar
    35    29    40    1
    36    29    32   ar
    37    40    38   ar
    38     6     7   ar
    39     6     8    1
    40    31    32   ar
    41    31    33    1
    42    15    14   ar
    43    15    18    1
    44     7    12    1
    45    39    38   ar
    46    39    42    1
    47    32    36    1
    48    14    22    1
    49    38    47    1
    50    12    13    1
    51    36    37    1
    52    22    23    1
    53    47    48    1
