@<TRIPOS>MOLECULE
mol_data/opt/cam/geoms/mol2/4gg4gg-4gg-.out
 38 40 0 0 0
SMALL
GASTEIGER

@<TRIPOS>ATOM
      1 C          -0.0981    0.1246   -0.5267 C.ar    1  LIG1        0.0054
      2 C           1.2918    0.1408   -0.4906 C.ar    1  LIG1       -0.0398
      3 C          -0.7961    1.2318   -0.0502 C.ar    1  LIG1       -0.0475
      4 C           1.9926    1.2307    0.0253 C.ar    1  LIG1       -0.0026
      5 H           1.8592   -0.7032   -0.8685 H       1  LIG1        0.0635
      6 C          -0.1113    2.3288    0.4469 C.ar    1  LIG1       -0.0469
      7 C           1.2820    2.3418    0.4991 C.ar    1  LIG1        0.0125
      8 H          -0.6754    3.1812    0.8109 H       1  LIG1        0.0629
      9 H          -1.8810    1.2376   -0.0599 H       1  LIG1        0.0629
     10 S          -1.0267   -1.2382   -1.1954 S.3     1  LIG1       -0.1426
     11 H          -0.0558   -2.1595   -1.0945 H       1  LIG1        0.1071
     12 S           2.1844    3.7300    1.1559 S.3     1  LIG1       -0.1420
     13 H           1.1047    4.3999    1.5893 H       1  LIG1        0.1071
     14 C           4.1934    0.3731    0.9220 C.ar    1  LIG1        0.0131
     15 C           5.5841    0.3688    0.8721 C.ar    1  LIG1       -0.0392
     16 C           3.4839    1.1940    0.0359 C.ar    1  LIG1       -0.0026
     17 C           6.2915    1.1562   -0.0329 C.ar    1  LIG1       -0.0026
     18 H           6.1494   -0.2582    1.5537 H       1  LIG1        0.0635
     19 C           4.1913    1.9814   -0.8692 C.ar    1  LIG1       -0.0392
     20 C           5.5820    1.9771   -0.9190 C.ar    1  LIG1        0.0131
     21 H           3.6260    2.6084   -1.5507 H       1  LIG1        0.0635
     22 S           3.2927   -0.6264    2.0879 S.3     1  LIG1       -0.1420
     23 H           4.3760   -1.1176    2.7102 H       1  LIG1        0.1071
     24 S           6.4827    2.9766   -2.0849 S.3     1  LIG1       -0.1420
     25 H           5.3994    3.4678   -2.7072 H       1  LIG1        0.1071
     26 C           8.4934    0.0085   -0.4961 C.ar    1  LIG1        0.0125
     27 C           9.8866    0.0215   -0.4440 C.ar    1  LIG1       -0.0469
     28 C           7.7828    1.1195   -0.0223 C.ar    1  LIG1       -0.0026
     29 C          10.5715    1.1184    0.0531 C.ar    1  LIG1       -0.0475
     30 H          10.4508   -0.8309   -0.8079 H       1  LIG1        0.0629
     31 C           8.4836    2.2094    0.4935 C.ar    1  LIG1       -0.0398
     32 C           9.8735    2.2256    0.5297 C.ar    1  LIG1        0.0054
     33 H           7.9161    3.0535    0.8715 H       1  LIG1        0.0635
     34 H          11.6564    1.1126    0.0629 H       1  LIG1        0.0629
     35 S           7.5910   -1.3798   -1.1530 S.3     1  LIG1       -0.1420
     36 H           8.6707   -2.0497   -1.5864 H       1  LIG1        0.1071
     37 S          10.8021    3.5885    1.1984 S.3     1  LIG1       -0.1426
     38 H           9.8311    4.5097    1.0974 H       1  LIG1        0.1071
@<TRIPOS>BOND
     1    25    24    1
     2    24    20    1
     3    36    35    1
     4    21    19    1
     5    10    11    1
     6    10     1    1
     7    35    26    1
     8    20    19   ar
     9    20    17   ar
    10    19    16   ar
    11     5     2    1
    12    30    27    1
    13     1     2   ar
    14     1     3   ar
    15    26    27   ar
    16    26    28   ar
    17     2     4   ar
    18    27    29   ar
    19     9     3    1
    20     3     6   ar
    21    17    28    1
    22    17    15   ar
    23    28    31   ar
    24     4    16    1
    25     4     7   ar
    26    16    14   ar
    27    29    34    1
    28    29    32   ar
    29     6     7   ar
    30     6     8    1
    31    31    32   ar
    32    31    33    1
    33     7    12    1
    34    32    37    1
    35    15    14   ar
    36    15    18    1
    37    14    22    1
    38    38    37    1
    39    12    13    1
    40    22    23    1
