@<TRIPOS>MOLECULE
mol_data/opt/cam/geoms/mol2/4gg4gg4gg-4gg-.out
 50 53 0 0 0
SMALL
GASTEIGER

@<TRIPOS>ATOM
      1 C          -0.1988    0.2433    0.7579 C.ar    1  LIG1        0.0054
      2 C           1.1911    0.2567    0.7184 C.ar    1  LIG1       -0.0398
      3 C          -0.9005    1.2267    0.0645 C.ar    1  LIG1       -0.0475
      4 C           1.8883    1.2198   -0.0106 C.ar    1  LIG1       -0.0026
      5 H           1.7613   -0.4896    1.2616 H       1  LIG1        0.0635
      6 C          -0.2194    2.2003   -0.6478 C.ar    1  LIG1       -0.0469
      7 C           1.1738    2.2073   -0.7023 C.ar    1  LIG1        0.0125
      8 H          -0.7866    2.9574   -1.1792 H       1  LIG1        0.0629
      9 H          -1.9854    1.2304    0.0732 H       1  LIG1        0.0629
     10 S          -1.1224   -0.9558    1.6938 S.3     1  LIG1       -0.1426
     11 H          -0.1528   -1.8806    1.7722 H       1  LIG1        0.1071
     12 S           2.0705    3.4339   -1.6322 S.3     1  LIG1       -0.1420
     13 H           0.9872    4.0025   -2.1850 H       1  LIG1        0.1071
     14 C           4.0947    0.1983   -0.6999 C.ar    1  LIG1        0.0131
     15 C           5.4851    0.2106   -0.6477 C.ar    1  LIG1       -0.0392
     16 C           3.3798    1.1876   -0.0122 C.ar    1  LIG1       -0.0026
     17 C           6.1871    1.1775    0.0678 C.ar    1  LIG1       -0.0026
     18 H           6.0548   -0.5462   -1.1766 H       1  LIG1        0.0635
     19 C           4.0820    2.1540    0.7036 C.ar    1  LIG1       -0.0392
     20 C           5.4726    2.1666    0.7558 C.ar    1  LIG1        0.0131
     21 H           3.5126    2.9105    1.2334 H       1  LIG1        0.0635
     22 S           3.2017   -1.0324   -1.6260 S.3     1  LIG1       -0.1420
     23 H           4.2891   -1.6440   -2.1213 H       1  LIG1        0.1071
     24 S           6.3655    3.3977    1.6816 S.3     1  LIG1       -0.1420
     25 H           5.2784    4.0024    2.1863 H       1  LIG1        0.1071
     26 C           8.3955    0.1614    0.7590 C.ar    1  LIG1        0.0131
     27 C           9.7859    0.1735    0.7014 C.ar    1  LIG1       -0.0392
     28 C           7.6784    1.1445    0.0652 C.ar    1  LIG1       -0.0026
     29 C          10.4854    1.1337   -0.0255 C.ar    1  LIG1       -0.0026
     30 H          10.3573   -0.5783    1.2356 H       1  LIG1        0.0635
     31 C           8.3777    2.1052   -0.6614 C.ar    1  LIG1       -0.0392
     32 C           9.7679    2.1170   -0.7190 C.ar    1  LIG1        0.0131
     33 H           7.8059    2.8574   -1.1947 H       1  LIG1        0.0635
     34 S           7.5062   -1.0616    1.6988 S.3     1  LIG1       -0.1420
     35 H           8.5952   -1.6618    2.2046 H       1  LIG1        0.1071
     36 S          10.6574    3.3395   -1.6591 S.3     1  LIG1       -0.1420
     37 H           9.5680    3.9469   -2.1556 H       1  LIG1        0.1071
     38 C          12.6888    0.1080   -0.7151 C.ar    1  LIG1        0.0125
     39 C          14.0822    0.1154   -0.6660 C.ar    1  LIG1       -0.0469
     40 C          11.9769    1.1015   -0.0293 C.ar    1  LIG1       -0.0026
     41 C          14.7660    1.0953    0.0352 C.ar    1  LIG1       -0.0475
     42 H          14.6474   -0.6463   -1.1929 H       1  LIG1        0.0629
     43 C          12.6769    2.0708    0.6887 C.ar    1  LIG1       -0.0398
     44 C          14.0669    2.0846    0.7227 C.ar    1  LIG1        0.0054
     45 H          12.1087    2.8218    1.2276 H       1  LIG1        0.0635
     46 H          15.8509    1.0917    0.0398 H       1  LIG1        0.0629
     47 S          11.7886   -1.1266   -1.6309 S.3     1  LIG1       -0.1420
     48 H          12.8698   -1.7001   -2.1827 H       1  LIG1        0.1071
     49 S          14.9940    3.2918    1.6448 S.3     1  LIG1       -0.1426
     50 H          14.0252    4.2180    1.7172 H       1  LIG1        0.1071
@<TRIPOS>BOND
     1    13    12    1
     2    48    47    1
     3    37    36    1
     4    23    22    1
     5    36    32    1
     6    12     7    1
     7    47    38    1
     8    22    14    1
     9    33    31    1
    10    42    39    1
    11     8     6    1
    12    18    15    1
    13    32    31   ar
    14    32    29   ar
    15    38    39   ar
    16    38    40   ar
    17     7     6   ar
    18     7     4   ar
    19    14    15   ar
    20    14    16   ar
    21    39    41   ar
    22    31    28   ar
    23     6     3   ar
    24    15    17   ar
    25    40    29    1
    26    40    43   ar
    27    29    27   ar
    28    16     4    1
    29    16    19   ar
    30     4     2   ar
    31    41    46    1
    32    41    44   ar
    33     3     9    1
    34     3     1   ar
    35    28    17    1
    36    28    26   ar
    37    17    20   ar
    38    43    44   ar
    39    43    45    1
    40    27    26   ar
    41    27    30    1
    42    19    20   ar
    43    19    21    1
    44     2     1   ar
    45     2     5    1
    46    44    49    1
    47    20    24    1
    48     1    10    1
    49    26    34    1
    50    49    50    1
    51    24    25    1
    52    10    11    1
    53    34    35    1
