@<TRIPOS>MOLECULE
mol_data/opt/cam/geoms/mol2/4gg4gg-4gg-4gg-.out
 50 53 0 0 0
SMALL
GASTEIGER

@<TRIPOS>ATOM
      1 C          -0.2047    0.0098    0.0064 C.ar    1  LIG1        0.0054
      2 C           1.1855    0.0385    0.0075 C.ar    1  LIG1       -0.0398
      3 C          -0.9018    1.2159    0.0140 C.ar    1  LIG1       -0.0475
      4 C           1.8876    1.2434    0.0309 C.ar    1  LIG1       -0.0026
      5 H           1.7525   -0.8864   -0.0110 H       1  LIG1        0.0635
      6 C          -0.2160    2.4194    0.0198 C.ar    1  LIG1       -0.0469
      7 C           1.1780    2.4516    0.0356 C.ar    1  LIG1        0.0125
      8 H          -0.7797    3.3465    0.0236 H       1  LIG1        0.0629
      9 H          -1.9868    1.2184    0.0214 H       1  LIG1        0.0629
     10 S          -1.1361   -1.5052   -0.0403 S.3     1  LIG1       -0.1426
     11 H          -0.1390   -2.3185    0.3416 H       1  LIG1        0.1071
     12 S           2.0818    3.9862    0.0665 S.3     1  LIG1       -0.1420
     13 H           1.0055    4.7742    0.2184 H       1  LIG1        0.1071
     14 C           4.1114    0.8087    1.1490 C.ar    1  LIG1        0.0131
     15 C           5.5007    0.7822    1.0753 C.ar    1  LIG1       -0.0392
     16 C           3.3791    1.2124    0.0252 C.ar    1  LIG1       -0.0026
     17 C           6.1848    1.1447   -0.0826 C.ar    1  LIG1       -0.0026
     18 H           6.0834    0.4760    1.9379 H       1  LIG1        0.0635
     19 C           4.0632    1.5748   -1.1325 C.ar    1  LIG1       -0.0392
     20 C           5.4527    1.5486   -1.2067 C.ar    1  LIG1        0.0131
     21 H           3.4802    1.8803   -1.9950 H       1  LIG1        0.0635
     22 S           3.2411    0.3556    2.6345 S.3     1  LIG1       -0.1420
     23 H           4.3401    0.1432    3.3756 H       1  LIG1        0.1071
     24 S           6.3221    1.9997   -2.6930 S.3     1  LIG1       -0.1420
     25 H           5.2221    2.2152   -3.4316 H       1  LIG1        0.1071
     26 C           8.3844   -0.0986   -0.0738 C.ar    1  LIG1        0.0131
     27 C           9.7754   -0.0655   -0.0454 C.ar    1  LIG1       -0.0392
     28 C           7.6758    1.1097   -0.0864 C.ar    1  LIG1       -0.0026
     29 C          10.4845    1.1331   -0.0471 C.ar    1  LIG1       -0.0026
     30 H          10.3391   -0.9923   -0.0235 H       1  LIG1        0.0635
     31 C           8.3846    2.3087   -0.0788 C.ar    1  LIG1       -0.0392
     32 C           9.7757    2.3414   -0.0680 C.ar    1  LIG1        0.0131
     33 H           7.8204    3.2353   -0.0853 H       1  LIG1        0.0635
     34 S           7.4849   -1.6355   -0.0889 S.3     1  LIG1       -0.1420
     35 H           8.5590   -2.4183   -0.2775 H       1  LIG1        0.1071
     36 S          10.6766    3.8773   -0.0763 S.3     1  LIG1       -0.1420
     37 H           9.6063    4.6604   -0.2849 H       1  LIG1        0.1071
     38 C          12.7367    0.6778   -1.0994 C.ar    1  LIG1        0.0125
     39 C          14.1263    0.6481   -0.9907 C.ar    1  LIG1       -0.0469
     40 C          11.9752    1.0995   -0.0003 C.ar    1  LIG1       -0.0026
     41 C          14.7595    1.0445    0.1766 C.ar    1  LIG1       -0.0475
     42 H          14.7290    0.3267   -1.8338 H       1  LIG1        0.0629
     43 C          12.6241    1.4730    1.1760 C.ar    1  LIG1       -0.0398
     44 C          14.0113    1.4604    1.2745 C.ar    1  LIG1        0.0054
     45 H          12.0198    1.7750    2.0251 H       1  LIG1        0.0635
     46 H          15.8431    1.0377    0.2278 H       1  LIG1        0.0629
     47 S          11.9019    0.2037   -2.5990 S.3     1  LIG1       -0.1420
     48 H          13.0181    0.0354   -3.3258 H       1  LIG1        0.1071
     49 S          14.8680    1.9064    2.7713 S.3     1  LIG1       -0.1426
     50 H          13.9450    2.7628    3.2371 H       1  LIG1        0.1071
@<TRIPOS>BOND
     1    25    24    1
     2    48    47    1
     3    24    20    1
     4    47    38    1
     5    21    19    1
     6    42    39    1
     7    20    19   ar
     8    20    17   ar
     9    19    16   ar
    10    38    39   ar
    11    38    40   ar
    12    39    41   ar
    13    37    36    1
    14    35    34    1
    15    34    26    1
    16    28    17    1
    17    28    31   ar
    18    28    26   ar
    19    33    31    1
    20    17    15   ar
    21    31    32   ar
    22    36    32    1
    23    26    27   ar
    24    32    29   ar
    25    29    27   ar
    26    29    40    1
    27    27    30    1
    28    10     1    1
    29    10    11    1
    30     5     2    1
    31    40    43   ar
    32     1     2   ar
    33     1     3   ar
    34     2     4   ar
    35     3     6   ar
    36     3     9    1
    37     6     8    1
    38     6     7   ar
    39    16     4    1
    40    16    14   ar
    41     4     7   ar
    42     7    12    1
    43    12    13    1
    44    41    46    1
    45    41    44   ar
    46    15    14   ar
    47    15    18    1
    48    14    22    1
    49    43    44   ar
    50    43    45    1
    51    44    49    1
    52    22    23    1
    53    49    50    1
