@<TRIPOS>MOLECULE
mol_data/opt/cam/geoms/mol2/4gg4gg4gg-4gg.out
 50 53 0 0 0
SMALL
GASTEIGER

@<TRIPOS>ATOM
      1 C          -0.1996    0.2385    0.7444 C.ar    1  LIG1        0.0054
      2 C           1.1903    0.2525    0.7070 C.ar    1  LIG1       -0.0398
      3 C          -0.9006    1.2241    0.0535 C.ar    1  LIG1       -0.0475
      4 C           1.8883    1.2184   -0.0175 C.ar    1  LIG1       -0.0026
      5 H           1.7600   -0.4955    1.2485 H       1  LIG1        0.0635
      6 C          -0.2188    2.2005   -0.6543 C.ar    1  LIG1       -0.0469
      7 C           1.1745    2.2081   -0.7067 C.ar    1  LIG1        0.0125
      8 H          -0.7854    2.9593   -1.1838 H       1  LIG1        0.0629
      9 H          -1.9855    1.2274    0.0607 H       1  LIG1        0.0629
     10 S          -1.1242   -0.9642    1.6748 S.3     1  LIG1       -0.1426
     11 H          -0.1549   -1.8897    1.7498 H       1  LIG1        0.1071
     12 S           2.0722    3.4382   -1.6310 S.3     1  LIG1       -0.1420
     13 H           0.9895    4.0085   -2.1833 H       1  LIG1        0.1071
     14 C           4.0960    0.1998   -0.7071 C.ar    1  LIG1        0.0131
     15 C           5.4863    0.2124   -0.6529 C.ar    1  LIG1       -0.0392
     16 C           3.3798    1.1867   -0.0171 C.ar    1  LIG1       -0.0026
     17 C           6.1871    1.1771    0.0669 C.ar    1  LIG1       -0.0026
     18 H           6.0571   -0.5425   -1.1835 H       1  LIG1        0.0635
     19 C           4.0808    2.1508    0.7030 C.ar    1  LIG1       -0.0392
     20 C           5.4713    2.1637    0.7572 C.ar    1  LIG1        0.0131
     21 H           3.5104    2.9054    1.2345 H       1  LIG1        0.0635
     22 S           3.2047   -1.0279   -1.6386 S.3     1  LIG1       -0.1420
     23 H           4.2931   -1.6376   -2.1345 H       1  LIG1        0.1071
     24 S           6.3625    3.3920    1.6884 S.3     1  LIG1       -0.1420
     25 H           5.2745    3.9946    2.1935 H       1  LIG1        0.1071
     26 C           8.3948    0.1594    0.7579 C.ar    1  LIG1        0.0131
     27 C           9.7852    0.1722    0.7023 C.ar    1  LIG1       -0.0392
     28 C           7.6783    1.1446    0.0663 C.ar    1  LIG1       -0.0026
     29 C          10.4855    1.1349   -0.0204 C.ar    1  LIG1       -0.0026
     30 H          10.3561   -0.5813    1.2348 H       1  LIG1        0.0635
     31 C           8.3784    2.1079   -0.6561 C.ar    1  LIG1       -0.0392
     32 C           9.7687    2.1203   -0.7117 C.ar    1  LIG1        0.0131
     33 H           7.8071    2.8617   -1.1877 H       1  LIG1        0.0635
     34 S           7.5045   -1.0670    1.6923 S.3     1  LIG1       -0.1420
     35 H           8.5929   -1.6686    2.1976 H       1  LIG1        0.1071
     36 S          10.6591    3.3462   -1.6465 S.3     1  LIG1       -0.1420
     37 H           9.5702    3.9549   -2.1426 H       1  LIG1        0.1071
     38 C          12.6901    0.1120   -0.7101 C.ar    1  LIG1        0.0125
     39 C          14.0835    0.1197   -0.6589 C.ar    1  LIG1       -0.0469
     40 C          11.9770    1.1032   -0.0222 C.ar    1  LIG1       -0.0026
     41 C          14.7660    1.0975    0.0464 C.ar    1  LIG1       -0.0475
     42 H          14.6496   -0.6402   -1.1874 H       1  LIG1        0.0629
     43 C          12.6756    2.0705    0.6998 C.ar    1  LIG1       -0.0398
     44 C          14.0656    2.0845    0.7359 C.ar    1  LIG1        0.0054
     45 H          12.1065    2.8196    1.2402 H       1  LIG1        0.0635
     46 H          15.8509    1.0941    0.0525 H       1  LIG1        0.0629
     47 S          11.7916   -1.1199   -1.6311 S.3     1  LIG1       -0.1420
     48 H          12.8738   -1.6913   -2.1833 H       1  LIG1        0.1071
     49 S          14.9911    3.2891    1.6629 S.3     1  LIG1       -0.1426
     50 H          14.0212    4.2139    1.7388 H       1  LIG1        0.1071
@<TRIPOS>BOND
     1    13    12    1
     2    48    47    1
     3    37    36    1
     4    23    22    1
     5    36    32    1
     6    22    14    1
     7    47    38    1
     8    12     7    1
     9    33    31    1
    10    42    39    1
    11     8     6    1
    12    18    15    1
    13    32    31   ar
    14    32    29   ar
    15    38    39   ar
    16    38    40   ar
    17    14    15   ar
    18    14    16   ar
    19     7     6   ar
    20     7     4   ar
    21    39    41   ar
    22    31    28   ar
    23     6     3   ar
    24    15    17   ar
    25    40    29    1
    26    40    43   ar
    27    29    27   ar
    28     4    16    1
    29     4     2   ar
    30    16    19   ar
    31    41    46    1
    32    41    44   ar
    33     3     9    1
    34     3     1   ar
    35    28    17    1
    36    28    26   ar
    37    17    20   ar
    38    43    44   ar
    39    43    45    1
    40    27    26   ar
    41    27    30    1
    42    19    20   ar
    43    19    21    1
    44     2     1   ar
    45     2     5    1
    46    44    49    1
    47     1    10    1
    48    20    24    1
    49    26    34    1
    50    49    50    1
    51    10    11    1
    52    24    25    1
    53    34    35    1
