@<TRIPOS>MOLECULE
mol_data/opt/cam/geoms/mol2/4gg4gg-4gg-4gg.out
 50 53 0 0 0
SMALL
GASTEIGER

@<TRIPOS>ATOM
      1 C          -0.2047    0.0102    0.0151 C.ar    1  LIG1        0.0054
      2 C           1.1854    0.0388    0.0133 C.ar    1  LIG1       -0.0398
      3 C          -0.9018    1.2163    0.0318 C.ar    1  LIG1       -0.0475
      4 C           1.8877    1.2435    0.0427 C.ar    1  LIG1       -0.0026
      5 H           1.7523   -0.8859   -0.0123 H       1  LIG1        0.0635
      6 C          -0.2158    2.4197    0.0437 C.ar    1  LIG1       -0.0469
      7 C           1.1781    2.4517    0.0566 C.ar    1  LIG1        0.0125
      8 H          -0.7794    3.3468    0.0546 H       1  LIG1        0.0629
      9 H          -1.9868    1.2188    0.0417 H       1  LIG1        0.0629
     10 S          -1.1364   -1.5044   -0.0391 S.3     1  LIG1       -0.1426
     11 H          -0.1384   -2.3201    0.3354 H       1  LIG1        0.1071
     12 S           2.0822    3.9861    0.0952 S.3     1  LIG1       -0.1420
     13 H           1.0062    4.7731    0.2545 H       1  LIG1        0.1071
     14 C           4.1140    0.8016    1.1531 C.ar    1  LIG1        0.0131
     15 C           5.5031    0.7755    1.0761 C.ar    1  LIG1       -0.0392
     16 C           3.3792    1.2124    0.0335 C.ar    1  LIG1       -0.0026
     17 C           6.1846    1.1453   -0.0809 C.ar    1  LIG1       -0.0026
     18 H           6.0877    0.4638    1.9354 H       1  LIG1        0.0635
     19 C           4.0607    1.5822   -1.1234 C.ar    1  LIG1       -0.0392
     20 C           5.4501    1.5563   -1.2008 C.ar    1  LIG1        0.0131
     21 H           3.4758    1.8931   -1.9827 H       1  LIG1        0.0635
     22 S           3.2469    0.3391    2.6376 S.3     1  LIG1       -0.1420
     23 H           4.3475    0.1219    3.3749 H       1  LIG1        0.1071
     24 S           6.3162    2.0168   -2.6861 S.3     1  LIG1       -0.1420
     25 H           5.2145    2.2371   -3.4210 H       1  LIG1        0.1071
     26 C           8.3841   -0.0981   -0.0849 C.ar    1  LIG1        0.0131
     27 C           9.7752   -0.0653   -0.0594 C.ar    1  LIG1       -0.0392
     28 C           7.6756    1.1102   -0.0883 C.ar    1  LIG1       -0.0026
     29 C          10.4844    1.1332   -0.0551 C.ar    1  LIG1       -0.0026
     30 H          10.3388   -0.9922   -0.0446 H       1  LIG1        0.0635
     31 C           8.3845    2.3091   -0.0747 C.ar    1  LIG1       -0.0392
     32 C           9.7756    2.3417   -0.0668 C.ar    1  LIG1        0.0131
     33 H           7.8203    3.2358   -0.0740 H       1  LIG1        0.0635
     34 S           7.4845   -1.6349   -0.1078 S.3     1  LIG1       -0.1420
     35 H           8.5582   -2.4165   -0.3037 H       1  LIG1        0.1071
     36 S          10.6766    3.8775   -0.0673 S.3     1  LIG1       -0.1420
     37 H           9.6059    4.6620   -0.2686 H       1  LIG1        0.1071
     38 C          12.7342    0.6845   -1.1154 C.ar    1  LIG1        0.0125
     39 C          14.1240    0.6540   -1.0100 C.ar    1  LIG1       -0.0469
     40 C          11.9751    1.0993   -0.0118 C.ar    1  LIG1       -0.0026
     41 C          14.7599    1.0429    0.1585 C.ar    1  LIG1       -0.0475
     42 H          14.7248    0.3380   -1.8564 H       1  LIG1        0.0629
     43 C          12.6267    1.4652    1.1653 C.ar    1  LIG1       -0.0398
     44 C          14.0142    1.4519    1.2607 C.ar    1  LIG1        0.0054
     45 H          12.0244    1.7618    2.0177 H       1  LIG1        0.0635
     46 H          15.8436    1.0358    0.2072 H       1  LIG1        0.0629
     47 S          11.8960    0.2200   -2.6161 S.3     1  LIG1       -0.1420
     48 H          13.0106    0.0563   -3.3464 H       1  LIG1        0.1071
     49 S          14.8743    1.8883    2.7583 S.3     1  LIG1       -0.1426
     50 H          13.9520    2.7412    3.2321 H       1  LIG1        0.1071
@<TRIPOS>BOND
     1    25    24    1
     2    48    47    1
     3    24    20    1
     4    47    38    1
     5    21    19    1
     6    42    39    1
     7    20    19   ar
     8    20    17   ar
     9    19    16   ar
    10    38    39   ar
    11    38    40   ar
    12    39    41   ar
    13    35    34    1
    14    37    36    1
    15    34    26    1
    16    28    26   ar
    17    28    17    1
    18    28    31   ar
    19    26    27   ar
    20    17    15   ar
    21    31    33    1
    22    31    32   ar
    23    36    32    1
    24    32    29   ar
    25    27    29   ar
    26    27    30    1
    27    29    40    1
    28    10     1    1
    29    10    11    1
    30     5     2    1
    31    40    43   ar
    32     2     1   ar
    33     2     4   ar
    34     1     3   ar
    35     3     9    1
    36     3     6   ar
    37    16     4    1
    38    16    14   ar
    39     4     7   ar
    40     6     8    1
    41     6     7   ar
    42     7    12    1
    43    12    13    1
    44    41    46    1
    45    41    44   ar
    46    15    14   ar
    47    15    18    1
    48    14    22    1
    49    43    44   ar
    50    43    45    1
    51    44    49    1
    52    22    23    1
    53    49    50    1
