@<TRIPOS>MOLECULE
mol_data/opt/cam/geoms/mol2/4gg4gg4gg4gg-.out
 50 53 0 0 0
SMALL
GASTEIGER

@<TRIPOS>ATOM
      1 C          -0.1462    0.8593    1.2742 C.ar    1  LIG1        0.0054
      2 C           1.2411    0.8492    1.1769 C.ar    1  LIG1       -0.0398
      3 C          -0.8947    1.2581    0.1700 C.ar    1  LIG1       -0.0475
      4 C           1.8900    1.2082   -0.0039 C.ar    1  LIG1       -0.0026
      5 H           1.8455    0.5606    2.0306 H       1  LIG1        0.0635
      6 C          -0.2615    1.6401   -1.0022 C.ar    1  LIG1       -0.0469
      7 C           1.1282    1.6127   -1.1094 C.ar    1  LIG1        0.0125
      8 H          -0.8644    1.9482   -1.8500 H       1  LIG1        0.0629
      9 H          -1.9783    1.2625    0.2203 H       1  LIG1        0.0629
     10 S          -1.0029    0.4317    2.7762 S.3     1  LIG1       -0.1426
     11 H          -0.0781   -0.4160    3.2544 H       1  LIG1        0.1071
     12 S           1.9630    2.0684   -2.6147 S.3     1  LIG1       -0.1420
     13 H           0.8469    2.2237   -3.3446 H       1  LIG1        0.1071
     14 C           4.0929   -0.0284   -0.0528 C.ar    1  LIG1        0.0131
     15 C           5.4839    0.0079   -0.0630 C.ar    1  LIG1       -0.0392
     16 C           3.3808    1.1781   -0.0490 C.ar    1  LIG1       -0.0026
     17 C           6.1894    1.2086   -0.0864 C.ar    1  LIG1       -0.0026
     18 H           6.0506   -0.9172   -0.0563 H       1  LIG1        0.0635
     19 C           4.0866    2.3785   -0.0632 C.ar    1  LIG1       -0.0392
     20 C           5.4776    2.4150   -0.0910 C.ar    1  LIG1        0.0131
     21 H           3.5204    3.3040   -0.0545 H       1  LIG1        0.0635
     22 S           3.1962   -1.5668   -0.0408 S.3     1  LIG1       -0.1420
     23 H           4.2687   -2.3498   -0.2377 H       1  LIG1        0.1071
     24 S           6.3729    3.9540   -0.1265 S.3     1  LIG1       -0.1420
     25 H           5.2968    4.7312   -0.3266 H       1  LIG1        0.1071
     26 C           8.4147    0.7604   -1.1988 C.ar    1  LIG1        0.0131
     27 C           9.8042    0.7390   -1.1231 C.ar    1  LIG1       -0.0392
     28 C           7.6806    1.1777   -0.0809 C.ar    1  LIG1       -0.0026
     29 C          10.4863    1.1192    0.0300 C.ar    1  LIG1       -0.0026
     30 H          10.3888    0.4233   -1.9809 H       1  LIG1        0.0635
     31 C           8.3626    1.5580    1.0724 C.ar    1  LIG1       -0.0392
     32 C           9.7519    1.5363    1.1476 C.ar    1  LIG1        0.0131
     33 H           7.7784    1.8745    1.9302 H       1  LIG1        0.0635
     34 S           7.5478    0.2866   -2.6794 S.3     1  LIG1       -0.1420
     35 H           8.6490    0.0639   -3.4141 H       1  LIG1        0.1071
     36 S          10.6198    2.0122    2.6274 S.3     1  LIG1       -0.1420
     37 H           9.5196    2.2318    3.3646 H       1  LIG1        0.1071
     38 C          12.6908   -0.1137    0.0593 C.ar    1  LIG1        0.0125
     39 C          14.0847   -0.0780    0.0441 C.ar    1  LIG1       -0.0469
     40 C          11.9779    1.0924    0.0374 C.ar    1  LIG1       -0.0026
     41 C          14.7672    1.1273    0.0223 C.ar    1  LIG1       -0.0475
     42 H          14.6509   -1.0034    0.0612 H       1  LIG1        0.0629
     43 C          12.6768    2.2987   -0.0021 C.ar    1  LIG1       -0.0398
     44 C          14.0668    2.3312   -0.0024 C.ar    1  LIG1        0.0054
     45 H          12.1072    3.2217   -0.0338 H       1  LIG1        0.0635
     46 H          15.8522    1.1278    0.0307 H       1  LIG1        0.0629
     47 S          11.7911   -1.6503    0.1106 S.3     1  LIG1       -0.1420
     48 H          12.8695   -2.4331    0.2742 H       1  LIG1        0.1071
     49 S          14.9942    3.8480   -0.0692 S.3     1  LIG1       -0.1426
     50 H          13.9945    4.6637    0.3005 H       1  LIG1        0.1071
@<TRIPOS>BOND
     1    35    34    1
     2    13    12    1
     3    34    26    1
     4    12     7    1
     5    30    27    1
     6     8     6    1
     7    26    27   ar
     8    26    28   ar
     9    27    29   ar
    10     7     6   ar
    11     7     4   ar
    12     6     3   ar
    13    25    24    1
    14    23    22    1
    15    24    20    1
    16    20    17   ar
    17    20    19   ar
    18    17    28    1
    19    17    15   ar
    20    28    31   ar
    21    49    44    1
    22    49    50    1
    23    19    21    1
    24    19    16   ar
    25    15    18    1
    26    15    14   ar
    27    14    16   ar
    28    14    22    1
    29    16     4    1
    30    45    43    1
    31     4     2   ar
    32    44    43   ar
    33    44    41   ar
    34    43    40   ar
    35    41    46    1
    36    41    39   ar
    37    29    40    1
    38    29    32   ar
    39    40    38   ar
    40    39    38   ar
    41    39    42    1
    42    38    47    1
    43    47    48    1
    44     3     9    1
    45     3     1   ar
    46    31    32   ar
    47    31    33    1
    48    32    36    1
    49     2     1   ar
    50     2     5    1
    51     1    10    1
    52    36    37    1
    53    10    11    1
