@<TRIPOS>MOLECULE
mol_data/opt/cam/geoms/mol2/4gg4gg.out
 26 27 0 0 0
SMALL
GASTEIGER

@<TRIPOS>ATOM
      1 C           0.0163    0.2374    0.7835 C.ar    1  LIG1        0.0054
      2 C           1.4059    0.2512    0.7312 C.ar    1  LIG1       -0.0398
      3 C          -0.6917    1.2245    0.1022 C.ar    1  LIG1       -0.0475
      4 C           2.0966    1.2178    0.0009 C.ar    1  LIG1       -0.0026
      5 H           1.9809   -0.4974    1.2662 H       1  LIG1        0.0635
      6 C          -0.0170    2.2021   -0.6110 C.ar    1  LIG1       -0.0469
      7 C           1.3755    2.2093   -0.6783 C.ar    1  LIG1        0.0125
      8 H          -0.5890    2.9623   -1.1328 H       1  LIG1        0.0629
      9 H          -1.7766    1.2283    0.1212 H       1  LIG1        0.0629
     10 S          -0.8984   -0.9666    1.7222 S.3     1  LIG1       -0.1426
     11 H           0.0715   -1.8924    1.7851 H       1  LIG1        0.1071
     12 S           2.2650    3.4403   -1.6089 S.3     1  LIG1       -0.1420
     13 H           1.1773    4.0151   -2.1466 H       1  LIG1        0.1071
     14 C           4.2947    0.2037   -0.7209 C.ar    1  LIG1        0.0125
     15 C           5.6884    0.2102   -0.6831 C.ar    1  LIG1       -0.0469
     16 C           3.5883    1.1872   -0.0151 C.ar    1  LIG1       -0.0026
     17 C           6.3782    1.1799    0.0266 C.ar    1  LIG1       -0.0475
     18 H           6.2491   -0.5438   -1.2257 H       1  LIG1        0.0629
     19 C           4.2945    2.1453    0.7115 C.ar    1  LIG1       -0.0398
     20 C           5.6849    2.1589    0.7342 C.ar    1  LIG1        0.0054
     21 H           3.7311    2.8874    1.2676 H       1  LIG1        0.0635
     22 H           7.4631    1.1764    0.0222 H       1  LIG1        0.0629
     23 S           3.3856   -1.0166   -1.6465 S.3     1  LIG1       -0.1420
     24 H           4.4615   -1.5852   -2.2135 H       1  LIG1        0.1071
     25 S           6.6191    3.3519    1.6679 S.3     1  LIG1       -0.1426
     26 H           5.6559    4.2834    1.7483 H       1  LIG1        0.1071
@<TRIPOS>BOND
     1    24    23    1
     2    13    12    1
     3    23    14    1
     4    12     7    1
     5    18    15    1
     6     8     6    1
     7    14    15   ar
     8    14    16   ar
     9    15    17   ar
    10     7     6   ar
    11     7     4   ar
    12     6     3   ar
    13    16     4    1
    14    16    19   ar
    15     4     2   ar
    16    22    17    1
    17    17    20   ar
    18     3     9    1
    19     3     1   ar
    20    19    20   ar
    21    19    21    1
    22     2     1   ar
    23     2     5    1
    24    20    25    1
    25     1    10    1
    26    25    26    1
    27    10    11    1
