@<TRIPOS>MOLECULE
mol_data/opt/cam/geoms/mol2/4gg4gg4gg.out
 38 40 0 0 0
SMALL
GASTEIGER

@<TRIPOS>ATOM
      1 C          -0.0622    0.8588    1.2229 C.ar    1  LIG1        0.0054
      2 C           1.3259    0.8385    1.1421 C.ar    1  LIG1       -0.0398
      3 C          -0.7940    1.2694    0.1114 C.ar    1  LIG1       -0.0475
      4 C           1.9919    1.2031   -0.0278 C.ar    1  LIG1       -0.0026
      5 H           1.9189    0.5375    1.9995 H       1  LIG1        0.0635
      6 C          -0.1437    1.6526   -1.0505 C.ar    1  LIG1       -0.0469
      7 C           1.2473    1.6186   -1.1402 C.ar    1  LIG1        0.0125
      8 H          -0.7341    1.9699   -1.9038 H       1  LIG1        0.0629
      9 H          -1.8782    1.2841    0.1479 H       1  LIG1        0.0629
     10 S          -0.9450    0.4230    2.7056 S.3     1  LIG1       -0.1426
     11 H           0.0329   -0.3047    3.2676 H       1  LIG1        0.1071
     12 S           2.1038    2.0804   -2.6317 S.3     1  LIG1       -0.1420
     13 H           0.9980    2.2458   -3.3750 H       1  LIG1        0.1071
     14 C           4.1898   -0.0436   -0.0548 C.ar    1  LIG1        0.0131
     15 C           5.5810   -0.0131   -0.0441 C.ar    1  LIG1       -0.0392
     16 C           3.4830    1.1659   -0.0527 C.ar    1  LIG1       -0.0026
     17 C           6.2925    1.1842   -0.0486 C.ar    1  LIG1       -0.0026
     18 H           6.1433   -0.9410   -0.0345 H       1  LIG1        0.0635
     19 C           4.1945    2.3632   -0.0485 C.ar    1  LIG1       -0.0392
     20 C           5.5857    2.3937   -0.0552 C.ar    1  LIG1        0.0131
     21 H           3.6321    3.2910   -0.0424 H       1  LIG1        0.0635
     22 S           3.2868   -1.5784   -0.0663 S.3     1  LIG1       -0.1420
     23 H           4.3591   -2.3636   -0.2559 H       1  LIG1        0.1071
     24 S           6.4887    3.9284   -0.0670 S.3     1  LIG1       -0.1420
     25 H           5.4170    4.7132   -0.2614 H       1  LIG1        0.1071
     26 C           8.5314    0.7293   -1.1285 C.ar    1  LIG1        0.0125
     27 C           9.9222    0.6955   -1.0345 C.ar    1  LIG1       -0.0469
     28 C           7.7835    1.1470   -0.0191 C.ar    1  LIG1       -0.0026
     29 C          10.5690    1.0810    0.1285 C.ar    1  LIG1       -0.0475
     30 H          10.5151    0.3766   -1.8855 H       1  LIG1        0.0629
     31 C           8.4460    1.5139    1.1520 C.ar    1  LIG1       -0.0398
     32 C           9.8339    1.4938    1.2370 C.ar    1  LIG1        0.0054
     33 H           7.8505    1.8166    2.0071 H       1  LIG1        0.0635
     34 H          11.6531    1.0664    0.1682 H       1  LIG1        0.0629
     35 S           7.6794    0.2646   -2.6217 S.3     1  LIG1       -0.1420
     36 H           8.7874    0.0977   -3.3613 H       1  LIG1        0.1071
     37 S          10.7123    1.9325    2.7214 S.3     1  LIG1       -0.1426
     38 H           9.7327    2.6614    3.2791 H       1  LIG1        0.1071
@<TRIPOS>BOND
     1    13    12    1
     2    36    35    1
     3    12     7    1
     4    35    26    1
     5     8     6    1
     6    30    27    1
     7     7     6   ar
     8     7     4   ar
     9    26    27   ar
    10    26    28   ar
    11     6     3   ar
    12    27    29   ar
    13    25    24    1
    14    23    22    1
    15    24    20    1
    16    22    14    1
    17    20    17   ar
    18    20    19   ar
    19    14    16   ar
    20    14    15   ar
    21    16    19   ar
    22    16     4    1
    23    17    15   ar
    24    17    28    1
    25    19    21    1
    26    15    18    1
    27     4     2   ar
    28    28    31   ar
    29     3     9    1
    30     3     1   ar
    31    29    34    1
    32    29    32   ar
    33     2     1   ar
    34     2     5    1
    35    31    32   ar
    36    31    33    1
    37     1    10    1
    38    32    37    1
    39    10    11    1
    40    37    38    1
