@<TRIPOS>MOLECULE
mol_data/opt/cam/geoms/mol2/4gg4gg-4gg4gg.out
 50 53 0 0 0
SMALL
GASTEIGER

@<TRIPOS>ATOM
      1 C          -0.1997    0.2378   -0.7336 C.ar    1  LIG1        0.0054
      2 C           1.1902    0.2512   -0.6953 C.ar    1  LIG1       -0.0398
      3 C          -0.9005    1.2288   -0.0503 C.ar    1  LIG1       -0.0475
      4 C           1.8883    1.2218    0.0228 C.ar    1  LIG1       -0.0026
      5 H           1.7598   -0.5012   -1.2309 H       1  LIG1        0.0635
      6 C          -0.2185    2.2099    0.6509 C.ar    1  LIG1       -0.0469
      7 C           1.1747    2.2169    0.7043 C.ar    1  LIG1        0.0125
      8 H          -0.7851    2.9728    1.1746 H       1  LIG1        0.0629
      9 H          -1.9855    1.2329   -0.0583 H       1  LIG1        0.0629
     10 S          -1.1245   -0.9710   -1.6558 S.3     1  LIG1       -0.1426
     11 H          -0.1549   -1.8965   -1.7258 H       1  LIG1        0.1071
     12 S           2.0725    3.4531    1.6203 S.3     1  LIG1       -0.1420
     13 H           0.9898    4.0280    2.1678 H       1  LIG1        0.1071
     14 C           4.0949    0.2069    0.7213 C.ar    1  LIG1        0.0131
     15 C           5.4853    0.2182    0.6679 C.ar    1  LIG1       -0.0392
     16 C           3.3798    1.1891    0.0236 C.ar    1  LIG1       -0.0026
     17 C           6.1871    1.1771   -0.0584 C.ar    1  LIG1       -0.0026
     18 H           6.0551   -0.5332    1.2044 H       1  LIG1        0.0635
     19 C           4.0819    2.1475   -0.7031 C.ar    1  LIG1       -0.0392
     20 C           5.4724    2.1591   -0.7564 C.ar    1  LIG1        0.0131
     21 H           3.5123    2.8985   -1.2405 H       1  LIG1        0.0635
     22 S           3.2022   -1.0135    1.6612 S.3     1  LIG1       -0.1420
     23 H           4.2898   -1.6201    2.1623 H       1  LIG1        0.1071
     24 S           6.3651    3.3799   -1.6959 S.3     1  LIG1       -0.1420
     25 H           5.2778    3.9796   -2.2061 H       1  LIG1        0.1071
     26 C           8.3946    0.1531   -0.7405 C.ar    1  LIG1        0.0131
     27 C           9.7850    0.1653   -0.6840 C.ar    1  LIG1       -0.0392
     28 C           7.6783    1.1437   -0.0565 C.ar    1  LIG1       -0.0026
     29 C          10.4854    1.1328    0.0322 C.ar    1  LIG1       -0.0026
     30 H          10.3558   -0.5923   -1.2107 H       1  LIG1        0.0635
     31 C           8.3785    2.1116    0.6595 C.ar    1  LIG1       -0.0392
     32 C           9.7687    2.1236    0.7159 C.ar    1  LIG1        0.0131
     33 H           7.8074    2.8696    1.1852 H       1  LIG1        0.0635
     34 S           7.5042   -1.0794   -1.6668 S.3     1  LIG1       -0.1420
     35 H           8.5926   -1.6854   -2.1669 H       1  LIG1        0.1071
     36 S          10.6593    3.3556    1.6426 S.3     1  LIG1       -0.1420
     37 H           9.5705    3.9684    2.1335 H       1  LIG1        0.1071
     38 C          12.6889    0.1135    0.7309 C.ar    1  LIG1        0.0125
     39 C          14.0823    0.1200    0.6808 C.ar    1  LIG1       -0.0469
     40 C          11.9769    1.1001    0.0353 C.ar    1  LIG1       -0.0026
     41 C          14.7659    1.0922   -0.0310 C.ar    1  LIG1       -0.0475
     42 H          14.6476   -0.6364    1.2152 H       1  LIG1        0.0629
     43 C          12.6767    2.0617   -0.6932 C.ar    1  LIG1       -0.0398
     44 C          14.0667    2.0746   -0.7283 C.ar    1  LIG1        0.0054
     45 H          12.1084    2.8072   -1.2395 H       1  LIG1        0.0635
     46 H          15.8509    1.0882   -0.0363 H       1  LIG1        0.0629
     47 S          11.7889   -1.1111    1.6602 S.3     1  LIG1       -0.1420
     48 H          12.8703   -1.6792    2.2173 H       1  LIG1        0.1071
     49 S          14.9936    3.2718   -1.6635 S.3     1  LIG1       -0.1426
     50 H          14.0249    4.1972   -1.7455 H       1  LIG1        0.1071
@<TRIPOS>BOND
     1    25    24    1
     2    35    34    1
     3    50    49    1
     4    11    10    1
     5    24    20    1
     6    34    26    1
     7    49    44    1
     8    10     1    1
     9    21    19    1
    10    45    43    1
    11     5     2    1
    12    30    27    1
    13    20    19   ar
    14    20    17   ar
    15    26    27   ar
    16    26    28   ar
    17     1     2   ar
    18     1     3   ar
    19    44    43   ar
    20    44    41   ar
    21    19    16   ar
    22     2     4   ar
    23    43    40   ar
    24    27    29   ar
    25    17    28    1
    26    17    15   ar
    27     9     3    1
    28    28    31   ar
    29     3     6   ar
    30    46    41    1
    31    41    39   ar
    32     4    16    1
    33     4     7   ar
    34    16    14   ar
    35    29    40    1
    36    29    32   ar
    37    40    38   ar
    38     6     7   ar
    39     6     8    1
    40    31    32   ar
    41    31    33    1
    42    15    14   ar
    43    15    18    1
    44    39    38   ar
    45    39    42    1
    46     7    12    1
    47    32    36    1
    48    14    22    1
    49    38    47    1
    50    12    13    1
    51    36    37    1
    52    47    48    1
    53    22    23    1
