@<TRIPOS>MOLECULE
mol_data/opt/cam/geoms/mol2/4gg4gg-.out
 26 27 0 0 0
SMALL
GASTEIGER

@<TRIPOS>ATOM
      1 C           0.0138    0.2335   -0.7680 C.ar    1  LIG1        0.0054
      2 C           1.4036    0.2478   -0.7210 C.ar    1  LIG1       -0.0398
      3 C          -0.6919    1.2238   -0.0890 C.ar    1  LIG1       -0.0475
      4 C           2.0968    1.2180    0.0021 C.ar    1  LIG1       -0.0026
      5 H           1.9767   -0.5032   -1.2546 H       1  LIG1        0.0635
      6 C          -0.0147    2.2052    0.6167 C.ar    1  LIG1       -0.0469
      7 C           1.3780    2.2128    0.6790 C.ar    1  LIG1        0.0125
      8 H          -0.5849    2.9678    1.1369 H       1  LIG1        0.0629
      9 H          -1.7768    1.2271   -0.1038 H       1  LIG1        0.0629
     10 S          -0.9038   -0.9751   -1.6980 S.3     1  LIG1       -0.1426
     11 H           0.0619   -1.9060   -1.7493 H       1  LIG1        0.1071
     12 S           2.2707    3.4485    1.6003 S.3     1  LIG1       -0.1420
     13 H           1.1849    4.0260    2.1388 H       1  LIG1        0.1071
     14 C           4.2977    0.2077    0.7208 C.ar    1  LIG1        0.0125
     15 C           5.6912    0.2142    0.6779 C.ar    1  LIG1       -0.0469
     16 C           3.5886    1.1877    0.0128 C.ar    1  LIG1       -0.0026
     17 C           6.3783    1.1804   -0.0391 C.ar    1  LIG1       -0.0475
     18 H           6.2539   -0.5371    1.2222 H       1  LIG1        0.0629
     19 C           4.2920    2.1424   -0.7210 C.ar    1  LIG1       -0.0398
     20 C           5.6823    2.1559   -0.7489 C.ar    1  LIG1        0.0054
     21 H           3.7265    2.8818   -1.2785 H       1  LIG1        0.0635
     22 H           7.4633    1.1768   -0.0387 H       1  LIG1        0.0629
     23 S           3.3920   -1.0081    1.6557 S.3     1  LIG1       -0.1420
     24 H           4.4701   -1.5738    2.2216 H       1  LIG1        0.1071
     25 S           6.6131    3.3445   -1.6914 S.3     1  LIG1       -0.1426
     26 H           5.6472    4.2725   -1.7790 H       1  LIG1        0.1071
@<TRIPOS>BOND
     1    26    25    1
     2    11    10    1
     3    10     1    1
     4    25    20    1
     5    21    19    1
     6     5     2    1
     7     1     2   ar
     8     1     3   ar
     9    20    19   ar
    10    20    17   ar
    11    19    16   ar
    12     2     4   ar
    13     9     3    1
    14     3     6   ar
    15    17    22    1
    16    17    15   ar
    17     4    16    1
    18     4     7   ar
    19    16    14   ar
    20     6     7   ar
    21     6     8    1
    22    15    14   ar
    23    15    18    1
    24     7    12    1
    25    14    23    1
    26    12    13    1
    27    23    24    1
