@<TRIPOS>MOLECULE
mol_data/opt/cam/geoms/mol2/4gg4gg-4gg.out
 38 40 0 0 0
SMALL
GASTEIGER

@<TRIPOS>ATOM
      1 C          -0.0989    0.1270   -0.5239 C.ar    1  LIG1        0.0054
      2 C           1.2911    0.1436   -0.4909 C.ar    1  LIG1       -0.0398
      3 C          -0.7962    1.2296   -0.0358 C.ar    1  LIG1       -0.0475
      4 C           1.9926    1.2291    0.0329 C.ar    1  LIG1       -0.0026
      5 H           1.8580   -0.6968   -0.8777 H       1  LIG1        0.0635
      6 C          -0.1107    2.3224    0.4694 C.ar    1  LIG1       -0.0469
      7 C           1.2827    2.3356    0.5183 C.ar    1  LIG1        0.0125
      8 H          -0.6743    3.1713    0.8423 H       1  LIG1        0.0629
      9 H          -1.8812    1.2350   -0.0429 H       1  LIG1        0.0629
     10 S          -1.0285   -1.2303   -1.2024 S.3     1  LIG1       -0.1426
     11 H          -0.0569   -2.1519   -1.1120 H       1  LIG1        0.1071
     12 S           2.1861    3.7184    1.1852 S.3     1  LIG1       -0.1420
     13 H           1.1071    4.3839    1.6272 H       1  LIG1        0.1071
     14 C           4.1960    0.3646    0.9166 C.ar    1  LIG1        0.0131
     15 C           5.5865    0.3614    0.8633 C.ar    1  LIG1       -0.0392
     16 C           3.4840    1.1930    0.0396 C.ar    1  LIG1       -0.0026
     17 C           6.2914    1.1572   -0.0364 C.ar    1  LIG1       -0.0026
     18 H           6.1538   -0.2713    1.5379 H       1  LIG1        0.0635
     19 C           4.1888    1.9888   -0.8602 C.ar    1  LIG1       -0.0392
     20 C           5.5794    1.9856   -0.9135 C.ar    1  LIG1        0.0131
     21 H           3.6216    2.6216   -1.5348 H       1  LIG1        0.0635
     22 S           3.2986   -0.6456    2.0758 S.3     1  LIG1       -0.1420
     23 H           4.3836   -1.1418    2.6910 H       1  LIG1        0.1071
     24 S           6.4768    2.9958   -2.0726 S.3     1  LIG1       -0.1420
     25 H           5.3917    3.4920   -2.6879 H       1  LIG1        0.1071
     26 C           8.4927    0.0146   -0.5151 C.ar    1  LIG1        0.0125
     27 C           9.8860    0.0278   -0.4662 C.ar    1  LIG1       -0.0469
     28 C           7.7828    1.1211   -0.0297 C.ar    1  LIG1       -0.0026
     29 C          10.5716    1.1206    0.0389 C.ar    1  LIG1       -0.0475
     30 H          10.4497   -0.8210   -0.8391 H       1  LIG1        0.0629
     31 C           8.4843    2.2067    0.4941 C.ar    1  LIG1       -0.0398
     32 C           9.8743    2.2232    0.5270 C.ar    1  LIG1        0.0054
     33 H           7.9174    3.0471    0.8809 H       1  LIG1        0.0635
     34 H          11.6565    1.1152    0.0460 H       1  LIG1        0.0629
     35 S           7.5893   -1.3681   -1.1821 S.3     1  LIG1       -0.1420
     36 H           8.6682   -2.0337   -1.6241 H       1  LIG1        0.1071
     37 S          10.8039    3.5805    1.2055 S.3     1  LIG1       -0.1426
     38 H           9.8323    4.5022    1.1151 H       1  LIG1        0.1071
@<TRIPOS>BOND
     1    25    24    1
     2    24    20    1
     3    36    35    1
     4    21    19    1
     5    10    11    1
     6    10     1    1
     7    35    26    1
     8    20    19   ar
     9    20    17   ar
    10     5     2    1
    11    19    16   ar
    12    30    27    1
    13     1     2   ar
    14     1     3   ar
    15    26    27   ar
    16    26    28   ar
    17     2     4   ar
    18    27    29   ar
    19     9     3    1
    20    17    28    1
    21    17    15   ar
    22     3     6   ar
    23    28    31   ar
    24     4    16    1
    25     4     7   ar
    26    29    34    1
    27    29    32   ar
    28    16    14   ar
    29     6     7   ar
    30     6     8    1
    31    31    32   ar
    32    31    33    1
    33     7    12    1
    34    32    37    1
    35    15    14   ar
    36    15    18    1
    37    14    22    1
    38    38    37    1
    39    12    13    1
    40    22    23    1
