@<TRIPOS>MOLECULE
mol_data/opt/cam/geoms/mol2/4gg4gg4gg4gg.out
 50 53 0 0 0
SMALL
GASTEIGER

@<TRIPOS>ATOM
      1 C          -0.1307    1.6225    1.2635 C.ar    1  LIG1        0.0054
      2 C           1.2556    1.5631    1.1694 C.ar    1  LIG1       -0.0398
      3 C          -0.8939    1.3264    0.1372 C.ar    1  LIG1       -0.0475
      4 C           1.8891    1.1966   -0.0175 C.ar    1  LIG1       -0.0026
      5 H           1.8717    1.8072    2.0286 H       1  LIG1        0.0635
      6 C          -0.2763    0.9818   -1.0545 C.ar    1  LIG1       -0.0469
      7 C           1.1126    0.9040   -1.1475 C.ar    1  LIG1        0.0125
      8 H          -0.8908    0.7553   -1.9195 H       1  LIG1        0.0629
      9 H          -1.9771    1.3559    0.1903 H       1  LIG1        0.0629
     10 S          -0.9705    2.1107    2.7558 S.3     1  LIG1       -0.1426
     11 H          -0.0023    1.7484    3.6122 H       1  LIG1        0.1071
     12 S           1.9275    0.4334   -2.6593 S.3     1  LIG1       -0.1420
     13 H           0.8017    0.1606   -3.3382 H       1  LIG1        0.1071
     14 C           4.1044    0.1585    0.6135 C.ar    1  LIG1        0.0131
     15 C           5.4948    0.1896    0.5677 C.ar    1  LIG1       -0.0392
     16 C           3.3797    1.1518   -0.0576 C.ar    1  LIG1       -0.0026
     17 C           6.1878    1.1690   -0.1399 C.ar    1  LIG1       -0.0026
     18 H           6.0709   -0.5656    1.0922 H       1  LIG1        0.0635
     19 C           4.0729    2.1357   -0.7585 C.ar    1  LIG1       -0.0392
     20 C           5.4632    2.1571   -0.8191 C.ar    1  LIG1        0.0131
     21 H           3.4967    2.8998   -1.2695 H       1  LIG1        0.0635
     22 S           3.2251   -1.1060    1.5075 S.3     1  LIG1       -0.1420
     23 H           4.3026   -1.8655    1.7611 H       1  LIG1        0.1071
     24 S           6.3417    3.4069   -1.7334 S.3     1  LIG1       -0.1420
     25 H           5.2525    3.9443   -2.3054 H       1  LIG1        0.1071
     26 C           8.4116    0.1663   -0.8043 C.ar    1  LIG1        0.0131
     27 C           9.8011    0.1875   -0.7274 C.ar    1  LIG1       -0.0392
     28 C           7.6792    1.1529   -0.1313 C.ar    1  LIG1       -0.0026
     29 C          10.4861    1.1698   -0.0163 C.ar    1  LIG1       -0.0026
     30 H          10.3832   -0.5754   -1.2335 H       1  LIG1        0.0635
     31 C           8.3638    2.1306    0.5866 C.ar    1  LIG1       -0.0392
     32 C           9.7536    2.1616    0.6486 C.ar    1  LIG1        0.0131
     33 H           7.7817    2.8846    1.1061 H       1  LIG1        0.0635
     34 S           7.5438   -1.0814   -1.7315 S.3     1  LIG1       -0.1420
     35 H           8.6396   -1.6175   -2.2921 H       1  LIG1        0.1071
     36 S          10.6225    3.4241    1.5556 S.3     1  LIG1       -0.1420
     37 H           9.5420    4.1830    1.7984 H       1  LIG1        0.1071
     38 C          12.7657    1.4200   -1.0792 C.ar    1  LIG1        0.0125
     39 C          14.1534    1.3420   -0.9702 C.ar    1  LIG1       -0.0469
     40 C          11.9761    1.1249    0.0410 C.ar    1  LIG1       -0.0026
     41 C          14.7572    0.9947    0.2278 C.ar    1  LIG1       -0.0475
     42 H          14.7779    1.5704   -1.8276 H       1  LIG1        0.0629
     43 C          12.5958    0.7557    1.2344 C.ar    1  LIG1       -0.0398
     44 C          13.9809    0.6960    1.3445 C.ar    1  LIG1        0.0054
     45 H          11.9697    0.5097    2.0858 H       1  LIG1        0.0635
     46 H          15.8396    0.9650    0.2934 H       1  LIG1        0.0629
     47 S          11.9685    1.8940   -2.5993 S.3     1  LIG1       -0.1420
     48 H          13.1020    2.1683   -3.2644 H       1  LIG1        0.1071
     49 S          14.8033    0.2044    2.8453 S.3     1  LIG1       -0.1426
     50 H          13.8251    0.5646    3.6912 H       1  LIG1        0.1071
@<TRIPOS>BOND
     1    13    12    1
     2    48    47    1
     3    12     7    1
     4    47    38    1
     5    25    24    1
     6    35    34    1
     7     8     6    1
     8    42    39    1
     9    24    20    1
    10    34    26    1
    11    21    19    1
    12    30    27    1
    13     7     6   ar
    14     7     4   ar
    15    38    39   ar
    16    38    40   ar
    17     6     3   ar
    18    39    41   ar
    19    20    19   ar
    20    20    17   ar
    21    26    27   ar
    22    26    28   ar
    23    19    16   ar
    24    27    29   ar
    25    17    28    1
    26    17    15   ar
    27    28    31   ar
    28    16     4    1
    29    16    14   ar
    30     4     2   ar
    31    29    40    1
    32    29    32   ar
    33    40    43   ar
    34     3     9    1
    35     3     1   ar
    36    41    46    1
    37    41    44   ar
    38    15    14   ar
    39    15    18    1
    40    31    32   ar
    41    31    33    1
    42    14    22    1
    43    32    36    1
    44     2     1   ar
    45     2     5    1
    46    43    44   ar
    47    43    45    1
    48     1    10    1
    49    44    49    1
    50    22    23    1
    51    36    37    1
    52    10    11    1
    53    49    50    1
