@<TRIPOS>MOLECULE
mol_data/opt/cam/geoms/mol2/4gh.out
 15 15 0 0 0
SMALL
GASTEIGER

@<TRIPOS>ATOM
      1 C           0.2222   -0.0226   -0.1744 C.ar    1  LIG1        0.0049
      2 C           1.6132    0.0448   -0.2353 C.ar    1  LIG1       -0.0468
      3 C          -0.4997    1.1650   -0.0666 C.ar    1  LIG1       -0.0468
      4 C           2.2690    1.2637   -0.1725 C.ar    1  LIG1       -0.0400
      5 H           2.1870   -0.8701   -0.3357 H       1  LIG1        0.0629
      6 C           0.1489    2.3876   -0.0030 C.ar    1  LIG1       -0.0400
      7 C           1.5461    2.4563   -0.0534 C.ar    1  LIG1        0.0246
      8 H          -0.4289    3.3029    0.0875 H       1  LIG1        0.0636
      9 H           3.3539    1.2974   -0.2150 H       1  LIG1        0.0636
     10 H          -1.5832    1.1287   -0.0345 H       1  LIG1        0.0629
     11 S          -0.6222   -1.5955   -0.3061 S.3     1  LIG1       -0.1426
     12 H          -0.6761   -1.8944    1.0057 H       1  LIG1        0.1071
     13 N           2.2006    3.6746    0.0569 N.pl3   1  LIG1       -0.3580
     14 H           3.1407    3.7041   -0.3073 H       1  LIG1        0.1423
     15 H           1.6601    4.4891   -0.1916 H       1  LIG1        0.1423
@<TRIPOS>BOND
     1     5     2    1
     2    14    13    1
     3    11     1    1
     4    11    12    1
     5     2     1   ar
     6     2     4   ar
     7     9     4    1
     8    15    13    1
     9     1     3   ar
    10     4     7   ar
    11     3    10    1
    12     3     6   ar
    13     7     6   ar
    14     7    13    1
    15     6     8    1
