@<TRIPOS>MOLECULE
mol_data/opt/cam/geoms/mol2/4gh4gh.out
 28 29 0 0 0
SMALL
GASTEIGER

@<TRIPOS>ATOM
      1 C           0.1176    0.5704    1.1325 C.ar    1  LIG1        0.0054
      2 C           1.5052    0.5867    1.0246 C.ar    1  LIG1       -0.0390
      3 C          -0.6336    1.2666    0.1874 C.ar    1  LIG1       -0.0468
      4 C           2.1516    1.2576   -0.0100 C.ar    1  LIG1        0.0049
      5 H           2.1045    0.0586    1.7586 H       1  LIG1        0.0635
      6 C          -0.0100    1.9481   -0.8429 C.ar    1  LIG1       -0.0394
      7 C           1.3848    1.9591   -0.9620 C.ar    1  LIG1        0.0325
      8 H          -0.6058    2.4951   -1.5679 H       1  LIG1        0.0636
      9 H          -1.7155    1.2734    0.2631 H       1  LIG1        0.0629
     10 S          -0.6827   -0.2689    2.4957 S.3     1  LIG1       -0.1426
     11 H          -0.7720   -1.4926    1.9415 H       1  LIG1        0.1071
     12 N           1.9934    2.7009   -1.9606 N.pl3   1  LIG1       -0.3575
     13 H           2.9348    2.4219   -2.1953 H       1  LIG1        0.1423
     14 H           1.4244    2.8712   -2.7761 H       1  LIG1        0.1423
     15 C           4.3470    0.4810   -0.9987 C.ar    1  LIG1        0.0126
     16 C           5.7402    0.5261   -1.0024 C.ar    1  LIG1       -0.0462
     17 C           3.6430    1.2633   -0.0718 C.ar    1  LIG1       -0.0012
     18 C           6.4338    1.3264   -0.1102 C.ar    1  LIG1       -0.0400
     19 H           6.3001   -0.0801   -1.7076 H       1  LIG1        0.0629
     20 C           4.3532    2.0584    0.8248 C.ar    1  LIG1       -0.0322
     21 C           5.7485    2.1060    0.8257 C.ar    1  LIG1        0.0252
     22 H           3.7951    2.6587    1.5372 H       1  LIG1        0.0642
     23 H           7.5195    1.3395   -0.1316 H       1  LIG1        0.0636
     24 S           3.4286   -0.5739   -2.1118 S.3     1  LIG1       -0.1420
     25 H           4.4858   -0.9501   -2.8491 H       1  LIG1        0.1071
     26 N           6.4362    2.8696    1.7629 N.pl3   1  LIG1       -0.3579
     27 H           7.3710    3.1426    1.4993 H       1  LIG1        0.1423
     28 H           5.9139    3.6326    2.1670 H       1  LIG1        0.1423
@<TRIPOS>BOND
     1    25    24    1
     2    14    12    1
     3    13    12    1
     4    24    15    1
     5    12     7    1
     6    19    16    1
     7     8     6    1
     8    16    15   ar
     9    16    18   ar
    10    15    17   ar
    11     7     6   ar
    12     7     4   ar
    13     6     3   ar
    14    23    18    1
    15    18    21   ar
    16    17     4    1
    17    17    20   ar
    18     4     2   ar
    19     3     9    1
    20     3     1   ar
    21    20    21   ar
    22    20    22    1
    23    21    26    1
    24     2     1   ar
    25     2     5    1
    26     1    10    1
    27    27    26    1
    28    26    28    1
    29    11    10    1
