@<TRIPOS>MOLECULE
mol_data/opt/cam/geoms/mol2/4gh4gh-4gh-.out
 41 43 0 0 0
SMALL
GASTEIGER

@<TRIPOS>ATOM
      1 C          -0.0062    1.6728    1.2747 C.ar    1  LIG1        0.0054
      2 C           1.3826    1.6396    1.1869 C.ar    1  LIG1       -0.0390
      3 C          -0.7542    1.3497    0.1442 C.ar    1  LIG1       -0.0468
      4 C           2.0333    1.2722    0.0125 C.ar    1  LIG1        0.0049
      5 H           1.9792    1.8981    2.0553 H       1  LIG1        0.0635
      6 C          -0.1266    0.9906   -1.0356 C.ar    1  LIG1       -0.0394
      7 C           1.2699    0.9455   -1.1266 C.ar    1  LIG1        0.0325
      8 H          -0.7205    0.7501   -1.9126 H       1  LIG1        0.0636
      9 H          -1.8373    1.3819    0.1919 H       1  LIG1        0.0629
     10 S          -0.8126    2.1844    2.7883 S.3     1  LIG1       -0.1426
     11 H          -0.8877    0.9786    3.3829 H       1  LIG1        0.1071
     12 N           1.8815    0.6476   -2.3311 N.pl3   1  LIG1       -0.3575
     13 H           2.8395    0.3357   -2.2700 H       1  LIG1        0.1423
     14 H           1.3302    0.0989   -2.9732 H       1  LIG1        0.1423
     15 C           4.2607    0.0728    0.0041 C.ar    1  LIG1        0.0132
     16 C           5.6502    0.1343   -0.0449 C.ar    1  LIG1       -0.0385
     17 C           3.5247    1.2655   -0.0407 C.ar    1  LIG1       -0.0012
     18 C           6.3326    1.3427   -0.1451 C.ar    1  LIG1        0.0049
     19 H           6.2363   -0.7785   -0.0042 H       1  LIG1        0.0635
     20 C           4.2079    2.4743   -0.1255 C.ar    1  LIG1       -0.0316
     21 C           5.6018    2.5443   -0.1767 C.ar    1  LIG1        0.0330
     22 H           3.6300    3.3932   -0.1532 H       1  LIG1        0.0642
     23 S           3.3873   -1.4784    0.1637 S.3     1  LIG1       -0.1420
     24 H           4.4556   -2.2614   -0.0563 H       1  LIG1        0.1071
     25 N           6.2432    3.7755   -0.1988 N.pl3   1  LIG1       -0.3575
     26 H           7.1790    3.7622   -0.5779 H       1  LIG1        0.1423
     27 H           5.6910    4.5322   -0.5744 H       1  LIG1        0.1423
     28 C           8.5381    1.5578   -1.3620 C.ar    1  LIG1        0.0126
     29 C           9.9315    1.5437   -1.3258 C.ar    1  LIG1       -0.0462
     30 C           7.8247    1.3467   -0.1735 C.ar    1  LIG1       -0.0012
     31 C          10.6152    1.3270   -0.1413 C.ar    1  LIG1       -0.0400
     32 H          10.4989    1.6973   -2.2384 H       1  LIG1        0.0629
     33 C           8.5243    1.1235    1.0101 C.ar    1  LIG1       -0.0322
     34 C           9.9197    1.1088    1.0512 C.ar    1  LIG1        0.0252
     35 H           7.9582    0.9636    1.9229 H       1  LIG1        0.0642
     36 H          11.7012    1.3176   -0.1416 H       1  LIG1        0.0636
     37 S           7.6290    1.7997   -2.8816 S.3     1  LIG1       -0.1420
     38 H           8.6980    2.1007   -3.6361 H       1  LIG1        0.1071
     39 N          10.5959    0.8357    2.2355 N.pl3   1  LIG1       -0.3579
     40 H          11.5428    1.1809    2.2838 H       1  LIG1        0.1423
     41 H          10.0781    1.0211    3.0816 H       1  LIG1        0.1423
@<TRIPOS>BOND
     1    38    37    1
     2    14    12    1
     3    37    28    1
     4    12    13    1
     5    12     7    1
     6    32    29    1
     7     8     6    1
     8    28    29   ar
     9    28    30   ar
    10    29    31   ar
    11     7     6   ar
    12     7     4   ar
    13     6     3   ar
    14    26    25    1
    15    27    25    1
    16    25    21    1
    17    21    18   ar
    18    21    20   ar
    19    30    18    1
    20    30    33   ar
    21    22    20    1
    22    18    16   ar
    23    36    31    1
    24    31    34   ar
    25    20    17   ar
    26    24    23    1
    27    16    19    1
    28    16    15   ar
    29    17    15   ar
    30    17     4    1
    31    15    23    1
    32     4     2   ar
    33     3     9    1
    34     3     1   ar
    35    33    34   ar
    36    33    35    1
    37    34    39    1
    38     2     1   ar
    39     2     5    1
    40     1    10    1
    41    39    40    1
    42    39    41    1
    43    10    11    1
