@<TRIPOS>MOLECULE
mol_data/opt/cam/geoms/mol2/4gh4gh4gh-.out
 41 43 0 0 0
SMALL
GASTEIGER

@<TRIPOS>ATOM
      1 C           0.0122    1.4560    1.3935 C.ar    1  LIG1        0.0054
      2 C           1.3989    1.4048    1.2843 C.ar    1  LIG1       -0.0390
      3 C          -0.7513    1.4029    0.2289 C.ar    1  LIG1       -0.0468
      4 C           2.0320    1.2803    0.0509 C.ar    1  LIG1        0.0049
      5 H           2.0077    1.4553    2.1807 H       1  LIG1        0.0635
      6 C          -0.1409    1.2889   -1.0077 C.ar    1  LIG1       -0.0394
      7 C           1.2532    1.2270   -1.1229 C.ar    1  LIG1        0.0325
      8 H          -0.7465    1.2583   -1.9089 H       1  LIG1        0.0636
      9 H          -1.8327    1.4530    0.2951 H       1  LIG1        0.0629
     10 S          -0.7709    1.6544    2.9906 S.3     1  LIG1       -0.1426
     11 H          -0.8658    0.3526    3.3212 H       1  LIG1        0.1071
     12 N           1.8488    1.1800   -2.3707 N.pl3   1  LIG1       -0.3575
     13 H           2.7963    0.8322   -2.3903 H       1  LIG1        0.1423
     14 H           1.2768    0.7988   -3.1088 H       1  LIG1        0.1423
     15 C           4.2276    0.0590   -0.2535 C.ar    1  LIG1        0.0132
     16 C           5.6178    0.0959   -0.3025 C.ar    1  LIG1       -0.0385
     17 C           3.5223    1.2478   -0.0191 C.ar    1  LIG1       -0.0012
     18 C           6.3321    1.2783   -0.1326 C.ar    1  LIG1        0.0049
     19 H           6.1781   -0.8187   -0.4685 H       1  LIG1        0.0635
     20 C           4.2368    2.4276    0.1632 C.ar    1  LIG1       -0.0316
     21 C           5.6310    2.4727    0.1117 C.ar    1  LIG1        0.0330
     22 H           3.6825    3.3442    0.3418 H       1  LIG1        0.0642
     23 S           3.3168   -1.4677   -0.4343 S.3     1  LIG1       -0.1420
     24 H           4.3598   -2.2007   -0.8553 H       1  LIG1        0.1071
     25 N           6.3024    3.6699    0.3372 N.pl3   1  LIG1       -0.3575
     26 H           7.2371    3.7127   -0.0421 H       1  LIG1        0.1423
     27 H           5.7639    4.5005    0.1402 H       1  LIG1        0.1423
     28 C           8.5107    0.9812   -1.3787 C.ar    1  LIG1        0.0126
     29 C           9.9046    0.9578   -1.3605 C.ar    1  LIG1       -0.0462
     30 C           7.8222    1.2616   -0.1901 C.ar    1  LIG1       -0.0012
     31 C          10.6132    1.2191   -0.2000 C.ar    1  LIG1       -0.0400
     32 H          10.4537    0.7360   -2.2702 H       1  LIG1        0.0629
     33 C           8.5476    1.5276    0.9713 C.ar    1  LIG1       -0.0322
     34 C           9.9429    1.5116    0.9911 C.ar    1  LIG1        0.0252
     35 H           8.0007    1.7463    1.8836 H       1  LIG1        0.0642
     36 H          11.6988    1.1911   -0.2153 H       1  LIG1        0.0636
     37 S           7.5851    0.6804   -2.8782 S.3     1  LIG1       -0.1420
     38 H           8.6507    0.6778   -3.6953 H       1  LIG1        0.1071
     39 N          10.6429    1.7241    2.1741 N.pl3   1  LIG1       -0.3579
     40 H          11.5922    2.0481    2.0661 H       1  LIG1        0.1423
     41 H          10.1428    2.2314    2.8887 H       1  LIG1        0.1423
@<TRIPOS>BOND
     1    38    37    1
     2    14    12    1
     3    37    28    1
     4    13    12    1
     5    12     7    1
     6    32    29    1
     7     8     6    1
     8    28    29   ar
     9    28    30   ar
    10    29    31   ar
    11     7     6   ar
    12     7     4   ar
    13     6     3   ar
    14    24    23    1
    15    19    16    1
    16    23    15    1
    17    16    15   ar
    18    16    18   ar
    19    15    17   ar
    20    36    31    1
    21    31    34   ar
    22    30    18    1
    23    30    33   ar
    24    18    21   ar
    25    26    25    1
    26    17     4    1
    27    17    20   ar
    28     4     2   ar
    29    21    20   ar
    30    21    25    1
    31    27    25    1
    32    20    22    1
    33     3     9    1
    34     3     1   ar
    35    33    34   ar
    36    33    35    1
    37    34    39    1
    38     2     1   ar
    39     2     5    1
    40     1    10    1
    41    40    39    1
    42    39    41    1
    43    10    11    1
