@<TRIPOS>MOLECULE
mol_data/opt/cam/geoms/mol2/4gh4gh-.out
 28 29 0 0 0
SMALL
GASTEIGER

@<TRIPOS>ATOM
      1 C           0.1494    0.5509    1.1940 C.ar    1  LIG1        0.0054
      2 C           1.5337    0.5685    1.0497 C.ar    1  LIG1       -0.0390
      3 C          -0.6259    1.2634    0.2811 C.ar    1  LIG1       -0.0468
      4 C           2.1531    1.2565    0.0100 C.ar    1  LIG1        0.0049
      5 H           2.1516    0.0277    1.7586 H       1  LIG1        0.0635
      6 C          -0.0292    1.9621   -0.7536 C.ar    1  LIG1       -0.0394
      7 C           1.3620    1.9746   -0.9094 C.ar    1  LIG1        0.0325
      8 H          -0.6435    2.5216   -1.4531 H       1  LIG1        0.0636
      9 H          -1.7054    1.2694    0.3855 H       1  LIG1        0.0629
     10 S          -0.6153   -0.3111    2.5634 S.3     1  LIG1       -0.1426
     11 H          -0.7203   -1.5252    1.9910 H       1  LIG1        0.1071
     12 N           1.9446    2.7330   -1.9109 N.pl3   1  LIG1       -0.3575
     13 H           2.8792    2.4576   -2.1751 H       1  LIG1        0.1423
     14 H           1.3545    2.9173   -2.7081 H       1  LIG1        0.1423
     15 C           4.3209    0.4960   -1.0496 C.ar    1  LIG1        0.0126
     16 C           5.7136    0.5405   -1.0893 C.ar    1  LIG1       -0.0462
     17 C           3.6423    1.2627   -0.0911 C.ar    1  LIG1       -0.0012
     18 C           6.4312    1.3252   -0.2022 C.ar    1  LIG1       -0.0400
     19 H           6.2541   -0.0538   -1.8193 H       1  LIG1        0.0629
     20 C           4.3767    2.0421    0.7998 C.ar    1  LIG1       -0.0322
     21 C           5.7715    2.0890    0.7646 C.ar    1  LIG1        0.0252
     22 H           3.8382    2.6303    1.5368 H       1  LIG1        0.0642
     23 H           7.5160    1.3382   -0.2521 H       1  LIG1        0.0636
     24 S           3.3725   -0.5394   -2.1557 S.3     1  LIG1       -0.1420
     25 H           4.4094   -0.9034   -2.9271 H       1  LIG1        0.1071
     26 N           6.4844    2.8362    1.6961 N.pl3   1  LIG1       -0.3579
     27 H           7.4122    3.1133    1.4126 H       1  LIG1        0.1423
     28 H           5.9737    3.5924    2.1269 H       1  LIG1        0.1423
@<TRIPOS>BOND
     1    25    24    1
     2    14    12    1
     3    13    12    1
     4    24    15    1
     5    12     7    1
     6    19    16    1
     7     8     6    1
     8    16    15   ar
     9    16    18   ar
    10    15    17   ar
    11     7     6   ar
    12     7     4   ar
    13     6     3   ar
    14    23    18    1
    15    18    21   ar
    16    17     4    1
    17    17    20   ar
    18     4     2   ar
    19     3     9    1
    20     3     1   ar
    21    21    20   ar
    22    21    26    1
    23    20    22    1
    24     2     1   ar
    25     2     5    1
    26     1    10    1
    27    27    26    1
    28    26    28    1
    29    11    10    1
