@<TRIPOS>MOLECULE
mol_data/opt/cam/geoms/mol2/4gh4gh-4gh-4gh-.out
 54 57 0 0 0
SMALL
GASTEIGER

@<TRIPOS>ATOM
      1 C          -0.1105    2.1559    1.0900 C.ar    1  LIG1        0.0054
      2 C           1.2777    2.0851    1.0144 C.ar    1  LIG1       -0.0390
      3 C          -0.8667    1.4219    0.1782 C.ar    1  LIG1       -0.0468
      4 C           1.9197    1.2871    0.0720 C.ar    1  LIG1        0.0049
      5 H           1.8807    2.6585    1.7105 H       1  LIG1        0.0635
      6 C          -0.2476    0.6302   -0.7729 C.ar    1  LIG1       -0.0394
      7 C           1.1481    0.5469   -0.8467 C.ar    1  LIG1        0.0325
      8 H          -0.8479    0.0703   -1.4842 H       1  LIG1        0.0636
      9 H          -1.9494    1.4746    0.2158 H       1  LIG1        0.0629
     10 S          -0.9063    3.2196    2.2894 S.3     1  LIG1       -0.1426
     11 H          -0.9664    2.3456    3.3119 H       1  LIG1        0.1071
     12 N           1.7514   -0.1978   -1.8442 N.pl3   1  LIG1       -0.3575
     13 H           2.7080   -0.4691   -1.6699 H       1  LIG1        0.1423
     14 H           1.1936   -0.9487   -2.2215 H       1  LIG1        0.1423
     15 C           4.1460    0.1673    0.5100 C.ar    1  LIG1        0.0132
     16 C           5.5351    0.2009    0.4352 C.ar    1  LIG1       -0.0385
     17 C           3.4106    1.2544    0.0173 C.ar    1  LIG1       -0.0012
     18 C           6.2196    1.2771   -0.1217 C.ar    1  LIG1        0.0049
     19 H           6.1179   -0.6263    0.8280 H       1  LIG1        0.0635
     20 C           4.0952    2.3358   -0.5285 C.ar    1  LIG1       -0.0316
     21 C           5.4882    2.3743   -0.6117 C.ar    1  LIG1        0.0330
     22 H           3.5178    3.1722   -0.9111 H       1  LIG1        0.0642
     23 S           3.2740   -1.2004    1.2604 S.3     1  LIG1       -0.1420
     24 H           4.3306   -2.0273    1.3092 H       1  LIG1        0.1071
     25 N           6.1283    3.4930   -1.1334 N.pl3   1  LIG1       -0.3575
     26 H           7.0637    3.3300   -1.4773 H       1  LIG1        0.1423
     27 H           5.5698    4.0419   -1.7701 H       1  LIG1        0.1423
     28 C           8.4159    0.3505   -0.9668 C.ar    1  LIG1        0.0132
     29 C           9.8075    0.3806   -0.9512 C.ar    1  LIG1       -0.0385
     30 C           7.7091    1.2650   -0.1742 C.ar    1  LIG1       -0.0012
     31 C          10.5210    1.3011   -0.1897 C.ar    1  LIG1        0.0049
     32 H          10.3699   -0.3279   -1.5509 H       1  LIG1        0.0635
     33 C           8.4229    2.1860    0.5901 C.ar    1  LIG1       -0.0316
     34 C           9.8174    2.2274    0.6010 C.ar    1  LIG1        0.0330
     35 H           7.8669    2.8940    1.1975 H       1  LIG1        0.0642
     36 S           7.5191   -0.8168   -1.9807 S.3     1  LIG1       -0.1420
     37 H           8.5832   -1.2191   -2.6938 H       1  LIG1        0.1071
     38 N          10.4864    3.1350    1.4156 N.pl3   1  LIG1       -0.3575
     39 H          11.4328    3.3454    1.1339 H       1  LIG1        0.1423
     40 H           9.9573    3.9605    1.6547 H       1  LIG1        0.1423
     41 C          12.7371    1.6396   -1.3564 C.ar    1  LIG1        0.0126
     42 C          14.1296    1.5837   -1.3167 C.ar    1  LIG1       -0.0462
     43 C          12.0122    1.2874   -0.2093 C.ar    1  LIG1       -0.0012
     44 C          14.8017    1.2030   -0.1676 C.ar    1  LIG1       -0.0400
     45 H          14.7067    1.8461   -2.1978 H       1  LIG1        0.0629
     46 C          12.7008    0.9104    0.9437 C.ar    1  LIG1       -0.0322
     47 C          14.0947    0.8600    0.9884 C.ar    1  LIG1        0.0252
     48 H          12.1258    0.6438    1.8255 H       1  LIG1        0.0642
     49 H          15.8871    1.1660   -0.1672 H       1  LIG1        0.0636
     50 S          11.8578    2.1609   -2.8229 S.3     1  LIG1       -0.1420
     51 H          12.9483    2.5555   -3.4999 H       1  LIG1        0.1071
     52 N          14.7575    0.4263    2.1318 N.pl3   1  LIG1       -0.3579
     53 H          15.7118    0.7395    2.2270 H       1  LIG1        0.1423
     54 H          14.2378    0.5100    2.9925 H       1  LIG1        0.1423
@<TRIPOS>BOND
     1    51    50    1
     2    50    41    1
     3    37    36    1
     4    14    12    1
     5    45    42    1
     6    36    28    1
     7    12    13    1
     8    12     7    1
     9    27    25    1
    10    32    29    1
    11     8     6    1
    12    26    25    1
    13    41    42   ar
    14    41    43   ar
    15    42    44   ar
    16    25    21    1
    17    28    29   ar
    18    28    30   ar
    19    29    31   ar
    20    22    20    1
    21     7     6   ar
    22     7     4   ar
    23     6     3   ar
    24    21    20   ar
    25    21    18   ar
    26    20    17   ar
    27    43    31    1
    28    43    46   ar
    29    31    34   ar
    30    30    18    1
    31    30    33   ar
    32    44    49    1
    33    44    47   ar
    34    18    16   ar
    35    17     4    1
    36    17    15   ar
    37     4     2   ar
    38     3     9    1
    39     3     1   ar
    40    16    15   ar
    41    16    19    1
    42    15    23    1
    43    33    34   ar
    44    33    35    1
    45    34    38    1
    46    46    47   ar
    47    46    48    1
    48    47    52    1
    49     2     1   ar
    50     2     5    1
    51     1    10    1
    52    39    38    1
    53    23    24    1
    54    38    40    1
    55    52    53    1
    56    52    54    1
    57    10    11    1
