@<TRIPOS>MOLECULE
mol_data/opt/cam/geoms/mol2/4gh4gh4gh-4gh.out
 54 57 0 0 0
SMALL
GASTEIGER

@<TRIPOS>ATOM
      1 C          -0.1067    2.1929    1.0872 C.ar    1  LIG1        0.0054
      2 C           1.2811    2.1129    1.0140 C.ar    1  LIG1       -0.0390
      3 C          -0.8660    1.4777    0.1630 C.ar    1  LIG1       -0.0468
      4 C           1.9197    1.3238    0.0617 C.ar    1  LIG1        0.0049
      5 H           1.8865    2.6717    1.7197 H       1  LIG1        0.0635
      6 C          -0.2502    0.6952   -0.7979 C.ar    1  LIG1       -0.0394
      7 C           1.1450    0.6026   -0.8695 C.ar    1  LIG1        0.0325
      8 H          -0.8528    0.1500   -1.5187 H       1  LIG1        0.0636
      9 H          -1.9483    1.5378    0.1987 H       1  LIG1        0.0629
     10 S          -0.8977    3.2449    2.2998 S.3     1  LIG1       -0.1426
     11 H          -0.9669    2.3568    3.3095 H       1  LIG1        0.1071
     12 N           1.7453   -0.1320   -1.8762 N.pl3   1  LIG1       -0.3575
     13 H           2.6995   -0.4128   -1.7034 H       1  LIG1        0.1423
     14 H           1.1831   -0.8732   -2.2656 H       1  LIG1        0.1423
     15 C           4.1365    0.1815    0.4889 C.ar    1  LIG1        0.0132
     16 C           5.5261    0.2058    0.4180 C.ar    1  LIG1       -0.0385
     17 C           3.4104    1.2809    0.0102 C.ar    1  LIG1       -0.0012
     18 C           6.2198    1.2850   -0.1216 C.ar    1  LIG1        0.0049
     19 H           6.1018   -0.6311    0.8002 H       1  LIG1        0.0635
     20 C           4.1044    2.3650   -0.5183 C.ar    1  LIG1       -0.0316
     21 C           5.4977    2.3944   -0.5975 C.ar    1  LIG1        0.0330
     22 H           3.5341    3.2111   -0.8902 H       1  LIG1        0.0642
     23 S           3.2526   -1.1904    1.2173 S.3     1  LIG1       -0.1420
     24 H           4.3030   -2.0257    1.2568 H       1  LIG1        0.1071
     25 N           6.1474    3.5158   -1.1014 N.pl3   1  LIG1       -0.3575
     26 H           7.0824    3.3508   -1.4454 H       1  LIG1        0.1423
     27 H           5.5946    4.0779   -1.7315 H       1  LIG1        0.1423
     28 C           8.4115    0.3544   -0.9747 C.ar    1  LIG1        0.0132
     29 C           9.8031    0.3740   -0.9552 C.ar    1  LIG1       -0.0385
     30 C           7.7094    1.2626   -0.1706 C.ar    1  LIG1       -0.0012
     31 C          10.5215    1.2782   -0.1788 C.ar    1  LIG1        0.0049
     32 H          10.3619   -0.3299   -1.5637 H       1  LIG1        0.0635
     33 C           8.4280    2.1672    0.6086 C.ar    1  LIG1       -0.0316
     34 C           9.8227    2.1981    0.6235 C.ar    1  LIG1        0.0330
     35 H           7.8756    2.8705    1.2248 H       1  LIG1        0.0642
     36 S           7.5087   -0.7915   -2.0075 S.3     1  LIG1       -0.1420
     37 H           8.5716   -1.1913   -2.7238 H       1  LIG1        0.1071
     38 N          10.4962    3.0889    1.4528 N.pl3   1  LIG1       -0.3575
     39 H          11.4449    3.2964    1.1764 H       1  LIG1        0.1423
     40 H           9.9726    3.9148    1.7025 H       1  LIG1        0.1423
     41 C          12.7429    1.6171   -1.3350 C.ar    1  LIG1        0.0126
     42 C          14.1349    1.5504   -1.2927 C.ar    1  LIG1       -0.0462
     43 C          12.0126    1.2538   -0.1949 C.ar    1  LIG1       -0.0012
     44 C          14.8012    1.1482   -0.1476 C.ar    1  LIG1       -0.0400
     45 H          14.7162    1.8212   -2.1685 H       1  LIG1        0.0629
     46 C          12.6955    0.8551    0.9542 C.ar    1  LIG1       -0.0322
     47 C          14.0889    0.7938    1.0016 C.ar    1  LIG1        0.0252
     48 H          12.1163    0.5800    1.8306 H       1  LIG1        0.0642
     49 H          15.8863    1.1032   -0.1450 H       1  LIG1        0.0636
     50 S          11.8713    2.1660   -2.7960 S.3     1  LIG1       -0.1420
     51 H          12.9664    2.5623   -3.4645 H       1  LIG1        0.1071
     52 N          14.7455    0.3387    2.1402 N.pl3   1  LIG1       -0.3579
     53 H          15.7018    0.6435    2.2423 H       1  LIG1        0.1423
     54 H          14.2242    0.4139    3.0008 H       1  LIG1        0.1423
@<TRIPOS>BOND
     1    51    50    1
     2    50    41    1
     3    37    36    1
     4    14    12    1
     5    45    42    1
     6    36    28    1
     7    12    13    1
     8    12     7    1
     9    27    25    1
    10    32    29    1
    11     8     6    1
    12    26    25    1
    13    41    42   ar
    14    41    43   ar
    15    42    44   ar
    16    25    21    1
    17    28    29   ar
    18    28    30   ar
    19    29    31   ar
    20    22    20    1
    21     7     6   ar
    22     7     4   ar
    23     6     3   ar
    24    21    20   ar
    25    21    18   ar
    26    20    17   ar
    27    43    31    1
    28    43    46   ar
    29    31    34   ar
    30    30    18    1
    31    30    33   ar
    32    44    49    1
    33    44    47   ar
    34    18    16   ar
    35    17     4    1
    36    17    15   ar
    37     4     2   ar
    38     3     9    1
    39     3     1   ar
    40    16    15   ar
    41    16    19    1
    42    15    23    1
    43    33    34   ar
    44    33    35    1
    45    34    38    1
    46    46    47   ar
    47    46    48    1
    48    47    52    1
    49     2     1   ar
    50     2     5    1
    51     1    10    1
    52    39    38    1
    53    23    24    1
    54    38    40    1
    55    52    53    1
    56    52    54    1
    57    10    11    1
