@<TRIPOS>MOLECULE
mol_data/opt/cam/geoms/mol2/4gh4gh4gh-4gh-.out
 54 57 0 0 0
SMALL
GASTEIGER

@<TRIPOS>ATOM
      1 C          -0.1048    2.2124    1.0837 C.ar    1  LIG1        0.0054
      2 C           1.2829    2.1292    1.0106 C.ar    1  LIG1       -0.0390
      3 C          -0.8657    1.4951    0.1625 C.ar    1  LIG1       -0.0468
      4 C           1.9196    1.3350    0.0614 C.ar    1  LIG1        0.0049
      5 H           1.8896    2.6897    1.7139 H       1  LIG1        0.0635
      6 C          -0.2517    0.7074   -0.7953 C.ar    1  LIG1       -0.0394
      7 C           1.1433    0.6117   -0.8667 C.ar    1  LIG1        0.0325
      8 H          -0.8556    0.1606   -1.5138 H       1  LIG1        0.0636
      9 H          -1.9479    1.5576    0.1982 H       1  LIG1        0.0629
     10 S          -0.8934    3.2711    2.2921 S.3     1  LIG1       -0.1426
     11 H          -0.9642    2.3872    3.3054 H       1  LIG1        0.1071
     12 N           1.7419   -0.1283   -1.8705 N.pl3   1  LIG1       -0.3575
     13 H           2.6955   -0.4105   -1.6967 H       1  LIG1        0.1423
     14 H           1.1781   -0.8699   -2.2568 H       1  LIG1        0.1423
     15 C           4.1341    0.1898    0.4929 C.ar    1  LIG1        0.0132
     16 C           5.5237    0.2109    0.4218 C.ar    1  LIG1       -0.0385
     17 C           3.4102    1.2888    0.0099 C.ar    1  LIG1       -0.0012
     18 C           6.2197    1.2864   -0.1223 C.ar    1  LIG1        0.0049
     19 H           6.0978   -0.6257    0.8073 H       1  LIG1        0.0635
     20 C           4.1064    2.3693   -0.5231 C.ar    1  LIG1       -0.0316
     21 C           5.4998    2.3954   -0.6026 C.ar    1  LIG1        0.0330
     22 H           3.5379    3.2150   -0.8984 H       1  LIG1        0.0642
     23 S           3.2475   -1.1773    1.2270 S.3     1  LIG1       -0.1420
     24 H           4.2961   -2.0147    1.2698 H       1  LIG1        0.1071
     25 N           6.1517    3.5134   -1.1112 N.pl3   1  LIG1       -0.3575
     26 H           7.0864    3.3451   -1.4546 H       1  LIG1        0.1423
     27 H           5.6000    4.0741   -1.7434 H       1  LIG1        0.1423
     28 C           8.4092    0.3478   -0.9719 C.ar    1  LIG1        0.0132
     29 C           9.8009    0.3646   -0.9527 C.ar    1  LIG1       -0.0385
     30 C           7.7091    1.2607   -0.1714 C.ar    1  LIG1       -0.0012
     31 C          10.5213    1.2704   -0.1800 C.ar    1  LIG1        0.0049
     32 H          10.3581   -0.3429   -1.5584 H       1  LIG1        0.0635
     33 C           8.4298    2.1670    0.6040 C.ar    1  LIG1       -0.0316
     34 C           9.8245    2.1950    0.6186 C.ar    1  LIG1        0.0330
     35 H           7.8790    2.8739    1.2174 H       1  LIG1        0.0642
     36 S           7.5039   -0.8004   -1.9999 S.3     1  LIG1       -0.1420
     37 H           8.5658   -1.2054   -2.7147 H       1  LIG1        0.1071
     38 N          10.5000    3.0878    1.4441 N.pl3   1  LIG1       -0.3575
     39 H          11.4491    3.2921    1.1668 H       1  LIG1        0.1423
     40 H           9.9782    3.9158    1.6906 H       1  LIG1        0.1423
     41 C          12.7433    1.5999   -1.3380 C.ar    1  LIG1        0.0126
     42 C          14.1351    1.5305   -1.2956 C.ar    1  LIG1       -0.0462
     43 C          12.0123    1.2428   -0.1963 C.ar    1  LIG1       -0.0012
     44 C          14.8008    1.1316   -0.1489 C.ar    1  LIG1       -0.0400
     45 H          14.7168    1.7965   -2.1725 H       1  LIG1        0.0629
     46 C          12.6946    0.8474    0.9543 C.ar    1  LIG1       -0.0322
     47 C          14.0878    0.7833    1.0018 C.ar    1  LIG1        0.0252
     48 H          12.1149    0.5770    1.8319 H       1  LIG1        0.0642
     49 H          15.8857    1.0843   -0.1464 H       1  LIG1        0.0636
     50 S          11.8725    2.1447   -2.8010 S.3     1  LIG1       -0.1420
     51 H          12.9684    2.5361   -3.4713 H       1  LIG1        0.1071
     52 N          14.7437    0.3315    2.1421 N.pl3   1  LIG1       -0.3579
     53 H          15.7006    0.6346    2.2428 H       1  LIG1        0.1423
     54 H          14.2227    0.4112    3.0025 H       1  LIG1        0.1423
@<TRIPOS>BOND
     1    51    50    1
     2    50    41    1
     3    37    36    1
     4    14    12    1
     5    45    42    1
     6    36    28    1
     7    12    13    1
     8    12     7    1
     9    27    25    1
    10    32    29    1
    11     8     6    1
    12    26    25    1
    13    41    42   ar
    14    41    43   ar
    15    42    44   ar
    16    25    21    1
    17    28    29   ar
    18    28    30   ar
    19    29    31   ar
    20    22    20    1
    21     7     6   ar
    22     7     4   ar
    23     6     3   ar
    24    21    20   ar
    25    21    18   ar
    26    20    17   ar
    27    43    31    1
    28    43    46   ar
    29    31    34   ar
    30    30    18    1
    31    30    33   ar
    32    44    49    1
    33    44    47   ar
    34    18    16   ar
    35    17     4    1
    36    17    15   ar
    37     4     2   ar
    38     3     9    1
    39     3     1   ar
    40    16    15   ar
    41    16    19    1
    42    15    23    1
    43    33    34   ar
    44    33    35    1
    45    34    38    1
    46    46    47   ar
    47    46    48    1
    48    47    52    1
    49     2     1   ar
    50     2     5    1
    51     1    10    1
    52    39    38    1
    53    23    24    1
    54    38    40    1
    55    52    53    1
    56    52    54    1
    57    10    11    1
