@<TRIPOS>MOLECULE
mol_data/opt/cam/geoms/mol2/4gh4gh-4gh4gh-.out
 54 57 0 0 0
SMALL
GASTEIGER

@<TRIPOS>ATOM
      1 C          -0.1097    2.2056    1.0571 C.ar    1  LIG1        0.0054
      2 C           1.2784    2.1276    0.9866 C.ar    1  LIG1       -0.0390
      3 C          -0.8666    1.4603    0.1551 C.ar    1  LIG1       -0.0468
      4 C           1.9195    1.3118    0.0589 C.ar    1  LIG1        0.0049
      5 H           1.8819    2.7096    1.6750 H       1  LIG1        0.0635
      6 C          -0.2484    0.6507   -0.7814 C.ar    1  LIG1       -0.0394
      7 C           1.1472    0.5602   -0.8500 C.ar    1  LIG1        0.0325
      8 H          -0.8491    0.0820   -1.4853 H       1  LIG1        0.0636
      9 H          -1.9492    1.5182    0.1889 H       1  LIG1        0.0629
     10 S          -0.9042    3.2919    2.2370 S.3     1  LIG1       -0.1426
     11 H          -0.9709    2.4347    3.2733 H       1  LIG1        0.1071
     12 N           1.7499   -0.2029   -1.8337 N.pl3   1  LIG1       -0.3575
     13 H           2.7049   -0.4755   -1.6523 H       1  LIG1        0.1423
     14 H           1.1900   -0.9574   -2.2004 H       1  LIG1        0.1423
     15 C           4.1396    0.1898    0.5210 C.ar    1  LIG1        0.0132
     16 C           5.5291    0.2161    0.4496 C.ar    1  LIG1       -0.0385
     17 C           3.4103    1.2719    0.0089 C.ar    1  LIG1       -0.0012
     18 C           6.2198    1.2804   -0.1226 C.ar    1  LIG1        0.0049
     19 H           6.1073   -0.6071    0.8573 H       1  LIG1        0.0635
     20 C           4.1011    2.3414   -0.5523 C.ar    1  LIG1       -0.0316
     21 C           5.4944    2.3726   -0.6322 C.ar    1  LIG1        0.0330
     22 H           3.5284    3.1740   -0.9499 H       1  LIG1        0.0642
     23 S           3.2597   -1.1620    1.2908 S.3     1  LIG1       -0.1420
     24 H           4.3126   -1.9925    1.3559 H       1  LIG1        0.1071
     25 N           6.1408    3.4800   -1.1700 N.pl3   1  LIG1       -0.3575
     26 H           7.0764    3.3075   -1.5087 H       1  LIG1        0.1423
     27 H           5.5865    4.0210   -1.8170 H       1  LIG1        0.1423
     28 C           8.4144    0.3308   -0.9465 C.ar    1  LIG1        0.0132
     29 C           9.8060    0.3552   -0.9275 C.ar    1  LIG1       -0.0385
     30 C           7.7094    1.2610   -0.1707 C.ar    1  LIG1       -0.0012
     31 C          10.5214    1.2848   -0.1789 C.ar    1  LIG1        0.0049
     32 H          10.3670   -0.3652   -1.5141 H       1  LIG1        0.0635
     33 C           8.4251    2.1911    0.5806 C.ar    1  LIG1       -0.0316
     34 C           9.8197    2.2267    0.5948 C.ar    1  LIG1        0.0330
     35 H           7.8705    2.9112    1.1750 H       1  LIG1        0.0642
     36 S           7.5153   -0.8488   -1.9440 S.3     1  LIG1       -0.1420
     37 H           8.5795   -1.2671   -2.6477 H       1  LIG1        0.1071
     38 N          10.4903    3.1444    1.3966 N.pl3   1  LIG1       -0.3575
     39 H          11.4384    3.3462    1.1142 H       1  LIG1        0.1423
     40 H           9.9642    3.9760    1.6209 H       1  LIG1        0.1423
     41 C          12.7421    1.5949   -1.3447 C.ar    1  LIG1        0.0126
     42 C          14.1343    1.5338   -1.3002 C.ar    1  LIG1       -0.0462
     43 C          12.0126    1.2644   -0.1941 C.ar    1  LIG1       -0.0012
     44 C          14.8016    1.1687   -0.1432 C.ar    1  LIG1       -0.0400
     45 H          14.7150    1.7794   -2.1838 H       1  LIG1        0.0629
     46 C          12.6965    0.9031    0.9667 C.ar    1  LIG1       -0.0322
     47 C          14.0900    0.8474    1.0161 C.ar    1  LIG1        0.0252
     48 H          12.1179    0.6531    1.8510 H       1  LIG1        0.0642
     49 H          15.8868    1.1271   -0.1392 H       1  LIG1        0.0636
     50 S          11.8691    2.0964   -2.8219 S.3     1  LIG1       -0.1420
     51 H          12.9632    2.4754   -3.5021 H       1  LIG1        0.1071
     52 N          14.7477    0.4293    2.1681 N.pl3   1  LIG1       -0.3579
     53 H          15.7031    0.7399    2.2610 H       1  LIG1        0.1423
     54 H          14.2260    0.5291    3.0260 H       1  LIG1        0.1423
@<TRIPOS>BOND
     1    51    50    1
     2    50    41    1
     3    37    36    1
     4    14    12    1
     5    45    42    1
     6    36    28    1
     7    12    13    1
     8    12     7    1
     9    27    25    1
    10    32    29    1
    11    26    25    1
    12     8     6    1
    13    41    42   ar
    14    41    43   ar
    15    42    44   ar
    16    25    21    1
    17    22    20    1
    18    28    29   ar
    19    28    30   ar
    20    29    31   ar
    21     7     6   ar
    22     7     4   ar
    23     6     3   ar
    24    21    20   ar
    25    21    18   ar
    26    20    17   ar
    27    43    31    1
    28    43    46   ar
    29    31    34   ar
    30    30    18    1
    31    30    33   ar
    32    44    49    1
    33    44    47   ar
    34    18    16   ar
    35    17     4    1
    36    17    15   ar
    37     4     2   ar
    38     3     9    1
    39     3     1   ar
    40    16    15   ar
    41    16    19    1
    42    15    23    1
    43    33    34   ar
    44    33    35    1
    45    34    38    1
    46    46    47   ar
    47    46    48    1
    48     2     1   ar
    49     2     5    1
    50    47    52    1
    51     1    10    1
    52    39    38    1
    53    23    24    1
    54    38    40    1
    55    52    53    1
    56    52    54    1
    57    10    11    1
