@<TRIPOS>MOLECULE
mol_data/opt/cam/geoms/mol2/4gh4gh4gh4gh.out
 54 57 0 0 0
SMALL
GASTEIGER

@<TRIPOS>ATOM
      1 C          -0.1064    2.1901    1.0917 C.ar    1  LIG1        0.0054
      2 C           1.2814    2.1103    1.0181 C.ar    1  LIG1       -0.0390
      3 C          -0.8658    1.4772    0.1659 C.ar    1  LIG1       -0.0468
      4 C           1.9198    1.3236    0.0638 C.ar    1  LIG1        0.0049
      5 H           1.8869    2.6674    1.7251 H       1  LIG1        0.0635
      6 C          -0.2502    0.6971   -0.7971 C.ar    1  LIG1       -0.0394
      7 C           1.1450    0.6048   -0.8691 C.ar    1  LIG1        0.0325
      8 H          -0.8529    0.1538   -1.5191 H       1  LIG1        0.0636
      9 H          -1.9481    1.5372    0.2019 H       1  LIG1        0.0629
     10 S          -0.8973    3.2391    2.3071 S.3     1  LIG1       -0.1426
     11 H          -0.9662    2.3485    3.3145 H       1  LIG1        0.1071
     12 N           1.7452   -0.1273   -1.8777 N.pl3   1  LIG1       -0.3575
     13 H           2.6994   -0.4086   -1.7058 H       1  LIG1        0.1423
     14 H           1.1829   -0.8676   -2.2689 H       1  LIG1        0.1423
     15 C           4.1367    0.1803    0.4878 C.ar    1  LIG1        0.0132
     16 C           5.5263    0.2048    0.4167 C.ar    1  LIG1       -0.0385
     17 C           3.4106    1.2809    0.0119 C.ar    1  LIG1       -0.0012
     18 C           6.2200    1.2853   -0.1203 C.ar    1  LIG1        0.0049
     19 H           6.1021   -0.6331    0.7968 H       1  LIG1        0.0635
     20 C           4.1044    2.3663   -0.5139 C.ar    1  LIG1       -0.0316
     21 C           5.4978    2.3959   -0.5933 C.ar    1  LIG1        0.0330
     22 H           3.5341    3.2133   -0.8837 H       1  LIG1        0.0642
     23 S           3.2530   -1.1935    1.2129 S.3     1  LIG1       -0.1420
     24 H           4.3034   -2.0288    1.2501 H       1  LIG1        0.1071
     25 N           6.1473    3.5186   -1.0945 N.pl3   1  LIG1       -0.3575
     26 H           7.0823    3.3545   -1.4391 H       1  LIG1        0.1423
     27 H           5.5945    4.0823   -1.7231 H       1  LIG1        0.1423
     28 C           8.4115    0.3569   -0.9760 C.ar    1  LIG1        0.0132
     29 C           9.8032    0.3765   -0.9567 C.ar    1  LIG1       -0.0385
     30 C           7.7095    1.2631   -0.1696 C.ar    1  LIG1       -0.0012
     31 C          10.5216    1.2788   -0.1781 C.ar    1  LIG1        0.0049
     32 H          10.3618   -0.3259   -1.5670 H       1  LIG1        0.0635
     33 C           8.4282    2.1658    0.6118 C.ar    1  LIG1       -0.0316
     34 C           9.8229    2.1966    0.6265 C.ar    1  LIG1        0.0330
     35 H           7.8759    2.8675    1.2298 H       1  LIG1        0.0642
     36 S           7.5086   -0.7864   -2.0115 S.3     1  LIG1       -0.1420
     37 H           8.5714   -1.1844   -2.7290 H       1  LIG1        0.1071
     38 N          10.4965    3.0854    1.4579 N.pl3   1  LIG1       -0.3575
     39 H          11.4452    3.2936    1.1820 H       1  LIG1        0.1423
     40 H           9.9730    3.9106    1.7098 H       1  LIG1        0.1423
     41 C          12.7429    1.6205   -1.3339 C.ar    1  LIG1        0.0126
     42 C          14.1349    1.5538   -1.2919 C.ar    1  LIG1       -0.0462
     43 C          12.0127    1.2544   -0.1945 C.ar    1  LIG1       -0.0012
     44 C          14.8014    1.1487   -0.1479 C.ar    1  LIG1       -0.0400
     45 H          14.7160    1.8267   -2.1671 H       1  LIG1        0.0629
     46 C          12.6958    0.8529    0.9535 C.ar    1  LIG1       -0.0322
     47 C          14.0892    0.7915    1.0005 C.ar    1  LIG1        0.0252
     48 H          12.1167    0.5756    1.8293 H       1  LIG1        0.0642
     49 H          15.8864    1.1037   -0.1456 H       1  LIG1        0.0636
     50 S          11.8710    2.1731   -2.7933 S.3     1  LIG1       -0.1420
     51 H          12.9660    2.5711   -3.4610 H       1  LIG1        0.1071
     52 N          14.7460    0.3335    2.1378 N.pl3   1  LIG1       -0.3579
     53 H          15.7023    0.6381    2.2406 H       1  LIG1        0.1423
     54 H          14.2248    0.4065    2.9987 H       1  LIG1        0.1423
@<TRIPOS>BOND
     1    51    50    1
     2    50    41    1
     3    37    36    1
     4    14    12    1
     5    45    42    1
     6    36    28    1
     7    12    13    1
     8    12     7    1
     9    27    25    1
    10    32    29    1
    11     8     6    1
    12    26    25    1
    13    41    42   ar
    14    41    43   ar
    15    42    44   ar
    16    25    21    1
    17    28    29   ar
    18    28    30   ar
    19    29    31   ar
    20    22    20    1
    21     7     6   ar
    22     7     4   ar
    23     6     3   ar
    24    21    20   ar
    25    21    18   ar
    26    20    17   ar
    27    43    31    1
    28    43    46   ar
    29    31    34   ar
    30    30    18    1
    31    30    33   ar
    32    44    49    1
    33    44    47   ar
    34    18    16   ar
    35    17     4    1
    36    17    15   ar
    37     4     2   ar
    38     3     9    1
    39     3     1   ar
    40    16    15   ar
    41    16    19    1
    42    15    23    1
    43    33    34   ar
    44    33    35    1
    45    34    38    1
    46    46    47   ar
    47    46    48    1
    48    47    52    1
    49     2     1   ar
    50     2     5    1
    51     1    10    1
    52    39    38    1
    53    23    24    1
    54    38    40    1
    55    52    53    1
    56    52    54    1
    57    10    11    1
