@<TRIPOS>MOLECULE
mol_data/opt/cam/geoms/mol2/4gh4gh-4gh4gh.out
 54 57 0 0 0
SMALL
GASTEIGER

@<TRIPOS>ATOM
      1 C          -0.1115    2.1560    1.0845 C.ar    1  LIG1        0.0054
      2 C           1.2768    2.0862    1.0098 C.ar    1  LIG1       -0.0390
      3 C          -0.8667    1.4154    0.1772 C.ar    1  LIG1       -0.0468
      4 C           1.9200    1.2828    0.0727 C.ar    1  LIG1        0.0049
      5 H           1.8790    2.6647    1.7023 H       1  LIG1        0.0635
      6 C          -0.2464    0.6181   -0.7686 C.ar    1  LIG1       -0.0394
      7 C           1.1494    0.5359   -0.8415 C.ar    1  LIG1        0.0325
      8 H          -0.8459    0.0530   -1.4765 H       1  LIG1        0.0636
      9 H          -1.9494    1.4671    0.2141 H       1  LIG1        0.0629
     10 S          -0.9088    3.2265    2.2767 S.3     1  LIG1       -0.1426
     11 H          -0.9683    2.3591    3.3049 H       1  LIG1        0.1071
     12 N           1.7538   -0.2145   -1.8340 N.pl3   1  LIG1       -0.3575
     13 H           2.7107   -0.4837   -1.6576 H       1  LIG1        0.1423
     14 H           1.1970   -0.9685   -2.2066 H       1  LIG1        0.1423
     15 C           4.1473    0.1683    0.5185 C.ar    1  LIG1        0.0132
     16 C           5.5364    0.2029    0.4439 C.ar    1  LIG1       -0.0385
     17 C           3.4109    1.2514    0.0186 C.ar    1  LIG1       -0.0012
     18 C           6.2199    1.2763   -0.1196 C.ar    1  LIG1        0.0049
     19 H           6.1200   -0.6211    0.8422 H       1  LIG1        0.0635
     20 C           4.0945    2.3300   -0.5339 C.ar    1  LIG1       -0.0316
     21 C           5.4874    2.3694   -0.6169 C.ar    1  LIG1        0.0330
     22 H           3.5164    3.1633   -0.9221 H       1  LIG1        0.0642
     23 S           3.2765   -1.1955    1.2774 S.3     1  LIG1       -0.1420
     24 H           4.3340   -2.0209    1.3319 H       1  LIG1        0.1071
     25 N           6.1265    3.4855   -1.1456 N.pl3   1  LIG1       -0.3575
     26 H           7.0622    3.3212   -1.4882 H       1  LIG1        0.1423
     27 H           5.5677    4.0297   -1.7860 H       1  LIG1        0.1423
     28 C           8.4175    0.3466   -0.9581 C.ar    1  LIG1        0.0132
     29 C           9.8090    0.3783   -0.9423 C.ar    1  LIG1       -0.0385
     30 C           7.7095    1.2654   -0.1716 C.ar    1  LIG1       -0.0012
     31 C          10.5213    1.3045   -0.1866 C.ar    1  LIG1        0.0049
     32 H          10.3723   -0.3335   -1.5372 H       1  LIG1        0.0635
     33 C           8.4220    2.1921    0.5869 C.ar    1  LIG1       -0.0316
     34 C           9.8165    2.2350    0.5979 C.ar    1  LIG1        0.0330
     35 H           7.8651    2.9034    1.1895 H       1  LIG1        0.0642
     36 S           7.5222   -0.8282   -1.9647 S.3     1  LIG1       -0.1420
     37 H           8.5869   -1.2340   -2.6750 H       1  LIG1        0.1071
     38 N          10.4842    3.1486    1.4069 N.pl3   1  LIG1       -0.3575
     39 H          11.4305    3.3582    1.1241 H       1  LIG1        0.1423
     40 H           9.9542    3.9751    1.6405 H       1  LIG1        0.1423
     41 C          12.7374    1.6378   -1.3547 C.ar    1  LIG1        0.0126
     42 C          14.1299    1.5837   -1.3143 C.ar    1  LIG1       -0.0462
     43 C          12.0125    1.2923   -0.2056 C.ar    1  LIG1       -0.0012
     44 C          14.8021    1.2111   -0.1625 C.ar    1  LIG1       -0.0400
     45 H          14.7071    1.8410   -2.1968 H       1  LIG1        0.0629
     46 C          12.7012    0.9234    0.9500 C.ar    1  LIG1       -0.0322
     47 C          14.0952    0.8748    0.9955 C.ar    1  LIG1        0.0252
     48 H          12.1262    0.6618    1.8333 H       1  LIG1        0.0642
     49 H          15.8875    1.1753   -0.1615 H       1  LIG1        0.0636
     50 S          11.8580    2.1487   -2.8249 S.3     1  LIG1       -0.1420
     51 H          12.9483    2.5402   -3.5040 H       1  LIG1        0.1071
     52 N          14.7580    0.4491    2.1417 N.pl3   1  LIG1       -0.3579
     53 H          15.7120    0.7640    2.2353 H       1  LIG1        0.1423
     54 H          14.2380    0.5379    3.0018 H       1  LIG1        0.1423
@<TRIPOS>BOND
     1    51    50    1
     2    50    41    1
     3    37    36    1
     4    14    12    1
     5    45    42    1
     6    36    28    1
     7    12    13    1
     8    12     7    1
     9    27    25    1
    10    32    29    1
    11    26    25    1
    12     8     6    1
    13    41    42   ar
    14    41    43   ar
    15    42    44   ar
    16    25    21    1
    17    28    29   ar
    18    28    30   ar
    19    29    31   ar
    20    22    20    1
    21     7     6   ar
    22     7     4   ar
    23     6     3   ar
    24    21    20   ar
    25    21    18   ar
    26    20    17   ar
    27    43    31    1
    28    43    46   ar
    29    31    34   ar
    30    30    18    1
    31    30    33   ar
    32    44    49    1
    33    44    47   ar
    34    18    16   ar
    35    17     4    1
    36    17    15   ar
    37     4     2   ar
    38     3     9    1
    39     3     1   ar
    40    16    15   ar
    41    16    19    1
    42    15    23    1
    43    33    34   ar
    44    33    35    1
    45    34    38    1
    46    46    47   ar
    47    46    48    1
    48    47    52    1
    49     2     1   ar
    50     2     5    1
    51     1    10    1
    52    39    38    1
    53    23    24    1
    54    38    40    1
    55    52    53    1
    56    52    54    1
    57    10    11    1
