@<TRIPOS>MOLECULE
mol_data/opt/cam/geoms/mol2/4gh4gh4gh.out
 41 43 0 0 0
SMALL
GASTEIGER

@<TRIPOS>ATOM
      1 C          -0.0044    1.2079    1.3993 C.ar    1  LIG1        0.0054
      2 C           1.3842    1.1880    1.3033 C.ar    1  LIG1       -0.0390
      3 C          -0.7527    1.3575    0.2336 C.ar    1  LIG1       -0.0468
      4 C           2.0337    1.2932    0.0767 C.ar    1  LIG1        0.0049
      5 H           1.9801    1.0880    2.2042 H       1  LIG1        0.0635
      6 C          -0.1259    1.4689   -0.9954 C.ar    1  LIG1       -0.0394
      7 C           1.2695    1.4362   -1.0984 C.ar    1  LIG1        0.0325
      8 H          -0.7202    1.5860   -1.8970 H       1  LIG1        0.0636
      9 H          -1.8353    1.3852    0.2926 H       1  LIG1        0.0629
     10 S          -0.8127    1.1136    2.9934 S.3     1  LIG1       -0.1426
     11 H          -0.8402   -0.2271    3.1134 H       1  LIG1        0.1071
     12 N           1.8830    1.5892   -2.3311 N.pl3   1  LIG1       -0.3575
     13 H           2.8369    1.2645   -2.3895 H       1  LIG1        0.1423
     14 H           1.3235    1.3350   -3.1308 H       1  LIG1        0.1423
     15 C           4.2512    0.0917    0.2294 C.ar    1  LIG1        0.0132
     16 C           5.6408    0.1367    0.1640 C.ar    1  LIG1       -0.0385
     17 C           3.5238    1.2694    0.0105 C.ar    1  LIG1       -0.0012
     18 C           6.3298    1.3095   -0.1299 C.ar    1  LIG1        0.0049
     19 H           6.2219   -0.7645    0.3323 H       1  LIG1        0.0635
     20 C           4.2134    2.4441   -0.2792 C.ar    1  LIG1       -0.0316
     21 C           5.6065    2.4954   -0.3525 C.ar    1  LIG1        0.0330
     22 H           3.6410    3.3526   -0.4419 H       1  LIG1        0.0642
     23 S           3.3714   -1.4253    0.5701 S.3     1  LIG1       -0.1420
     24 H           4.4474   -2.2249    0.4906 H       1  LIG1        0.1071
     25 N           6.2551    3.7039   -0.5742 N.pl3   1  LIG1       -0.3575
     26 H           7.1860    3.6237   -0.9573 H       1  LIG1        0.1423
     27 H           5.7027    4.3948   -1.0601 H       1  LIG1        0.1423
     28 C           8.5251    1.3221   -1.3833 C.ar    1  LIG1        0.0126
     29 C           9.9186    1.3044   -1.3573 C.ar    1  LIG1       -0.0462
     30 C           7.8214    1.2977   -0.1707 C.ar    1  LIG1       -0.0012
     31 C          10.6122    1.2643   -0.1594 C.ar    1  LIG1       -0.0400
     32 H          10.4783    1.3144   -2.2873 H       1  LIG1        0.0629
     33 C           8.5308    1.2498    1.0269 C.ar    1  LIG1       -0.0322
     34 C           9.9265    1.2321    1.0581 C.ar    1  LIG1        0.0252
     35 H           7.9725    1.2327    1.9582 H       1  LIG1        0.0642
     36 H          11.6980    1.2480   -0.1675 H       1  LIG1        0.0636
     37 S           7.6041    1.3359   -2.9154 S.3     1  LIG1       -0.1420
     38 H           8.6667    1.5191   -3.7153 H       1  LIG1        0.1071
     39 N          10.6120    1.1353    2.2641 N.pl3   1  LIG1       -0.3579
     40 H          11.5616    1.4761    2.2526 H       1  LIG1        0.1423
     41 H          10.1031    1.4478    3.0775 H       1  LIG1        0.1423
@<TRIPOS>BOND
     1    38    37    1
     2    14    12    1
     3    37    28    1
     4    13    12    1
     5    12     7    1
     6    32    29    1
     7     8     6    1
     8    28    29   ar
     9    28    30   ar
    10    29    31   ar
    11     7     6   ar
    12     7     4   ar
    13    27    25    1
    14     6     3   ar
    15    26    25    1
    16    25    21    1
    17    22    20    1
    18    21    20   ar
    19    21    18   ar
    20    20    17   ar
    21    30    18    1
    22    30    33   ar
    23    36    31    1
    24    31    34   ar
    25    18    16   ar
    26    17     4    1
    27    17    15   ar
    28     4     2   ar
    29    16    15   ar
    30    16    19    1
    31    15    23    1
    32     3     9    1
    33     3     1   ar
    34    24    23    1
    35    33    34   ar
    36    33    35    1
    37    34    39    1
    38     2     1   ar
    39     2     5    1
    40     1    10    1
    41    40    39    1
    42    39    41    1
    43    10    11    1
