@<TRIPOS>MOLECULE
mol_data/opt/cam/geoms/mol2/4gh4gh-4gh.out
 41 43 0 0 0
SMALL
GASTEIGER

@<TRIPOS>ATOM
      1 C          -0.0052    1.4651    1.3308 C.ar    1  LIG1        0.0054
      2 C           1.3829    1.4157    1.2387 C.ar    1  LIG1       -0.0390
      3 C          -0.7546    1.3933    0.1580 C.ar    1  LIG1       -0.0468
      4 C           2.0309    1.2748    0.0149 C.ar    1  LIG1        0.0049
      5 H           1.9809    1.4806    2.1415 H       1  LIG1        0.0635
      6 C          -0.1293    1.2628   -1.0695 C.ar    1  LIG1       -0.0394
      7 C           1.2662    1.2026   -1.1672 C.ar    1  LIG1        0.0325
      8 H          -0.7240    1.2178   -1.9772 H       1  LIG1        0.0636
      9 H          -1.8368    1.4418    0.2106 H       1  LIG1        0.0629
     10 S          -0.8076    1.6848    2.9153 S.3     1  LIG1       -0.1426
     11 H          -0.9035    0.3877    3.2637 H       1  LIG1        0.1071
     12 N           1.8767    1.1389   -2.4070 N.pl3   1  LIG1       -0.3575
     13 H           2.8251    0.7931   -2.4103 H       1  LIG1        0.1423
     14 H           1.3144    0.7456   -3.1462 H       1  LIG1        0.1423
     15 C           4.2327    0.0544   -0.2456 C.ar    1  LIG1        0.0132
     16 C           5.6232    0.0939   -0.2788 C.ar    1  LIG1       -0.0385
     17 C           3.5219    1.2448   -0.0370 C.ar    1  LIG1       -0.0012
     18 C           6.3329    1.2804   -0.1175 C.ar    1  LIG1        0.0049
     19 H           6.1875   -0.8216   -0.4248 H       1  LIG1        0.0635
     20 C           4.2317    2.4289    0.1366 C.ar    1  LIG1       -0.0316
     21 C           5.6262    2.4766    0.1010 C.ar    1  LIG1        0.0330
     22 H           3.6732    3.3466    0.2953 H       1  LIG1        0.0642
     23 S           3.3274   -1.4769   -0.4151 S.3     1  LIG1       -0.1420
     24 H           4.3770   -2.2135   -0.8130 H       1  LIG1        0.1071
     25 N           6.2922    3.6785    0.3170 N.pl3   1  LIG1       -0.3575
     26 H           7.2313    3.7181   -0.0517 H       1  LIG1        0.1423
     27 H           5.7543    4.5048    0.1016 H       1  LIG1        0.1423
     28 C           8.5268    0.9705   -1.3333 C.ar    1  LIG1        0.0126
     29 C           9.9204    0.9506   -1.2983 C.ar    1  LIG1       -0.0462
     30 C           7.8236    1.2665   -0.1572 C.ar    1  LIG1       -0.0012
     31 C          10.6146    1.2304   -0.1334 C.ar    1  LIG1       -0.0400
     32 H          10.4808    0.7170   -2.1980 H       1  LIG1        0.0629
     33 C           8.5345    1.5510    1.0088 C.ar    1  LIG1       -0.0322
     34 C           9.9295    1.5386    1.0453 C.ar    1  LIG1        0.0252
     35 H           7.9763    1.7816    1.9113 H       1  LIG1        0.0642
     36 H          11.7003    1.2048   -0.1353 H       1  LIG1        0.0636
     37 S           7.6197    0.6457   -2.8391 S.3     1  LIG1       -0.1420
     38 H           8.6950    0.6338   -3.6434 H       1  LIG1        0.1071
     39 N          10.6149    1.7700    2.2333 N.pl3   1  LIG1       -0.3579
     40 H          11.5647    2.0946    2.1319 H       1  LIG1        0.1423
     41 H          10.1052    2.2864    2.9345 H       1  LIG1        0.1423
@<TRIPOS>BOND
     1    38    37    1
     2    14    12    1
     3    37    28    1
     4    13    12    1
     5    12     7    1
     6    32    29    1
     7     8     6    1
     8    28    29   ar
     9    28    30   ar
    10    29    31   ar
    11     7     6   ar
    12     7     4   ar
    13     6     3   ar
    14    24    23    1
    15    19    16    1
    16    23    15    1
    17    16    15   ar
    18    16    18   ar
    19    15    17   ar
    20    30    18    1
    21    30    33   ar
    22    36    31    1
    23    31    34   ar
    24    18    21   ar
    25    26    25    1
    26    17     4    1
    27    17    20   ar
    28     4     2   ar
    29    21    20   ar
    30    21    25    1
    31    27    25    1
    32    20    22    1
    33     3     9    1
    34     3     1   ar
    35    33    34   ar
    36    33    35    1
    37    34    39    1
    38     2     1   ar
    39     2     5    1
    40     1    10    1
    41    40    39    1
    42    39    41    1
    43    10    11    1
