@<TRIPOS>MOLECULE
mol_data/opt/cam/geoms/mol2/4gi.out
 16 16 0 0 0
SMALL
GASTEIGER

@<TRIPOS>ATOM
      1 C           0.0819    0.0186   -0.0058 C.ar    1  LIG1        0.0048
      2 C           1.4735    0.0148    0.0218 C.ar    1  LIG1       -0.0483
      3 C          -0.5910    1.2400   -0.0217 C.ar    1  LIG1       -0.0483
      4 C           2.1746    1.2144    0.0314 C.ar    1  LIG1       -0.0578
      5 H           2.0190   -0.9235    0.0397 H       1  LIG1        0.0629
      6 C           0.1218    2.4294   -0.0114 C.ar    1  LIG1       -0.0578
      7 C           1.5168    2.4418    0.0125 C.ar    1  LIG1       -0.0504
      8 H          -0.4205    3.3707   -0.0207 H       1  LIG1        0.0621
      9 H           3.2604    1.1905    0.0560 H       1  LIG1        0.0621
     10 H          -1.6762    1.2614   -0.0390 H       1  LIG1        0.0629
     11 S          -0.8916   -1.4718   -0.0154 S.3     1  LIG1       -0.1426
     12 H           0.1354   -2.3359   -0.0052 H       1  LIG1        0.1071
     13 C           2.2810    3.7391   -0.0050 C.3     1  LIG1       -0.0397
     14 H           1.7934    4.4979    0.6126 H       1  LIG1        0.0278
     15 H           2.3523    4.1438   -1.0203 H       1  LIG1        0.0278
     16 H           3.2997    3.6063    0.3666 H       1  LIG1        0.0278
@<TRIPOS>BOND
     1    15    13    1
     2    10     3    1
     3     3     6   ar
     4     3     1   ar
     5     8     6    1
     6    11     1    1
     7    11    12    1
     8     6     7   ar
     9     1     2   ar
    10    13     7    1
    11    13    16    1
    12    13    14    1
    13     7     4   ar
    14     2     4   ar
    15     2     5    1
    16     4     9    1
