@<TRIPOS>MOLECULE
mol_data/opt/cam/geoms/mol2/4gi4gi-4gi-4gi-.out
 58 61 0 0 0
SMALL
GASTEIGER

@<TRIPOS>ATOM
      1 C          -0.1420    2.4679   -0.9592 C.ar    1  LIG1        0.0053
      2 C           1.2473    2.4173   -0.8882 C.ar    1  LIG1       -0.0406
      3 C          -0.8876    1.5117   -0.2767 C.ar    1  LIG1       -0.0483
      4 C           1.8939    1.4227   -0.1567 C.ar    1  LIG1       -0.0129
      5 H           1.8496    3.1574   -1.4056 H       1  LIG1        0.0635
      6 C          -0.2422    0.5308    0.4629 C.ar    1  LIG1       -0.0572
      7 C           1.1468    0.4590    0.5390 C.ar    1  LIG1       -0.0426
      8 H          -0.8372   -0.2059    0.9946 H       1  LIG1        0.0621
      9 H          -1.9716    1.5287   -0.3247 H       1  LIG1        0.0629
     10 S          -1.0129    3.7300   -1.8648 S.3     1  LIG1       -0.1426
     11 H           0.0355    4.1720   -2.5769 H       1  LIG1        0.1071
     12 C           1.8183   -0.6201    1.3454 C.3     1  LIG1       -0.0391
     13 H           1.0805   -1.2178    1.8847 H       1  LIG1        0.0278
     14 H           2.5157   -0.1997    2.0751 H       1  LIG1        0.0278
     15 H           2.3934   -1.2931    0.7025 H       1  LIG1        0.0278
     16 C           4.1581    0.6233   -0.9478 C.ar    1  LIG1        0.0130
     17 C           5.5473    0.6711   -0.8564 C.ar    1  LIG1       -0.0400
     18 C           3.3867    1.4269   -0.1024 C.ar    1  LIG1       -0.0042
     19 C           6.1874    1.4986    0.0617 C.ar    1  LIG1       -0.0129
     20 H           6.1561    0.0547   -1.5102 H       1  LIG1        0.0635
     21 C           4.0423    2.2611    0.8025 C.ar    1  LIG1       -0.0495
     22 C           5.4281    2.3182    0.9108 C.ar    1  LIG1       -0.0421
     23 H           3.4367    2.8892    1.4495 H       1  LIG1        0.0627
     24 S           3.3284   -0.4184   -2.1321 S.3     1  LIG1       -0.1420
     25 H           4.4362   -1.0318   -2.5787 H       1  LIG1        0.1071
     26 C           6.0831    3.2346    1.9092 C.3     1  LIG1       -0.0391
     27 H           5.3392    3.8520    2.4164 H       1  LIG1        0.0278
     28 H           6.8073    3.8982    1.4287 H       1  LIG1        0.0278
     29 H           6.6253    2.6648    2.6698 H       1  LIG1        0.0278
     30 C           8.4023    0.7517    1.0225 C.ar    1  LIG1        0.0130
     31 C           9.7944    0.7987    1.0082 C.ar    1  LIG1       -0.0400
     32 C           7.6803    1.5154    0.0998 C.ar    1  LIG1       -0.0042
     33 C          10.4856    1.5935    0.0983 C.ar    1  LIG1       -0.0129
     34 H          10.3653    0.2067    1.7165 H       1  LIG1        0.0635
     35 C           8.3864    2.2975   -0.8134 C.ar    1  LIG1       -0.0495
     36 C           9.7760    2.3606   -0.8383 C.ar    1  LIG1       -0.0421
     37 H           7.8190    2.8811   -1.5326 H       1  LIG1        0.0627
     38 S           7.5069   -0.2763    2.1701 S.3     1  LIG1       -0.1420
     39 H           8.5816   -0.6740    2.8697 H       1  LIG1        0.1071
     40 C          10.4867    3.2264   -1.8437 C.3     1  LIG1       -0.0391
     41 H           9.7758    3.6832   -2.5350 H       1  LIG1        0.0278
     42 H          11.2091    2.6502   -2.4285 H       1  LIG1        0.0278
     43 H          11.0410    4.0297   -1.3492 H       1  LIG1        0.0278
     44 C          12.7086    2.5666    0.8027 C.ar    1  LIG1        0.0125
     45 C          14.1021    2.5140    0.7937 C.ar    1  LIG1       -0.0477
     46 C          11.9792    1.5851    0.1214 C.ar    1  LIG1       -0.0042
     47 C          14.7651    1.5008    0.1192 C.ar    1  LIG1       -0.0578
     48 H          14.6769    3.2704    1.3186 H       1  LIG1        0.0629
     49 C          12.6718    0.5720   -0.5425 C.ar    1  LIG1       -0.0501
     50 C          14.0619    0.5062   -0.5588 C.ar    1  LIG1       -0.0498
     51 H          12.0947   -0.1850   -1.0662 H       1  LIG1        0.0627
     52 H          15.8512    1.4839    0.1230 H       1  LIG1        0.0621
     53 S          11.8166    3.8426    1.6703 S.3     1  LIG1       -0.1420
     54 H          12.9011    4.5340    2.0560 H       1  LIG1        0.1071
     55 C          14.7825   -0.6121   -1.2639 C.3     1  LIG1       -0.0397
     56 H          14.1425   -1.0922   -2.0074 H       1  LIG1        0.0278
     57 H          15.1017   -1.3853   -0.5569 H       1  LIG1        0.0278
     58 H          15.6789   -0.2494   -1.7737 H       1  LIG1        0.0278
@<TRIPOS>BOND
     1    25    24    1
     2    11    10    1
     3    41    40    1
     4    42    40    1
     5    24    16    1
     6    56    55    1
     7    10     1    1
     8    40    43    1
     9    40    36    1
    10    58    55    1
    11    37    35    1
    12    20    17    1
    13     5     2    1
    14    55    50    1
    15    55    57    1
    16    51    49    1
    17     1     2   ar
    18     1     3   ar
    19    16    17   ar
    20    16    18   ar
    21     2     4   ar
    22    17    19   ar
    23    36    35   ar
    24    36    33   ar
    25    35    32   ar
    26    50    49   ar
    27    50    47   ar
    28    49    46   ar
    29     9     3    1
    30     3     6   ar
    31     4    18    1
    32     4     7   ar
    33    18    21   ar
    34    19    32    1
    35    19    22   ar
    36    33    46    1
    37    33    31   ar
    38    32    30   ar
    39    47    52    1
    40    47    45   ar
    41    46    44   ar
    42     6     7   ar
    43     6     8    1
    44     7    12    1
    45    15    12    1
    46    45    44   ar
    47    45    48    1
    48    21    22   ar
    49    21    23    1
    50    44    53    1
    51    22    26    1
    52    31    30   ar
    53    31    34    1
    54    30    38    1
    55    12    13    1
    56    12    14    1
    57    28    26    1
    58    53    54    1
    59    26    27    1
    60    26    29    1
    61    38    39    1
