@<TRIPOS>MOLECULE
mol_data/opt/cam/geoms/mol2/4gi4gi4gi.out
 44 46 0 0 0
SMALL
GASTEIGER

@<TRIPOS>ATOM
      1 C           0.0070    1.4945   -1.4809 C.ar    1  LIG1        0.0053
      2 C           1.3932    1.4872   -1.3528 C.ar    1  LIG1       -0.0406
      3 C          -0.7765    1.3493   -0.3403 C.ar    1  LIG1       -0.0483
      4 C           1.9994    1.3259   -0.1084 C.ar    1  LIG1       -0.0129
      5 H           2.0243    1.6077   -2.2277 H       1  LIG1        0.0635
      6 C          -0.1711    1.2043    0.9000 C.ar    1  LIG1       -0.0572
      7 C           1.2140    1.1851    1.0467 C.ar    1  LIG1       -0.0426
      8 H          -0.7952    1.0969    1.7821 H       1  LIG1        0.0621
      9 H          -1.8589    1.3443   -0.4190 H       1  LIG1        0.0629
     10 S          -0.8111    1.7179   -3.0471 S.3     1  LIG1       -0.1426
     11 H           0.2493    1.4464   -3.8239 H       1  LIG1        0.1071
     12 C           1.8411    1.0177    2.4048 C.3     1  LIG1       -0.0391
     13 H           1.0797    1.0237    3.1874 H       1  LIG1        0.0278
     14 H           2.5558    1.8173    2.6180 H       1  LIG1        0.0278
     15 H           2.3876    0.0722    2.4724 H       1  LIG1        0.0278
     16 C           4.2422    0.1632    0.0022 C.ar    1  LIG1        0.0130
     17 C           5.6316    0.2394    0.0679 C.ar    1  LIG1       -0.0400
     18 C           3.4910    1.3424   -0.0296 C.ar    1  LIG1       -0.0042
     19 C           6.2917    1.4642    0.1079 C.ar    1  LIG1       -0.0129
     20 H           6.2251   -0.6692    0.0883 H       1  LIG1        0.0635
     21 C           4.1667    2.5619   -0.0024 C.ar    1  LIG1       -0.0495
     22 C           5.5529    2.6566    0.0682 C.ar    1  LIG1       -0.0421
     23 H           3.5769    3.4734   -0.0368 H       1  LIG1        0.0627
     24 S           3.3876   -1.3989   -0.0692 S.3     1  LIG1       -0.1420
     25 H           4.4775   -2.1626    0.1088 H       1  LIG1        0.1071
     26 C           6.2294    4.0009    0.0963 C.3     1  LIG1       -0.0391
     27 H           5.5010    4.8051   -0.0252 H       1  LIG1        0.0278
     28 H           6.9730    4.0911   -0.7005 H       1  LIG1        0.0278
     29 H           6.7526    4.1591    1.0441 H       1  LIG1        0.0278
     30 C           8.4772    1.6259    1.3666 C.ar    1  LIG1        0.0125
     31 C           9.8718    1.6301    1.3602 C.ar    1  LIG1       -0.0477
     32 C           7.7846    1.4775    0.1592 C.ar    1  LIG1       -0.0042
     33 C          10.5720    1.4875    0.1728 C.ar    1  LIG1       -0.0578
     34 H          10.4181    1.7445    2.2912 H       1  LIG1        0.0629
     35 C           8.5147    1.3274   -1.0206 C.ar    1  LIG1       -0.0501
     36 C           9.9060    1.3283   -1.0417 C.ar    1  LIG1       -0.0498
     37 H           7.9660    1.2107   -1.9510 H       1  LIG1        0.0627
     38 H          11.6581    1.4982    0.1934 H       1  LIG1        0.0621
     39 S           7.5392    1.7868    2.8734 S.3     1  LIG1       -0.1420
     40 H           8.5973    1.9771    3.6778 H       1  LIG1        0.1071
     41 C          10.6685    1.1433   -2.3268 C.3     1  LIG1       -0.0397
     42 H          10.0316    1.3185   -3.1965 H       1  LIG1        0.0278
     43 H          11.0653    0.1258   -2.4090 H       1  LIG1        0.0278
     44 H          11.5187    1.8280   -2.3879 H       1  LIG1        0.0278
@<TRIPOS>BOND
     1    11    10    1
     2    42    41    1
     3    10     1    1
     4    43    41    1
     5    44    41    1
     6    41    36    1
     7     5     2    1
     8    37    35    1
     9     1     2   ar
    10     1     3   ar
    11     2     4   ar
    12    36    35   ar
    13    36    33   ar
    14    35    32   ar
    15    28    26    1
    16     9     3    1
    17     3     6   ar
    18     4    18    1
    19     4     7   ar
    20    24    16    1
    21    24    25    1
    22    23    21    1
    23    18    21   ar
    24    18    16   ar
    25    27    26    1
    26    21    22   ar
    27    16    17   ar
    28    17    20    1
    29    17    19   ar
    30    22    26    1
    31    22    19   ar
    32    26    29    1
    33    19    32    1
    34    32    30   ar
    35    33    38    1
    36    33    31   ar
    37     6     7   ar
    38     6     8    1
    39     7    12    1
    40    31    30   ar
    41    31    34    1
    42    30    39    1
    43    12    15    1
    44    12    14    1
    45    12    13    1
    46    39    40    1
