@<TRIPOS>MOLECULE
mol_data/opt/cam/geoms/mol2/4gi4gi.out
 30 31 0 0 0
SMALL
GASTEIGER

@<TRIPOS>ATOM
      1 C           0.1054    0.4385   -1.1032 C.ar    1  LIG1        0.0053
      2 C           1.4903    0.4718   -0.9662 C.ar    1  LIG1       -0.0406
      3 C          -0.6736    1.2418   -0.2762 C.ar    1  LIG1       -0.0483
      4 C           2.0996    1.2858   -0.0130 C.ar    1  LIG1       -0.0129
      5 H           2.1186   -0.1416   -1.6043 H       1  LIG1        0.0635
      6 C          -0.0648    2.0610    0.6638 C.ar    1  LIG1       -0.0572
      7 C           1.3188    2.1023    0.8203 C.ar    1  LIG1       -0.0426
      8 H          -0.6852    2.6861    1.2992 H       1  LIG1        0.0621
      9 H          -1.7554    1.2265   -0.3618 H       1  LIG1        0.0629
     10 S          -0.7161   -0.5724   -2.3171 S.3     1  LIG1       -0.1426
     11 H           0.3433   -1.3308   -2.6393 H       1  LIG1        0.1071
     12 C           1.9487    2.9990    1.8524 C.3     1  LIG1       -0.0391
     13 H           1.1933    3.6158    2.3435 H       1  LIG1        0.0278
     14 H           2.6928    3.6639    1.4052 H       1  LIG1        0.0278
     15 H           2.4605    2.4148    2.6230 H       1  LIG1        0.0278
     16 C           4.2767    0.5175    1.0173 C.ar    1  LIG1        0.0125
     17 C           5.6701    0.5589    1.0551 C.ar    1  LIG1       -0.0477
     18 C           3.5911    1.2930    0.0747 C.ar    1  LIG1       -0.0042
     19 C           6.3764    1.3569    0.1689 C.ar    1  LIG1       -0.0578
     20 H           6.2110   -0.0385    1.7823 H       1  LIG1        0.0629
     21 C           4.3275    2.0807   -0.8109 C.ar    1  LIG1       -0.0501
     22 C           5.7180    2.1303   -0.7859 C.ar    1  LIG1       -0.0498
     23 H           3.7842    2.6757   -1.5397 H       1  LIG1        0.0627
     24 H           7.4614    1.3751    0.2208 H       1  LIG1        0.0621
     25 S           3.3325   -0.5100    2.1260 S.3     1  LIG1       -0.1420
     26 H           4.3834   -0.9497    2.8368 H       1  LIG1        0.1071
     27 C           6.4874    2.9713   -1.7698 C.3     1  LIG1       -0.0397
     28 H           5.8541    3.7407   -2.2170 H       1  LIG1        0.0278
     29 H           6.8871    2.3598   -2.5857 H       1  LIG1        0.0278
     30 H           7.3359    3.4681   -1.2918 H       1  LIG1        0.0278
@<TRIPOS>BOND
     1    11    10    1
     2    29    27    1
     3    10     1    1
     4    28    27    1
     5    27    30    1
     6    27    22    1
     7     5     2    1
     8    23    21    1
     9     1     2   ar
    10     1     3   ar
    11     2     4   ar
    12    21    22   ar
    13    21    18   ar
    14    22    19   ar
    15     9     3    1
    16     3     6   ar
    17     4    18    1
    18     4     7   ar
    19    18    16   ar
    20    19    24    1
    21    19    17   ar
    22     6     7   ar
    23     6     8    1
    24     7    12    1
    25    16    17   ar
    26    16    25    1
    27    17    20    1
    28    14    12    1
    29    12    13    1
    30    12    15    1
    31    25    26    1
