@<TRIPOS>MOLECULE
mol_data/opt/cam/geoms/mol2/4gi4gi4gi4gi-.out
 58 61 0 0 0
SMALL
GASTEIGER

@<TRIPOS>ATOM
      1 C          -0.1441    2.4328   -0.9740 C.ar    1  LIG1        0.0053
      2 C           1.2453    2.3892   -0.8990 C.ar    1  LIG1       -0.0406
      3 C          -0.8868    1.4711   -0.2963 C.ar    1  LIG1       -0.0483
      4 C           1.8948    1.3960   -0.1682 C.ar    1  LIG1       -0.0129
      5 H           1.8453    3.1339   -1.4125 H       1  LIG1        0.0635
      6 C          -0.2386    0.4916    0.4428 C.ar    1  LIG1       -0.0572
      7 C           1.1505    0.4267    0.5228 C.ar    1  LIG1       -0.0426
      8 H          -0.8314   -0.2495    0.9707 H       1  LIG1        0.0621
      9 H          -1.9707    1.4827   -0.3475 H       1  LIG1        0.0629
     10 S          -1.0187    3.6930   -1.8788 S.3     1  LIG1       -0.1426
     11 H           0.0289    4.1402   -2.5888 H       1  LIG1        0.1071
     12 C           1.8251   -0.6512    1.3283 C.3     1  LIG1       -0.0391
     13 H           1.0889   -1.2530    1.8651 H       1  LIG1        0.0278
     14 H           2.5195   -0.2294    2.0600 H       1  LIG1        0.0278
     15 H           2.4040   -1.3206    0.6850 H       1  LIG1        0.0278
     16 C           4.1653    0.6100   -0.9545 C.ar    1  LIG1        0.0130
     17 C           5.5540    0.6646   -0.8588 C.ar    1  LIG1       -0.0400
     18 C           3.3873    1.4076   -0.1094 C.ar    1  LIG1       -0.0042
     19 C           6.1872    1.4931    0.0631 C.ar    1  LIG1       -0.0129
     20 H           6.1678    0.0529   -1.5124 H       1  LIG1        0.0635
     21 C           4.0360    2.2429    0.7995 C.ar    1  LIG1       -0.0495
     22 C           5.4212    2.3068    0.9120 C.ar    1  LIG1       -0.0421
     23 H           3.4254    2.8663    1.4462 H       1  LIG1        0.0627
     24 S           3.3444   -0.4329   -2.1438 S.3     1  LIG1       -0.1420
     25 H           4.4565   -1.0397   -2.5885 H       1  LIG1        0.1071
     26 C           6.0687    3.2239    1.9145 C.3     1  LIG1       -0.0391
     27 H           5.3200    3.8350    2.4225 H       1  LIG1        0.0278
     28 H           6.7894    3.8937    1.4374 H       1  LIG1        0.0278
     29 H           6.6132    2.6552    2.6741 H       1  LIG1        0.0278
     30 C           8.4029    0.7544    1.0281 C.ar    1  LIG1        0.0130
     31 C           9.7948    0.8084    1.0181 C.ar    1  LIG1       -0.0400
     32 C           7.6798    1.5175    0.1057 C.ar    1  LIG1       -0.0042
     33 C          10.4846    1.6098    0.1129 C.ar    1  LIG1       -0.0129
     34 H          10.3666    0.2170    1.7262 H       1  LIG1        0.0635
     35 C           8.3847    2.3062   -0.8028 C.ar    1  LIG1       -0.0495
     36 C           9.7739    2.3765   -0.8233 C.ar    1  LIG1       -0.0421
     37 H           7.8164    2.8893   -1.5217 H       1  LIG1        0.0627
     38 S           7.5093   -0.2818    2.1697 S.3     1  LIG1       -0.1420
     39 H           8.5839   -0.6763    2.8713 H       1  LIG1        0.1071
     40 C          10.4833    3.2491   -1.8237 C.3     1  LIG1       -0.0391
     41 H           9.7720    3.7052   -2.5151 H       1  LIG1        0.0278
     42 H          11.2097    2.6783   -2.4088 H       1  LIG1        0.0278
     43 H          11.0328    4.0530   -1.3248 H       1  LIG1        0.0278
     44 C          12.7007    2.5919    0.8271 C.ar    1  LIG1        0.0125
     45 C          14.0944    2.5463    0.8221 C.ar    1  LIG1       -0.0477
     46 C          11.9782    1.6089    0.1405 C.ar    1  LIG1       -0.0042
     47 C          14.7645    1.5386    0.1463 C.ar    1  LIG1       -0.0578
     48 H          14.6638    3.3040    1.3511 H       1  LIG1        0.0629
     49 C          12.6779    0.6015   -0.5245 C.ar    1  LIG1       -0.0501
     50 C          14.0683    0.5427   -0.5369 C.ar    1  LIG1       -0.0498
     51 H          12.1062   -0.1568   -1.0524 H       1  LIG1        0.0627
     52 H          15.8507    1.5272    0.1533 H       1  LIG1        0.0621
     53 S          11.7997    3.8605    1.6961 S.3     1  LIG1       -0.1420
     54 H          12.8795    4.5561    2.0873 H       1  LIG1        0.1071
     55 C          14.7967   -0.5697   -1.2434 C.3     1  LIG1       -0.0397
     56 H          14.1617   -1.0497   -1.9913 H       1  LIG1        0.0278
     57 H          15.1164   -1.3442   -0.5381 H       1  LIG1        0.0278
     58 H          15.6935   -0.2011   -1.7482 H       1  LIG1        0.0278
@<TRIPOS>BOND
     1    11    10    1
     2    25    24    1
     3    41    40    1
     4    42    40    1
     5    24    16    1
     6    56    55    1
     7    10     1    1
     8    40    43    1
     9    40    36    1
    10    58    55    1
    11    37    35    1
    12    20    17    1
    13     5     2    1
    14    55    57    1
    15    55    50    1
    16    51    49    1
    17     1     2   ar
    18     1     3   ar
    19    16    17   ar
    20    16    18   ar
    21     2     4   ar
    22    17    19   ar
    23    36    35   ar
    24    36    33   ar
    25    35    32   ar
    26    50    49   ar
    27    50    47   ar
    28    49    46   ar
    29     9     3    1
    30     3     6   ar
    31     4    18    1
    32     4     7   ar
    33    18    21   ar
    34    19    32    1
    35    19    22   ar
    36    32    30   ar
    37    33    46    1
    38    33    31   ar
    39    46    44   ar
    40    47    52    1
    41    47    45   ar
    42     6     7   ar
    43     6     8    1
    44     7    12    1
    45    15    12    1
    46    21    22   ar
    47    21    23    1
    48    45    44   ar
    49    45    48    1
    50    44    53    1
    51    22    26    1
    52    31    30   ar
    53    31    34    1
    54    30    38    1
    55    12    13    1
    56    12    14    1
    57    28    26    1
    58    53    54    1
    59    26    27    1
    60    26    29    1
    61    38    39    1
