@<TRIPOS>MOLECULE
mol_data/opt/cam/geoms/mol2/4gi4gi4gi-4gi.out
 58 61 0 0 0
SMALL
GASTEIGER

@<TRIPOS>ATOM
      1 C          -0.1376    2.4619   -0.9956 C.ar    1  LIG1        0.0053
      2 C           1.2514    2.4135   -0.9158 C.ar    1  LIG1       -0.0406
      3 C          -0.8856    1.4984   -0.3262 C.ar    1  LIG1       -0.0483
      4 C           1.8952    1.4141   -0.1885 C.ar    1  LIG1       -0.0129
      5 H           1.8555    3.1593   -1.4228 H       1  LIG1        0.0635
      6 C          -0.2431    0.5125    0.4093 C.ar    1  LIG1       -0.0572
      7 C           1.1455    0.4430    0.4940 C.ar    1  LIG1       -0.0426
      8 H          -0.8401   -0.2298    0.9307 H       1  LIG1        0.0621
      9 H          -1.9693    1.5136   -0.3813 H       1  LIG1        0.0629
     10 S          -1.0051    3.7299   -1.8961 S.3     1  LIG1       -0.1426
     11 H           0.0469    4.1798   -2.5979 H       1  LIG1        0.1071
     12 C           1.8139   -0.6417    1.2955 C.3     1  LIG1       -0.0391
     13 H           1.0739   -1.2455    1.8248 H       1  LIG1        0.0278
     14 H           2.5057   -0.2262    2.0333 H       1  LIG1        0.0278
     15 H           2.3946   -1.3081    0.6506 H       1  LIG1        0.0278
     16 C           4.1661    0.6262   -0.9717 C.ar    1  LIG1        0.0130
     17 C           5.5546    0.6759   -0.8707 C.ar    1  LIG1       -0.0400
     18 C           3.3875    1.4207   -0.1243 C.ar    1  LIG1       -0.0042
     19 C           6.1870    1.4963    0.0589 C.ar    1  LIG1       -0.0129
     20 H           6.1688    0.0664   -1.5260 H       1  LIG1        0.0635
     21 C           4.0355    2.2479    0.7925 C.ar    1  LIG1       -0.0495
     22 C           5.4205    2.3067    0.9104 C.ar    1  LIG1       -0.0421
     23 H           3.4245    2.8691    1.4410 H       1  LIG1        0.0627
     24 S           3.3462   -0.4066   -2.1706 S.3     1  LIG1       -0.1420
     25 H           4.4581   -1.0138   -2.6153 H       1  LIG1        0.1071
     26 C           6.0672    3.2151    1.9214 C.3     1  LIG1       -0.0391
     27 H           5.3187    3.8265    2.4294 H       1  LIG1        0.0278
     28 H           6.7932    3.8845    1.4518 H       1  LIG1        0.0278
     29 H           6.6054    2.6395    2.6803 H       1  LIG1        0.0278
     30 C           8.3967    0.7439    1.0270 C.ar    1  LIG1        0.0130
     31 C           9.7888    0.7936    1.0225 C.ar    1  LIG1       -0.0400
     32 C           7.6795    1.5156    0.1072 C.ar    1  LIG1       -0.0042
     33 C          10.4846    1.5988    0.1253 C.ar    1  LIG1       -0.0129
     34 H          10.3561    0.1956    1.7287 H       1  LIG1        0.0635
     35 C           8.3903    2.3081   -0.7933 C.ar    1  LIG1       -0.0495
     36 C           9.7798    2.3741   -0.8082 C.ar    1  LIG1       -0.0421
     37 H           7.8266    2.8979   -1.5104 H       1  LIG1        0.0627
     38 S           7.4956   -0.2971    2.1583 S.3     1  LIG1       -0.1420
     39 H           8.5663   -0.6997    2.8612 H       1  LIG1        0.1071
     40 C          10.4957    3.2509   -1.8002 C.3     1  LIG1       -0.0391
     41 H           9.7883    3.7151   -2.4903 H       1  LIG1        0.0278
     42 H          11.2213    2.6813   -2.3875 H       1  LIG1        0.0278
     43 H          11.0472    4.0489   -1.2941 H       1  LIG1        0.0278
     44 C          12.7011    2.5688    0.8542 C.ar    1  LIG1        0.0125
     45 C          14.0947    2.5185    0.8541 C.ar    1  LIG1       -0.0477
     46 C          11.9780    1.5928    0.1584 C.ar    1  LIG1       -0.0042
     47 C          14.7640    1.5132    0.1740 C.ar    1  LIG1       -0.0578
     48 H          14.6647    3.2707    1.3902 H       1  LIG1        0.0629
     49 C          12.6769    0.5875   -0.5108 C.ar    1  LIG1       -0.0501
     50 C          14.0671    0.5242   -0.5185 C.ar    1  LIG1       -0.0498
     51 H          12.1046   -0.1652   -1.0458 H       1  LIG1        0.0627
     52 H          15.8501    1.4982    0.1850 H       1  LIG1        0.0621
     53 S          11.8011    3.8345    1.7285 S.3     1  LIG1       -0.1420
     54 H          12.8818    4.5238    2.1285 H       1  LIG1        0.1071
     55 C          14.7945   -0.5856   -1.2300 C.3     1  LIG1       -0.0397
     56 H          14.1586   -1.0627   -1.9790 H       1  LIG1        0.0278
     57 H          15.1151   -1.3627   -0.5280 H       1  LIG1        0.0278
     58 H          15.6907   -0.2151   -1.7345 H       1  LIG1        0.0278
@<TRIPOS>BOND
     1    25    24    1
     2    11    10    1
     3    41    40    1
     4    42    40    1
     5    24    16    1
     6    56    55    1
     7    10     1    1
     8    40    43    1
     9    40    36    1
    10    58    55    1
    11    20    17    1
    12    37    35    1
    13     5     2    1
    14    55    57    1
    15    55    50    1
    16    51    49    1
    17     1     2   ar
    18     1     3   ar
    19    16    17   ar
    20    16    18   ar
    21     2     4   ar
    22    17    19   ar
    23    36    35   ar
    24    36    33   ar
    25    35    32   ar
    26    50    49   ar
    27    50    47   ar
    28    49    46   ar
    29     9     3    1
    30     3     6   ar
    31     4    18    1
    32     4     7   ar
    33    18    21   ar
    34    19    32    1
    35    19    22   ar
    36    32    30   ar
    37    33    46    1
    38    33    31   ar
    39    46    44   ar
    40    47    52    1
    41    47    45   ar
    42     6     7   ar
    43     6     8    1
    44     7    12    1
    45    15    12    1
    46    21    22   ar
    47    21    23    1
    48    45    44   ar
    49    45    48    1
    50    44    53    1
    51    22    26    1
    52    31    30   ar
    53    31    34    1
    54    30    38    1
    55    12    13    1
    56    12    14    1
    57    28    26    1
    58    53    54    1
    59    26    27    1
    60    26    29    1
    61    38    39    1
