@<TRIPOS>MOLECULE
mol_data/opt/cam/geoms/mol2/4gi4gi-4gi4gi-.out
 58 61 0 0 0
SMALL
GASTEIGER

@<TRIPOS>ATOM
      1 C          -0.1385    2.4689   -0.9827 C.ar    1  LIG1        0.0053
      2 C           1.2506    2.4188   -0.9060 C.ar    1  LIG1       -0.0406
      3 C          -0.8863    1.5079   -0.3095 C.ar    1  LIG1       -0.0483
      4 C           1.8947    1.4201   -0.1780 C.ar    1  LIG1       -0.0129
      5 H           1.8546    3.1626   -1.4161 H       1  LIG1        0.0635
      6 C          -0.2435    0.5228    0.4268 C.ar    1  LIG1       -0.0572
      7 C           1.1452    0.4515    0.5084 C.ar    1  LIG1       -0.0426
      8 H          -0.8403   -0.2175    0.9512 H       1  LIG1        0.0621
      9 H          -1.9702    1.5246   -0.3621 H       1  LIG1        0.0629
     10 S          -1.0063    3.7360   -1.8842 S.3     1  LIG1       -0.1426
     11 H           0.0448    4.1832   -2.5890 H       1  LIG1        0.1071
     12 C           1.8139   -0.6322    1.3110 C.3     1  LIG1       -0.0391
     13 H           1.0743   -1.2332    1.8439 H       1  LIG1        0.0278
     14 H           2.5085   -0.2160    2.0457 H       1  LIG1        0.0278
     15 H           2.3916   -1.3013    0.6662 H       1  LIG1        0.0278
     16 C           4.1628    0.6269   -0.9641 C.ar    1  LIG1        0.0130
     17 C           5.5516    0.6751   -0.8663 C.ar    1  LIG1       -0.0400
     18 C           3.3872    1.4248   -0.1171 C.ar    1  LIG1       -0.0042
     19 C           6.1871    1.4974    0.0595 C.ar    1  LIG1       -0.0129
     20 H           6.1636    0.0630   -1.5212 H       1  LIG1        0.0635
     21 C           4.0383    2.2540    0.7956 C.ar    1  LIG1       -0.0495
     22 C           5.4236    2.3114    0.9103 C.ar    1  LIG1       -0.0421
     23 H           3.4295    2.8778    1.4437 H       1  LIG1        0.0627
     24 S           3.3390   -0.4081   -2.1583 S.3     1  LIG1       -0.1420
     25 H           4.4491   -1.0180   -2.6037 H       1  LIG1        0.1071
     26 C           6.0737    3.2222    1.9169 C.3     1  LIG1       -0.0391
     27 H           5.3271    3.8359    2.4249 H       1  LIG1        0.0278
     28 H           6.7991    3.8895    1.4434 H       1  LIG1        0.0278
     29 H           6.6133    2.6484    2.6762 H       1  LIG1        0.0278
     30 C           8.3984    0.7464    1.0254 C.ar    1  LIG1        0.0130
     31 C           9.7905    0.7943    1.0173 C.ar    1  LIG1       -0.0400
     32 C           7.6798    1.5150    0.1042 C.ar    1  LIG1       -0.0042
     33 C          10.4850    1.5950    0.1151 C.ar    1  LIG1       -0.0129
     34 H          10.3588    0.1985    1.7246 H       1  LIG1        0.0635
     35 C           8.3893    2.3030   -0.8014 C.ar    1  LIG1       -0.0495
     36 C           9.7789    2.3673   -0.8199 C.ar    1  LIG1       -0.0421
     37 H           7.8246    2.8906   -1.5195 H       1  LIG1        0.0627
     38 S           7.4988   -0.2891    2.1630 S.3     1  LIG1       -0.1420
     39 H           8.5708   -0.6902    2.8648 H       1  LIG1        0.1071
     40 C          10.4934    3.2395   -1.8170 C.3     1  LIG1       -0.0391
     41 H           9.7851    3.7002   -2.5085 H       1  LIG1        0.0278
     42 H          11.2184    2.6673   -2.4024 H       1  LIG1        0.0278
     43 H          11.0453    4.0400   -1.3153 H       1  LIG1        0.0278
     44 C          12.7043    2.5654    0.8350 C.ar    1  LIG1        0.0125
     45 C          14.0978    2.5137    0.8318 C.ar    1  LIG1       -0.0477
     46 C          11.9785    1.5875    0.1446 C.ar    1  LIG1       -0.0042
     47 C          14.7645    1.5052    0.1539 C.ar    1  LIG1       -0.0578
     48 H          14.6699    3.2674    1.3638 H       1  LIG1        0.0629
     49 C          12.6748    0.5790   -0.5225 C.ar    1  LIG1       -0.0501
     50 C          14.0649    0.5143   -0.5332 C.ar    1  LIG1       -0.0498
     51 H          12.1004   -0.1751   -1.0533 H       1  LIG1        0.0627
     52 H          15.8506    1.4891    0.1623 H       1  LIG1        0.0621
     53 S          11.8077    3.8354    1.7066 S.3     1  LIG1       -0.1420
     54 H          12.8900    4.5252    2.1012 H       1  LIG1        0.1071
     55 C          14.7895   -0.5990   -1.2422 C.3     1  LIG1       -0.0397
     56 H          14.1516   -1.0779   -1.9883 H       1  LIG1        0.0278
     57 H          15.1103   -1.3741   -0.5381 H       1  LIG1        0.0278
     58 H          15.6853   -0.2315   -1.7496 H       1  LIG1        0.0278
@<TRIPOS>BOND
     1    25    24    1
     2    11    10    1
     3    41    40    1
     4    42    40    1
     5    24    16    1
     6    56    55    1
     7    10     1    1
     8    40    43    1
     9    40    36    1
    10    58    55    1
    11    20    17    1
    12    37    35    1
    13     5     2    1
    14    55    57    1
    15    55    50    1
    16    51    49    1
    17     1     2   ar
    18     1     3   ar
    19    16    17   ar
    20    16    18   ar
    21     2     4   ar
    22    17    19   ar
    23    36    35   ar
    24    36    33   ar
    25    35    32   ar
    26    50    49   ar
    27    50    47   ar
    28    49    46   ar
    29     9     3    1
    30     3     6   ar
    31     4    18    1
    32     4     7   ar
    33    18    21   ar
    34    19    32    1
    35    19    22   ar
    36    32    30   ar
    37    33    46    1
    38    33    31   ar
    39    46    44   ar
    40    47    52    1
    41    47    45   ar
    42     6     7   ar
    43     6     8    1
    44     7    12    1
    45    15    12    1
    46    21    22   ar
    47    21    23    1
    48    45    44   ar
    49    45    48    1
    50    44    53    1
    51    22    26    1
    52    31    30   ar
    53    31    34    1
    54    30    38    1
    55    12    13    1
    56    12    14    1
    57    28    26    1
    58    53    54    1
    59    26    27    1
    60    26    29    1
    61    38    39    1
