@<TRIPOS>MOLECULE
mol_data/opt/cam/geoms/mol2/4gi4gi-4gi4gi.out
 58 61 0 0 0
SMALL
GASTEIGER

@<TRIPOS>ATOM
      1 C          -0.1372    2.4647   -0.9947 C.ar    1  LIG1        0.0053
      2 C           1.2517    2.4157   -0.9151 C.ar    1  LIG1       -0.0406
      3 C          -0.8856    1.5015   -0.3254 C.ar    1  LIG1       -0.0483
      4 C           1.8951    1.4159   -0.1881 C.ar    1  LIG1       -0.0129
      5 H           1.8561    3.1613   -1.4221 H       1  LIG1        0.0635
      6 C          -0.2435    0.5153    0.4099 C.ar    1  LIG1       -0.0572
      7 C           1.1451    0.4450    0.4944 C.ar    1  LIG1       -0.0426
      8 H          -0.8407   -0.2269    0.9313 H       1  LIG1        0.0621
      9 H          -1.9694    1.5172   -0.3804 H       1  LIG1        0.0629
     10 S          -1.0043    3.7333   -1.8949 S.3     1  LIG1       -0.1426
     11 H           0.0476    4.1816   -2.5981 H       1  LIG1        0.1071
     12 C           1.8131   -0.6399    1.2959 C.3     1  LIG1       -0.0391
     13 H           1.0728   -1.2436    1.8249 H       1  LIG1        0.0278
     14 H           2.5049   -0.2247    2.0339 H       1  LIG1        0.0278
     15 H           2.3937   -1.3063    0.6509 H       1  LIG1        0.0278
     16 C           4.1657    0.6269   -0.9714 C.ar    1  LIG1        0.0130
     17 C           5.5542    0.6761   -0.8705 C.ar    1  LIG1       -0.0400
     18 C           3.3875    1.4219   -0.1240 C.ar    1  LIG1       -0.0042
     19 C           6.1870    1.4965    0.0589 C.ar    1  LIG1       -0.0129
     20 H           6.1682    0.0664   -1.5258 H       1  LIG1        0.0635
     21 C           4.0359    2.2491    0.7924 C.ar    1  LIG1       -0.0495
     22 C           5.4209    2.3074    0.9102 C.ar    1  LIG1       -0.0421
     23 H           3.4251    2.8706    1.4409 H       1  LIG1        0.0627
     24 S           3.3454   -0.4056   -2.1701 S.3     1  LIG1       -0.1420
     25 H           4.4570   -1.0134   -2.6148 H       1  LIG1        0.1071
     26 C           6.0679    3.2160    1.9208 C.3     1  LIG1       -0.0391
     27 H           5.3198    3.8284    2.4281 H       1  LIG1        0.0278
     28 H           6.7947    3.8844    1.4511 H       1  LIG1        0.0278
     29 H           6.6054    2.6404    2.6804 H       1  LIG1        0.0278
     30 C           8.3968    0.7448    1.0277 C.ar    1  LIG1        0.0130
     31 C           9.7889    0.7940    1.0228 C.ar    1  LIG1       -0.0400
     32 C           7.6795    1.5153    0.1069 C.ar    1  LIG1       -0.0042
     33 C          10.4847    1.5977    0.1242 C.ar    1  LIG1       -0.0129
     34 H          10.3561    0.1968    1.7297 H       1  LIG1        0.0635
     35 C           8.3904    2.3063   -0.7950 C.ar    1  LIG1       -0.0495
     36 C           9.7799    2.3718   -0.8103 C.ar    1  LIG1       -0.0421
     37 H           7.8267    2.8952   -1.5128 H       1  LIG1        0.0627
     38 S           7.4957   -0.2945    2.1605 S.3     1  LIG1       -0.1420
     39 H           8.5665   -0.6965    2.8637 H       1  LIG1        0.1071
     40 C          10.4958    3.2472   -1.8035 C.3     1  LIG1       -0.0391
     41 H           9.7886    3.7099   -2.4948 H       1  LIG1        0.0278
     42 H          11.2220    2.6770   -2.3894 H       1  LIG1        0.0278
     43 H          11.0467    4.0463   -1.2985 H       1  LIG1        0.0278
     44 C          12.7015    2.5680    0.8517 C.ar    1  LIG1        0.0125
     45 C          14.0951    2.5176    0.8513 C.ar    1  LIG1       -0.0477
     46 C          11.9781    1.5914    0.1570 C.ar    1  LIG1       -0.0042
     47 C          14.7641    1.5114    0.1721 C.ar    1  LIG1       -0.0578
     48 H          14.6653    3.2702    1.3866 H       1  LIG1        0.0629
     49 C          12.6767    0.5854   -0.5114 C.ar    1  LIG1       -0.0501
     50 C          14.0669    0.5218   -0.5192 C.ar    1  LIG1       -0.0498
     51 H          12.1042   -0.1678   -1.0455 H       1  LIG1        0.0627
     52 H          15.8502    1.4962    0.1829 H       1  LIG1        0.0621
     53 S          11.8019    3.8348    1.7248 S.3     1  LIG1       -0.1420
     54 H          12.8827    4.5244    2.1236 H       1  LIG1        0.1071
     55 C          14.7939   -0.5889   -1.2297 C.3     1  LIG1       -0.0397
     56 H          14.1592   -1.0639   -1.9810 H       1  LIG1        0.0278
     57 H          15.1105   -1.3675   -0.5274 H       1  LIG1        0.0278
     58 H          15.6926   -0.2201   -1.7310 H       1  LIG1        0.0278
@<TRIPOS>BOND
     1    25    24    1
     2    11    10    1
     3    41    40    1
     4    42    40    1
     5    24    16    1
     6    56    55    1
     7    10     1    1
     8    40    43    1
     9    40    36    1
    10    58    55    1
    11    20    17    1
    12    37    35    1
    13     5     2    1
    14    55    57    1
    15    55    50    1
    16    51    49    1
    17     1     2   ar
    18     1     3   ar
    19    16    17   ar
    20    16    18   ar
    21     2     4   ar
    22    17    19   ar
    23    36    35   ar
    24    36    33   ar
    25    35    32   ar
    26    50    49   ar
    27    50    47   ar
    28    49    46   ar
    29     9     3    1
    30     3     6   ar
    31     4    18    1
    32     4     7   ar
    33    18    21   ar
    34    19    32    1
    35    19    22   ar
    36    32    30   ar
    37    33    46    1
    38    33    31   ar
    39    46    44   ar
    40    47    52    1
    41    47    45   ar
    42     6     7   ar
    43     6     8    1
    44     7    12    1
    45    15    12    1
    46    21    22   ar
    47    21    23    1
    48    45    44   ar
    49    45    48    1
    50    44    53    1
    51    22    26    1
    52    31    30   ar
    53    31    34    1
    54    30    38    1
    55    12    13    1
    56    12    14    1
    57    28    26    1
    58    53    54    1
    59    26    27    1
    60    26    29    1
    61    38    39    1
