@<TRIPOS>MOLECULE
mol_data/opt/cam/geoms/mol2/4gi4gi-4gi-4gi.out
 58 61 0 0 0
SMALL
GASTEIGER

@<TRIPOS>ATOM
      1 C          -0.1369    2.4644   -1.0000 C.ar    1  LIG1        0.0053
      2 C           1.2520    2.4155   -0.9199 C.ar    1  LIG1       -0.0406
      3 C          -0.8855    1.5013   -0.3307 C.ar    1  LIG1       -0.0483
      4 C           1.8952    1.4160   -0.1923 C.ar    1  LIG1       -0.0129
      5 H           1.8565    3.1610   -1.4268 H       1  LIG1        0.0635
      6 C          -0.2436    0.5153    0.4051 C.ar    1  LIG1       -0.0572
      7 C           1.1450    0.4452    0.4902 C.ar    1  LIG1       -0.0426
      8 H          -0.8409   -0.2268    0.9264 H       1  LIG1        0.0621
      9 H          -1.9692    1.5169   -0.3861 H       1  LIG1        0.0629
     10 S          -1.0038    3.7327   -1.9009 S.3     1  LIG1       -0.1426
     11 H           0.0486    4.1819   -2.6026 H       1  LIG1        0.1071
     12 C           1.8128   -0.6396    1.2920 C.3     1  LIG1       -0.0391
     13 H           1.0724   -1.2429    1.8213 H       1  LIG1        0.0278
     14 H           2.5047   -0.2242    2.0299 H       1  LIG1        0.0278
     15 H           2.3933   -1.3063    0.6473 H       1  LIG1        0.0278
     16 C           4.1660    0.6271   -0.9748 C.ar    1  LIG1        0.0130
     17 C           5.5545    0.6763   -0.8734 C.ar    1  LIG1       -0.0400
     18 C           3.3875    1.4220   -0.1277 C.ar    1  LIG1       -0.0042
     19 C           6.1870    1.4967    0.0562 C.ar    1  LIG1       -0.0129
     20 H           6.1687    0.0665   -1.5284 H       1  LIG1        0.0635
     21 C           4.0356    2.2493    0.7890 C.ar    1  LIG1       -0.0495
     22 C           5.4206    2.3076    0.9073 C.ar    1  LIG1       -0.0421
     23 H           3.4246    2.8708    1.4373 H       1  LIG1        0.0627
     24 S           3.3461   -0.4056   -2.1736 S.3     1  LIG1       -0.1420
     25 H           4.4579   -1.0134   -2.6179 H       1  LIG1        0.1071
     26 C           6.0673    3.2160    1.9182 C.3     1  LIG1       -0.0391
     27 H           5.3189    3.8278    2.4259 H       1  LIG1        0.0278
     28 H           6.7937    3.8850    1.4487 H       1  LIG1        0.0278
     29 H           6.6052    2.6404    2.6774 H       1  LIG1        0.0278
     30 C           8.3962    0.7439    1.0251 C.ar    1  LIG1        0.0130
     31 C           9.7884    0.7930    1.0209 C.ar    1  LIG1       -0.0400
     32 C           7.6795    1.5154    0.1049 C.ar    1  LIG1       -0.0042
     33 C          10.4846    1.5977    0.1237 C.ar    1  LIG1       -0.0129
     34 H          10.3552    0.1950    1.7275 H       1  LIG1        0.0635
     35 C           8.3908    2.3075   -0.7958 C.ar    1  LIG1       -0.0495
     36 C           9.7803    2.3729   -0.8104 C.ar    1  LIG1       -0.0421
     37 H           7.8274    2.8972   -1.5132 H       1  LIG1        0.0627
     38 S           7.4945   -0.2964    2.1565 S.3     1  LIG1       -0.1420
     39 H           8.5649   -0.6992    2.8598 H       1  LIG1        0.1071
     40 C          10.4968    3.2492   -1.8024 C.3     1  LIG1       -0.0391
     41 H           9.7897    3.7134   -2.4929 H       1  LIG1        0.0278
     42 H          11.2224    2.6792   -2.3893 H       1  LIG1        0.0278
     43 H          11.0483    4.0472   -1.2964 H       1  LIG1        0.0278
     44 C          12.7013    2.5670    0.8529 C.ar    1  LIG1        0.0125
     45 C          14.0948    2.5164    0.8531 C.ar    1  LIG1       -0.0477
     46 C          11.9780    1.5912    0.1570 C.ar    1  LIG1       -0.0042
     47 C          14.7640    1.5107    0.1734 C.ar    1  LIG1       -0.0578
     48 H          14.6650    3.2685    1.3893 H       1  LIG1        0.0629
     49 C          12.6767    0.5856   -0.5118 C.ar    1  LIG1       -0.0501
     50 C          14.0669    0.5218   -0.5191 C.ar    1  LIG1       -0.0498
     51 H          12.1043   -0.1671   -1.0468 H       1  LIG1        0.0627
     52 H          15.8501    1.4953    0.1846 H       1  LIG1        0.0621
     53 S          11.8015    3.8332    1.7267 S.3     1  LIG1       -0.1420
     54 H          12.8823    4.5222    2.1268 H       1  LIG1        0.1071
     55 C          14.7941   -0.5883   -1.2303 C.3     1  LIG1       -0.0397
     56 H          14.1581   -1.0658   -1.9789 H       1  LIG1        0.0278
     57 H          15.1148   -1.3652   -0.5280 H       1  LIG1        0.0278
     58 H          15.6903   -0.2181   -1.7352 H       1  LIG1        0.0278
@<TRIPOS>BOND
     1    25    24    1
     2    11    10    1
     3    41    40    1
     4    42    40    1
     5    24    16    1
     6    56    55    1
     7    10     1    1
     8    40    43    1
     9    40    36    1
    10    58    55    1
    11    20    17    1
    12    37    35    1
    13     5     2    1
    14    55    57    1
    15    55    50    1
    16    51    49    1
    17     1     2   ar
    18     1     3   ar
    19    16    17   ar
    20    16    18   ar
    21     2     4   ar
    22    17    19   ar
    23    36    35   ar
    24    36    33   ar
    25    35    32   ar
    26    50    49   ar
    27    50    47   ar
    28    49    46   ar
    29     9     3    1
    30     3     6   ar
    31     4    18    1
    32     4     7   ar
    33    18    21   ar
    34    19    32    1
    35    19    22   ar
    36    32    30   ar
    37    33    46    1
    38    33    31   ar
    39    46    44   ar
    40    47    52    1
    41    47    45   ar
    42     6     7   ar
    43     6     8    1
    44     7    12    1
    45    15    12    1
    46    21    22   ar
    47    21    23    1
    48    44    45   ar
    49    44    53    1
    50    45    48    1
    51    22    26    1
    52    31    30   ar
    53    31    34    1
    54    30    38    1
    55    12    13    1
    56    12    14    1
    57    28    26    1
    58    53    54    1
    59    26    27    1
    60    26    29    1
    61    38    39    1
