@<TRIPOS>MOLECULE
mol_data/opt/cam/geoms/mol2/4gi4gi4gi-4gi-.out
 58 61 0 0 0
SMALL
GASTEIGER

@<TRIPOS>ATOM
      1 C          -0.1423    2.4477   -0.9750 C.ar    1  LIG1        0.0053
      2 C           1.2470    2.4009   -0.9005 C.ar    1  LIG1       -0.0406
      3 C          -0.8869    1.4892   -0.2948 C.ar    1  LIG1       -0.0483
      4 C           1.8945    1.4079   -0.1677 C.ar    1  LIG1       -0.0129
      5 H           1.8485    3.1430   -1.4160 H       1  LIG1        0.0635
      6 C          -0.2407    0.5099    0.4462 C.ar    1  LIG1       -0.0572
      7 C           1.1483    0.4419    0.5258 C.ar    1  LIG1       -0.0426
      8 H          -0.8350   -0.2286    0.9761 H       1  LIG1        0.0621
      9 H          -1.9709    1.5032   -0.3455 H       1  LIG1        0.0629
     10 S          -1.0143    3.7077   -1.8823 S.3     1  LIG1       -0.1426
     11 H           0.0341    4.1510   -2.5937 H       1  LIG1        0.1071
     12 C           1.8208   -0.6357    1.3335 C.3     1  LIG1       -0.0391
     13 H           1.0833   -1.2351    1.8713 H       1  LIG1        0.0278
     14 H           2.5159   -0.2137    2.0644 H       1  LIG1        0.0278
     15 H           2.3985   -1.3074    0.6916 H       1  LIG1        0.0278
     16 C           4.1629    0.6151   -0.9534 C.ar    1  LIG1        0.0130
     17 C           5.5517    0.6667   -0.8584 C.ar    1  LIG1       -0.0400
     18 C           3.3871    1.4162   -0.1096 C.ar    1  LIG1       -0.0042
     19 C           6.1872    1.4956    0.0616 C.ar    1  LIG1       -0.0129
     20 H           6.1639    0.0523   -1.5110 H       1  LIG1        0.0635
     21 C           4.0381    2.2518    0.7973 C.ar    1  LIG1       -0.0495
     22 C           5.4235    2.3127    0.9091 C.ar    1  LIG1       -0.0421
     23 H           3.4292    2.8780    1.4430 H       1  LIG1        0.0627
     24 S           3.3390   -0.4284   -2.1402 S.3     1  LIG1       -0.1420
     25 H           4.4496   -1.0387   -2.5841 H       1  LIG1        0.1071
     26 C           6.0735    3.2304    1.9095 C.3     1  LIG1       -0.0391
     27 H           5.3265    3.8450    2.4159 H       1  LIG1        0.0278
     28 H           6.7964    3.8969    1.4310 H       1  LIG1        0.0278
     29 H           6.6161    2.6619    2.6707 H       1  LIG1        0.0278
     30 C           8.4017    0.7539    1.0272 C.ar    1  LIG1        0.0130
     31 C           9.7937    0.8047    1.0164 C.ar    1  LIG1       -0.0400
     32 C           7.6799    1.5166    0.1035 C.ar    1  LIG1       -0.0042
     33 C          10.4850    1.6025    0.1092 C.ar    1  LIG1       -0.0129
     34 H          10.3645    0.2135    1.7256 H       1  LIG1        0.0635
     35 C           8.3862    2.3017   -0.8070 C.ar    1  LIG1       -0.0495
     36 C           9.7757    2.3688   -0.8283 C.ar    1  LIG1       -0.0421
     37 H           7.8190    2.8846   -1.5270 H       1  LIG1        0.0627
     38 S           7.5062   -0.2778    2.1714 S.3     1  LIG1       -0.1420
     39 H           8.5802   -0.6733    2.8733 H       1  LIG1        0.1071
     40 C          10.4866    3.2376   -1.8309 C.3     1  LIG1       -0.0391
     41 H           9.7760    3.6943   -2.5227 H       1  LIG1        0.0278
     42 H          11.2110    2.6638   -2.4155 H       1  LIG1        0.0278
     43 H          11.0386    4.0410   -1.3340 H       1  LIG1        0.0278
     44 C          12.7036    2.5809    0.8204 C.ar    1  LIG1        0.0125
     45 C          14.0972    2.5321    0.8150 C.ar    1  LIG1       -0.0477
     46 C          11.9786    1.5982    0.1361 C.ar    1  LIG1       -0.0042
     47 C          14.7647    1.5215    0.1409 C.ar    1  LIG1       -0.0578
     48 H          14.6686    3.2895    1.3421 H       1  LIG1        0.0629
     49 C          12.6757    0.5878   -0.5272 C.ar    1  LIG1       -0.0501
     50 C          14.0659    0.5258   -0.5400 C.ar    1  LIG1       -0.0498
     51 H          12.1020   -0.1701   -1.0533 H       1  LIG1        0.0627
     52 H          15.8509    1.5077    0.1474 H       1  LIG1        0.0621
     53 S          11.8058    3.8534    1.6873 S.3     1  LIG1       -0.1420
     54 H          12.8874    4.5473    2.0766 H       1  LIG1        0.1071
     55 C          14.7914   -0.5896   -1.2446 C.3     1  LIG1       -0.0397
     56 H          14.1550   -1.0697   -1.9913 H       1  LIG1        0.0278
     57 H          15.1096   -1.3635   -0.5379 H       1  LIG1        0.0278
     58 H          15.6889   -0.2241   -1.7505 H       1  LIG1        0.0278
@<TRIPOS>BOND
     1    11    10    1
     2    25    24    1
     3    41    40    1
     4    42    40    1
     5    24    16    1
     6    56    55    1
     7    10     1    1
     8    40    43    1
     9    40    36    1
    10    58    55    1
    11    37    35    1
    12    20    17    1
    13     5     2    1
    14    55    50    1
    15    55    57    1
    16    51    49    1
    17     1     2   ar
    18     1     3   ar
    19    16    17   ar
    20    16    18   ar
    21     2     4   ar
    22    17    19   ar
    23    36    35   ar
    24    36    33   ar
    25    35    32   ar
    26    50    49   ar
    27    50    47   ar
    28    49    46   ar
    29     9     3    1
    30     3     6   ar
    31     4    18    1
    32     4     7   ar
    33    18    21   ar
    34    19    32    1
    35    19    22   ar
    36    32    30   ar
    37    33    46    1
    38    33    31   ar
    39    46    44   ar
    40    47    52    1
    41    47    45   ar
    42     6     7   ar
    43     6     8    1
    44     7    12    1
    45    15    12    1
    46    21    22   ar
    47    21    23    1
    48    45    44   ar
    49    45    48    1
    50    44    53    1
    51    22    26    1
    52    31    30   ar
    53    31    34    1
    54    30    38    1
    55    12    13    1
    56    12    14    1
    57    28    26    1
    58    53    54    1
    59    26    27    1
    60    26    29    1
    61    38    39    1
