@<TRIPOS>MOLECULE
mol_data/opt/cam/geoms/mol2/4gi4gi-.out
 30 31 0 0 0
SMALL
GASTEIGER

@<TRIPOS>ATOM
      1 C           0.0935    0.4429   -1.0777 C.ar    1  LIG1        0.0053
      2 C           1.4797    0.4751   -0.9550 C.ar    1  LIG1       -0.0406
      3 C          -0.6765    1.2452   -0.2412 C.ar    1  LIG1       -0.0483
      4 C           2.0993    1.2868   -0.0065 C.ar    1  LIG1       -0.0129
      5 H           2.1010   -0.1374   -1.6009 H       1  LIG1        0.0635
      6 C          -0.0574    2.0625    0.6938 C.ar    1  LIG1       -0.0572
      7 C           1.3277    2.1024    0.8363 C.ar    1  LIG1       -0.0426
      8 H          -0.6708    2.6868    1.3367 H       1  LIG1        0.0621
      9 H          -1.7591    1.2305   -0.3156 H       1  LIG1        0.0629
     10 S          -0.7410   -0.5646   -2.2857 S.3     1  LIG1       -0.1426
     11 H           0.3116   -1.3310   -2.6115 H       1  LIG1        0.1071
     12 C           1.9688    2.9966    1.8635 C.3     1  LIG1       -0.0391
     13 H           1.2190    3.6138    2.3628 H       1  LIG1        0.0278
     14 H           2.7095    3.6612    1.4101 H       1  LIG1        0.0278
     15 H           2.4872    2.4106    2.6283 H       1  LIG1        0.0278
     16 C           4.2863    0.5152    1.0003 C.ar    1  LIG1        0.0125
     17 C           5.6802    0.5554    1.0237 C.ar    1  LIG1       -0.0477
     18 C           3.5917    1.2926    0.0661 C.ar    1  LIG1       -0.0042
     19 C           6.3779    1.3541    0.1316 C.ar    1  LIG1       -0.0578
     20 H           6.2280   -0.0436    1.7444 H       1  LIG1        0.0629
     21 C           4.3196    2.0811   -0.8260 C.ar    1  LIG1       -0.0501
     22 C           5.7103    2.1297   -0.8152 C.ar    1  LIG1       -0.0498
     23 H           3.7693    2.6777   -1.5482 H       1  LIG1        0.0627
     24 H           7.4634    1.3714    0.1723 H       1  LIG1        0.0621
     25 S           3.3528   -0.5135    2.1170 S.3     1  LIG1       -0.1420
     26 H           4.4107   -0.9550    2.8162 H       1  LIG1        0.1071
     27 C           6.4704    2.9722   -1.8049 C.3     1  LIG1       -0.0397
     28 H           5.8290    3.7322   -2.2565 H       1  LIG1        0.0278
     29 H           6.8763    2.3596   -2.6170 H       1  LIG1        0.0278
     30 H           7.3140    3.4809   -1.3306 H       1  LIG1        0.0278
@<TRIPOS>BOND
     1    29    27    1
     2    11    10    1
     3    10     1    1
     4    28    27    1
     5    27    30    1
     6    27    22    1
     7     5     2    1
     8    23    21    1
     9     1     2   ar
    10     1     3   ar
    11     2     4   ar
    12    21    22   ar
    13    21    18   ar
    14    22    19   ar
    15     9     3    1
    16     3     6   ar
    17     4    18    1
    18     4     7   ar
    19    18    16   ar
    20    19    24    1
    21    19    17   ar
    22     6     7   ar
    23     6     8    1
    24     7    12    1
    25    16    17   ar
    26    16    25    1
    27    17    20    1
    28    14    12    1
    29    12    13    1
    30    12    15    1
    31    25    26    1
