@<TRIPOS>MOLECULE
mol_data/opt/cam/geoms/mol2/4gi4gi-4gi.out
 44 46 0 0 0
SMALL
GASTEIGER

@<TRIPOS>ATOM
      1 C           0.0039    1.4819   -1.4730 C.ar    1  LIG1        0.0053
      2 C           1.3904    1.4762   -1.3479 C.ar    1  LIG1       -0.0406
      3 C          -0.7771    1.3446   -0.3299 C.ar    1  LIG1       -0.0483
      4 C           1.9993    1.3241   -0.1036 C.ar    1  LIG1       -0.0129
      5 H           2.0196    1.5907   -2.2250 H       1  LIG1        0.0635
      6 C          -0.1690    1.2087    0.9102 C.ar    1  LIG1       -0.0572
      7 C           1.2163    1.1912    1.0541 C.ar    1  LIG1       -0.0426
      8 H          -0.7912    1.1073    1.7944 H       1  LIG1        0.0621
      9 H          -1.8596    1.3385   -0.4063 H       1  LIG1        0.0629
     10 S          -0.8176    1.6937   -3.0391 S.3     1  LIG1       -0.1426
     11 H           0.2412    1.4166   -3.8163 H       1  LIG1        0.1071
     12 C           1.8465    1.0336    2.4120 C.3     1  LIG1       -0.0391
     13 H           1.0868    1.0453    3.1963 H       1  LIG1        0.0278
     14 H           2.5617    1.8346    2.6178 H       1  LIG1        0.0278
     15 H           2.3929    0.0884    2.4853 H       1  LIG1        0.0278
     16 C           4.2428    0.1631    0.0105 C.ar    1  LIG1        0.0130
     17 C           5.6323    0.2403    0.0729 C.ar    1  LIG1       -0.0400
     18 C           3.4911    1.3418   -0.0281 C.ar    1  LIG1       -0.0042
     19 C           6.2920    1.4656    0.1030 C.ar    1  LIG1       -0.0129
     20 H           6.2262   -0.6679    0.0985 H       1  LIG1        0.0635
     21 C           4.1663    2.5617   -0.0108 C.ar    1  LIG1       -0.0495
     22 C           5.5526    2.6574    0.0563 C.ar    1  LIG1       -0.0421
     23 H           3.5761    3.4727   -0.0504 H       1  LIG1        0.0627
     24 S           3.3887   -1.3998   -0.0480 S.3     1  LIG1       -0.1420
     25 H           4.4791   -2.1619    0.1337 H       1  LIG1        0.1071
     26 C           6.2286    4.0023    0.0736 C.3     1  LIG1       -0.0391
     27 H           5.4997    4.8051   -0.0537 H       1  LIG1        0.0278
     28 H           6.9715    4.0865   -0.7244 H       1  LIG1        0.0278
     29 H           6.7523    4.1679    1.0198 H       1  LIG1        0.0278
     30 C           8.4798    1.6375    1.3563 C.ar    1  LIG1        0.0125
     31 C           9.8743    1.6425    1.3473 C.ar    1  LIG1       -0.0477
     32 C           7.7850    1.4798    0.1513 C.ar    1  LIG1       -0.0042
     33 C          10.5724    1.4916    0.1595 C.ar    1  LIG1       -0.0578
     34 H          10.4224    1.7643    2.2763 H       1  LIG1        0.0629
     35 C           8.5129    1.3214   -1.0286 C.ar    1  LIG1       -0.0501
     36 C           9.9043    1.3228   -1.0524 C.ar    1  LIG1       -0.0498
     37 H           7.9625    1.1978   -1.9571 H       1  LIG1        0.0627
     38 H          11.6585    1.5033    0.1778 H       1  LIG1        0.0621
     39 S           7.5446    1.8089    2.8637 S.3     1  LIG1       -0.1420
     40 H           8.6040    2.0056    3.6648 H       1  LIG1        0.1071
     41 C          10.6639    1.1271   -2.3376 C.3     1  LIG1       -0.0397
     42 H          10.0335    1.3256   -3.2071 H       1  LIG1        0.0278
     43 H          11.0331    0.0999   -2.4268 H       1  LIG1        0.0278
     44 H          11.5323    1.7890   -2.3921 H       1  LIG1        0.0278
@<TRIPOS>BOND
     1    11    10    1
     2    42    41    1
     3    10     1    1
     4    43    41    1
     5    44    41    1
     6    41    36    1
     7     5     2    1
     8    37    35    1
     9     1     2   ar
    10     1     3   ar
    11     2     4   ar
    12    36    35   ar
    13    36    33   ar
    14    35    32   ar
    15    28    26    1
    16     9     3    1
    17     3     6   ar
    18     4    18    1
    19     4     7   ar
    20    27    26    1
    21    23    21    1
    22    24    16    1
    23    24    25    1
    24    18    21   ar
    25    18    16   ar
    26    21    22   ar
    27    16    17   ar
    28    22    26    1
    29    22    19   ar
    30    17    20    1
    31    17    19   ar
    32    26    29    1
    33    19    32    1
    34    32    30   ar
    35    33    38    1
    36    33    31   ar
    37     6     7   ar
    38     6     8    1
    39     7    12    1
    40    31    30   ar
    41    31    34    1
    42    30    39    1
    43    12    15    1
    44    12    14    1
    45    12    13    1
    46    39    40    1
