@<TRIPOS>MOLECULE
mol_data/opt/cam/geoms/mol2/4gi4gi4gi4gi.out
 58 61 0 0 0
SMALL
GASTEIGER

@<TRIPOS>ATOM
      1 C          -0.1440    2.4623   -0.9435 C.ar    1  LIG1        0.0053
      2 C           1.2455    2.4144   -0.8722 C.ar    1  LIG1       -0.0406
      3 C          -0.8874    1.4939   -0.2762 C.ar    1  LIG1       -0.0483
      4 C           1.8942    1.4106   -0.1554 C.ar    1  LIG1       -0.0129
      5 H           1.8461    3.1640   -1.3777 H       1  LIG1        0.0635
      6 C          -0.2400    0.5037    0.4491 C.ar    1  LIG1       -0.0572
      7 C           1.1492    0.4345    0.5251 C.ar    1  LIG1       -0.0426
      8 H          -0.8333   -0.2425    0.9690 H       1  LIG1        0.0621
      9 H          -1.9715    1.5088   -0.3248 H       1  LIG1        0.0629
     10 S          -1.0176    3.7358   -1.8304 S.3     1  LIG1       -0.1426
     11 H           0.0295    4.1892   -2.5374 H       1  LIG1        0.1071
     12 C           1.8230   -0.6550    1.3155 C.3     1  LIG1       -0.0391
     13 H           1.0865   -1.2621    1.8459 H       1  LIG1        0.0278
     14 H           2.5196   -0.2439    2.0513 H       1  LIG1        0.0278
     15 H           2.3994   -1.3172    0.6626 H       1  LIG1        0.0278
     16 C           4.1611    0.6293   -0.9568 C.ar    1  LIG1        0.0130
     17 C           5.5501    0.6795   -0.8636 C.ar    1  LIG1       -0.0400
     18 C           3.3869    1.4180   -0.0999 C.ar    1  LIG1       -0.0042
     19 C           6.1873    1.4947    0.0673 C.ar    1  LIG1       -0.0129
     20 H           6.1610    0.0747   -1.5263 H       1  LIG1        0.0635
     21 C           4.0396    2.2401    0.8180 C.ar    1  LIG1       -0.0495
     22 C           5.4252    2.2993    0.9282 C.ar    1  LIG1       -0.0421
     23 H           3.4320    2.8568    1.4740 H       1  LIG1        0.0627
     24 S           3.3350   -0.3966   -2.1573 S.3     1  LIG1       -0.1420
     25 H           4.4447   -1.0003   -2.6121 H       1  LIG1        0.1071
     26 C           6.0771    3.2021    1.9408 C.3     1  LIG1       -0.0391
     27 H           5.3311    3.8091    2.4576 H       1  LIG1        0.0278
     28 H           6.7991    3.8756    1.4709 H       1  LIG1        0.0278
     29 H           6.6212    2.6224    2.6925 H       1  LIG1        0.0278
     30 C           8.4035    0.7386    1.0178 C.ar    1  LIG1        0.0130
     31 C           9.7955    0.7895    1.0053 C.ar    1  LIG1       -0.0400
     32 C           7.6801    1.5151    0.1068 C.ar    1  LIG1       -0.0042
     33 C          10.4852    1.6007    0.1088 C.ar    1  LIG1       -0.0129
     34 H          10.3675    0.1878    1.7045 H       1  LIG1        0.0635
     35 C           8.3848    2.3136   -0.7931 C.ar    1  LIG1       -0.0495
     36 C           9.7742    2.3809   -0.8159 C.ar    1  LIG1       -0.0421
     37 H           7.8164    2.9072   -1.5033 H       1  LIG1        0.0627
     38 S           7.5100   -0.3100    2.1481 S.3     1  LIG1       -0.1420
     39 H           8.5853   -0.7159    2.8422 H       1  LIG1        0.1071
     40 C          10.4834    3.2646   -1.8067 C.3     1  LIG1       -0.0391
     41 H           9.7716    3.7314   -2.4905 H       1  LIG1        0.0278
     42 H          11.2069    2.6996   -2.4009 H       1  LIG1        0.0278
     43 H          11.0361    4.0606   -1.2989 H       1  LIG1        0.0278
     44 C          12.7051    2.5684    0.8305 C.ar    1  LIG1        0.0125
     45 C          14.0987    2.5196    0.8218 C.ar    1  LIG1       -0.0477
     46 C          11.9788    1.5959    0.1329 C.ar    1  LIG1       -0.0042
     47 C          14.7649    1.5191    0.1315 C.ar    1  LIG1       -0.0578
     48 H          14.6711    3.2690    1.3591 H       1  LIG1        0.0629
     49 C          12.6747    0.5956   -0.5466 C.ar    1  LIG1       -0.0501
     50 C          14.0649    0.5337   -0.5629 C.ar    1  LIG1       -0.0498
     51 H          12.1000   -0.1544   -1.0829 H       1  LIG1        0.0627
     52 H          15.8511    1.5051    0.1359 H       1  LIG1        0.0621
     53 S          11.8090    3.8278    1.7178 S.3     1  LIG1       -0.1420
     54 H          12.8914    4.5159    2.1153 H       1  LIG1        0.1071
     55 C          14.7890   -0.5711   -1.2854 C.3     1  LIG1       -0.0397
     56 H          14.1513   -1.0399   -2.0380 H       1  LIG1        0.0278
     57 H          15.1084   -1.3555   -0.5909 H       1  LIG1        0.0278
     58 H          15.6856   -0.1982   -1.7873 H       1  LIG1        0.0278
@<TRIPOS>BOND
     1    25    24    1
     2    11    10    1
     3    41    40    1
     4    42    40    1
     5    24    16    1
     6    56    55    1
     7    10     1    1
     8    40    43    1
     9    40    36    1
    10    58    55    1
    11    20    17    1
    12    37    35    1
    13     5     2    1
    14    55    57    1
    15    55    50    1
    16    51    49    1
    17    16    17   ar
    18    16    18   ar
    19     1     2   ar
    20     1     3   ar
    21     2     4   ar
    22    17    19   ar
    23    36    35   ar
    24    36    33   ar
    25    35    32   ar
    26    50    49   ar
    27    50    47   ar
    28    49    46   ar
    29     9     3    1
    30     3     6   ar
    31     4    18    1
    32     4     7   ar
    33    18    21   ar
    34    19    32    1
    35    19    22   ar
    36    32    30   ar
    37    33    46    1
    38    33    31   ar
    39    47    52    1
    40    47    45   ar
    41    46    44   ar
    42     6     7   ar
    43     6     8    1
    44     7    12    1
    45    15    12    1
    46    21    22   ar
    47    21    23    1
    48    45    44   ar
    49    45    48    1
    50    44    53    1
    51    22    26    1
    52    31    30   ar
    53    31    34    1
    54    30    38    1
    55    12    13    1
    56    12    14    1
    57    28    26    1
    58    53    54    1
    59    26    27    1
    60    26    29    1
    61    38    39    1
