@<TRIPOS>MOLECULE
mol_data/opt/cam/geoms/mol2/4gi4gi-4gi-.out
 44 46 0 0 0
SMALL
GASTEIGER

@<TRIPOS>ATOM
      1 C           0.0214    1.4638   -1.5348 C.ar    1  LIG1        0.0053
      2 C           1.4063    1.4588   -1.3934 C.ar    1  LIG1       -0.0406
      3 C          -0.7730    1.3443   -0.3989 C.ar    1  LIG1       -0.0483
      4 C           2.0005    1.3249   -0.1400 C.ar    1  LIG1       -0.0129
      5 H           2.0458    1.5595   -2.2647 H       1  LIG1        0.0635
      6 C          -0.1795    1.2267    0.8501 C.ar    1  LIG1       -0.0572
      7 C           1.2040    1.2102    1.0104 C.ar    1  LIG1       -0.0426
      8 H          -0.8122    1.1392    1.7284 H       1  LIG1        0.0621
      9 H          -1.8546    1.3381   -0.4877 H       1  LIG1        0.0629
     10 S          -0.7816    1.6527   -3.1133 S.3     1  LIG1       -0.1426
     11 H           0.2859    1.3636   -3.8738 H       1  LIG1        0.1071
     12 C           1.8181    1.0727    2.3778 C.3     1  LIG1       -0.0391
     13 H           1.0493    1.0966    3.1528 H       1  LIG1        0.0278
     14 H           2.5313    1.8764    2.5799 H       1  LIG1        0.0278
     15 H           2.3631    0.1286    2.4717 H       1  LIG1        0.0278
     16 C           4.2414    0.1639    0.0178 C.ar    1  LIG1        0.0130
     17 C           5.6302    0.2410    0.0952 C.ar    1  LIG1       -0.0400
     18 C           3.4913    1.3425   -0.0474 C.ar    1  LIG1       -0.0042
     19 C           6.2907    1.4661    0.1142 C.ar    1  LIG1       -0.0129
     20 H           6.2228   -0.6672    0.1415 H       1  LIG1        0.0635
     21 C           4.1675    2.5620   -0.0408 C.ar    1  LIG1       -0.0495
     22 C           5.5531    2.6576    0.0409 C.ar    1  LIG1       -0.0421
     23 H           3.5787    3.4727   -0.1011 H       1  LIG1        0.0627
     24 S           3.3865   -1.3990   -0.0270 S.3     1  LIG1       -0.1420
     25 H           4.4741   -2.1590    0.1784 H       1  LIG1        0.1071
     26 C           6.2301    4.0019    0.0456 C.3     1  LIG1       -0.0391
     27 H           5.5034    4.8035   -0.1007 H       1  LIG1        0.0278
     28 H           6.9813    4.0740   -0.7459 H       1  LIG1        0.0278
     29 H           6.7443    4.1809    0.9946 H       1  LIG1        0.0278
     30 C           8.4640    1.6547    1.3900 C.ar    1  LIG1        0.0125
     31 C           9.8586    1.6583    1.3970 C.ar    1  LIG1       -0.0477
     32 C           7.7830    1.4798    0.1795 C.ar    1  LIG1       -0.0042
     33 C          10.5701    1.4892    0.2198 C.ar    1  LIG1       -0.0578
     34 H          10.3960    1.7932    2.3304 H       1  LIG1        0.0629
     35 C           8.5243    1.3034   -0.9895 C.ar    1  LIG1       -0.0501
     36 C           9.9158    1.3033   -0.9972 C.ar    1  LIG1       -0.0498
     37 H           7.9846    1.1664   -1.9223 H       1  LIG1        0.0627
     38 H          11.6560    1.5001    0.2505 H       1  LIG1        0.0621
     39 S           7.5116    1.8494    2.8837 S.3     1  LIG1       -0.1420
     40 H           8.5620    2.0570    3.6939 H       1  LIG1        0.1071
     41 C          10.6904    1.0890   -2.2705 C.3     1  LIG1       -0.0397
     42 H          10.0649    1.2563   -3.1501 H       1  LIG1        0.0278
     43 H          11.0771    0.0661   -2.3314 H       1  LIG1        0.0278
     44 H          11.5484    1.7636   -2.3334 H       1  LIG1        0.0278
@<TRIPOS>BOND
     1    11    10    1
     2    42    41    1
     3    10     1    1
     4    44    41    1
     5    43    41    1
     6    41    36    1
     7     5     2    1
     8    37    35    1
     9     1     2   ar
    10     1     3   ar
    11     2     4   ar
    12    36    35   ar
    13    36    33   ar
    14    35    32   ar
    15    28    26    1
    16     9     3    1
    17     3     6   ar
    18     4    18    1
    19     4     7   ar
    20    23    21    1
    21    27    26    1
    22    18    21   ar
    23    18    16   ar
    24    21    22   ar
    25    24    16    1
    26    24    25    1
    27    16    17   ar
    28    22    26    1
    29    22    19   ar
    30    26    29    1
    31    17    19   ar
    32    17    20    1
    33    19    32    1
    34    32    30   ar
    35    33    38    1
    36    33    31   ar
    37     6     7   ar
    38     6     8    1
    39     7    12    1
    40    30    31   ar
    41    30    39    1
    42    31    34    1
    43    12    15    1
    44    12    14    1
    45    12    13    1
    46    39    40    1
