@<TRIPOS>MOLECULE
mol_data/opt/cam/geoms/mol2/4gi4gi4gi-.out
 44 46 0 0 0
SMALL
GASTEIGER

@<TRIPOS>ATOM
      1 C           0.0204    1.4639   -1.5286 C.ar    1  LIG1        0.0053
      2 C           1.4054    1.4593   -1.3881 C.ar    1  LIG1       -0.0406
      3 C          -0.7732    1.3421   -0.3923 C.ar    1  LIG1       -0.0483
      4 C           2.0005    1.3236   -0.1354 C.ar    1  LIG1       -0.0129
      5 H           2.0442    1.5618   -2.2597 H       1  LIG1        0.0635
      6 C          -0.1789    1.2227    0.8560 C.ar    1  LIG1       -0.0572
      7 C           1.2048    1.2066    1.0154 C.ar    1  LIG1       -0.0426
      8 H          -0.8109    1.1334    1.7346 H       1  LIG1        0.0621
      9 H          -1.8549    1.3355   -0.4805 H       1  LIG1        0.0629
     10 S          -0.7838    1.6551   -3.1063 S.3     1  LIG1       -0.1426
     11 H           0.2834    1.3677   -3.8679 H       1  LIG1        0.1071
     12 C           1.8199    1.0671    2.3822 C.3     1  LIG1       -0.0391
     13 H           1.0515    1.0892    3.1577 H       1  LIG1        0.0278
     14 H           2.5328    1.8709    2.5852 H       1  LIG1        0.0278
     15 H           2.3655    0.1231    2.4741 H       1  LIG1        0.0278
     16 C           4.2420    0.1634    0.0190 C.ar    1  LIG1        0.0130
     17 C           5.6308    0.2410    0.0955 C.ar    1  LIG1       -0.0400
     18 C           3.4914    1.3417   -0.0437 C.ar    1  LIG1       -0.0042
     19 C           6.2907    1.4664    0.1162 C.ar    1  LIG1       -0.0129
     20 H           6.2239   -0.6669    0.1399 H       1  LIG1        0.0635
     21 C           4.1670    2.5616   -0.0355 C.ar    1  LIG1       -0.0495
     22 C           5.5525    2.6577    0.0454 C.ar    1  LIG1       -0.0421
     23 H           3.5776    3.4721   -0.0939 H       1  LIG1        0.0627
     24 S           3.3878   -1.3998   -0.0278 S.3     1  LIG1       -0.1420
     25 H           4.4760   -2.1597    0.1755 H       1  LIG1        0.1071
     26 C           6.2290    4.0024    0.0518 C.3     1  LIG1       -0.0391
     27 H           5.5017    4.8038   -0.0927 H       1  LIG1        0.0278
     28 H           6.9795    4.0761   -0.7400 H       1  LIG1        0.0278
     29 H           6.7437    4.1800    1.0008 H       1  LIG1        0.0278
     30 C           8.4650    1.6540    1.3905 C.ar    1  LIG1        0.0125
     31 C           9.8596    1.6580    1.3964 C.ar    1  LIG1       -0.0477
     32 C           7.7831    1.4808    0.1804 C.ar    1  LIG1       -0.0042
     33 C          10.5703    1.4910    0.2184 C.ar    1  LIG1       -0.0578
     34 H          10.3977    1.7915    2.3296 H       1  LIG1        0.0629
     35 C           8.5236    1.3064   -0.9896 C.ar    1  LIG1       -0.0501
     36 C           9.9150    1.3068   -0.9985 C.ar    1  LIG1       -0.0498
     37 H           7.9831    1.1705   -1.9222 H       1  LIG1        0.0627
     38 H          11.6561    1.5020    0.2483 H       1  LIG1        0.0621
     39 S           7.5138    1.8459    2.8853 S.3     1  LIG1       -0.1420
     40 H           8.5648    2.0528    3.6949 H       1  LIG1        0.1071
     41 C          10.6889    1.0956   -2.2727 C.3     1  LIG1       -0.0397
     42 H          10.0585    1.2484   -3.1513 H       1  LIG1        0.0278
     43 H          11.0903    0.0782   -2.3283 H       1  LIG1        0.0278
     44 H          11.5369    1.7822   -2.3425 H       1  LIG1        0.0278
@<TRIPOS>BOND
     1    11    10    1
     2    42    41    1
     3    10     1    1
     4    44    41    1
     5    43    41    1
     6    41    36    1
     7     5     2    1
     8    37    35    1
     9     1     2   ar
    10     1     3   ar
    11     2     4   ar
    12    36    35   ar
    13    36    33   ar
    14    35    32   ar
    15    28    26    1
    16     9     3    1
    17     3     6   ar
    18     4    18    1
    19     4     7   ar
    20    23    21    1
    21    27    26    1
    22    18    21   ar
    23    18    16   ar
    24    21    22   ar
    25    24    16    1
    26    24    25    1
    27    16    17   ar
    28    22    26    1
    29    22    19   ar
    30    26    29    1
    31    17    19   ar
    32    17    20    1
    33    19    32    1
    34    32    30   ar
    35    33    38    1
    36    33    31   ar
    37     6     7   ar
    38     6     8    1
    39     7    12    1
    40    30    31   ar
    41    30    39    1
    42    31    34    1
    43    12    15    1
    44    12    14    1
    45    12    13    1
    46    39    40    1
