@<TRIPOS>MOLECULE
mol_data/opt/cam/geoms/mol2/4gl.out
 17 17 0 0 0
SMALL
GASTEIGER

@<TRIPOS>ATOM
      1 C           0.0438    0.0169    0.0004 C.ar    1  LIG1        0.0050
      2 C           1.4301   -0.0560    0.0000 C.ar    1  LIG1       -0.0451
      3 C          -0.5645    1.2756    0.0003 C.ar    1  LIG1       -0.0451
      4 C           2.2088    1.0995   -0.0004 C.ar    1  LIG1       -0.0189
      5 H           1.9275   -1.0209    0.0001 H       1  LIG1        0.0630
      6 C           0.2008    2.4260   -0.0002 C.ar    1  LIG1       -0.0189
      7 C           1.5951    2.3479   -0.0006 C.ar    1  LIG1        0.1202
      8 H          -0.2619    3.4064   -0.0003 H       1  LIG1        0.0654
      9 H           3.2872    1.0055   -0.0007 H       1  LIG1        0.0654
     10 H          -1.6470    1.3548    0.0006 H       1  LIG1        0.0630
     11 S          -1.0094   -1.4209    0.0010 S.3     1  LIG1       -0.1426
     12 H          -0.0301   -2.3386    0.0011 H       1  LIG1        0.1071
     13 O           2.2563    3.5367   -0.0010 O.3     1  LIG1       -0.4951
     14 C           3.6666    3.5099   -0.0014 C.3     1  LIG1        0.0788
     15 H           3.9913    4.5501   -0.0018 H       1  LIG1        0.0660
     16 H           4.0620    3.0107    0.8912 H       1  LIG1        0.0660
     17 H           4.0614    3.0103   -0.8941 H       1  LIG1        0.0660
@<TRIPOS>BOND
     1    17    14    1
     2    15    14    1
     3    14    13    1
     4    14    16    1
     5    13     7    1
     6     9     4    1
     7     7     4   ar
     8     7     6   ar
     9     4     2   ar
    10     8     6    1
    11     6     3   ar
    12     2     5    1
    13     2     1   ar
    14     3     1   ar
    15     3    10    1
    16     1    11    1
    17    11    12    1
