@<TRIPOS>MOLECULE
mol_data/opt/cam/geoms/mol2/4ha12hl6hl12df.out
 51 54 0 0 0
SMALL
GASTEIGER

@<TRIPOS>ATOM
      1 C          -0.2490   -0.1535   -0.2122 C.ar    1  LIG1        0.0252
      2 C           1.1357   -0.0852   -0.0378 C.ar    1  LIG1       -0.0303
      3 C          -0.9179    0.9477   -0.7572 C.ar    1  LIG1       -0.0410
      4 C           1.8508    1.0589   -0.4055 C.ar    1  LIG1        0.0210
      5 H           1.6504   -0.9120    0.4424 H       1  LIG1        0.0643
      6 C          -0.2074    2.0863   -1.1091 C.ar    1  LIG1       -0.0594
      7 C           1.1677    2.1558   -0.9438 C.ar    1  LIG1       -0.0509
      8 H          -0.7394    2.9336   -1.5303 H       1  LIG1        0.0618
      9 H          -1.9949    0.9093   -0.8912 H       1  LIG1        0.0636
     10 N          -0.9572   -1.2726    0.2104 N.pl3   1  LIG1       -0.3579
     11 H          -1.8586   -1.4076   -0.2217 H       1  LIG1        0.1423
     12 H          -0.4273   -2.1281    0.2785 H       1  LIG1        0.1423
     13 H           1.7175    3.0402   -1.2424 H       1  LIG1        0.0625
     14 C           3.2934    1.0956   -0.2337 C.ar    1  LIG1        0.1600
     15 C           4.2588    0.1305   -0.1660 C.ar    1  LIG1        0.1139
     16 C           5.4997    0.8199   -0.0160 C.ar    1  LIG1        0.1871
     17 C           5.2389    2.1622   -0.0076 C.ar    1  LIG1        0.1824
     18 O           3.8954    2.3313   -0.1483 O.2     1  LIG1       -0.4490
     19 N           4.1507   -1.2583   -0.2128 N.pl3   1  LIG1       -0.3522
     20 H           3.3711   -1.5788   -0.7730 H       1  LIG1        0.1425
     21 H           5.0153   -1.6777   -0.5343 H       1  LIG1        0.1425
     22 O           6.7126    0.1958    0.0621 O.3     1  LIG1       -0.4896
     23 C           7.0374   -0.2444    1.3821 C.3     1  LIG1        0.0791
     24 H           7.9929   -0.7653    1.3117 H       1  LIG1        0.0660
     25 H           7.1320    0.6077    2.0625 H       1  LIG1        0.0660
     26 H           6.2726   -0.9282    1.7643 H       1  LIG1        0.0660
     27 C           5.6437    4.6182    0.4738 C.ar    1  LIG1        0.1281
     28 C           6.1017    3.3288    0.0933 C.ar    1  LIG1        0.0640
     29 C           7.4621    3.1860   -0.1752 C.ar    1  LIG1       -0.0036
     30 C           8.3190    4.2732   -0.0796 C.ar    1  LIG1        0.1498
     31 C           7.7649    5.5145    0.2521 C.ar    1  LIG1        0.1509
     32 N           6.4678    5.6596    0.5275 N.ar    1  LIG1       -0.2249
     33 H           7.8365    2.2086   -0.4505 H       1  LIG1        0.0663
     34 N           4.3469    4.8654    0.8463 N.pl3   1  LIG1       -0.3426
     35 H           4.1152    5.8433    0.9157 H       1  LIG1        0.1437
     36 H           3.6265    4.2296    0.5490 H       1  LIG1        0.1437
     37 O           9.6602    4.2152   -0.2651 O.3     1  LIG1       -0.4928
     38 C          10.2002    3.1126   -0.9663 C.3     1  LIG1        0.0789
     39 H          11.2301    3.3812   -1.1964 H       1  LIG1        0.0660
     40 H          10.1810    2.2018   -0.3563 H       1  LIG1        0.0660
     41 H           9.6595    2.9343   -1.9018 H       1  LIG1        0.0660
     42 C           8.5773    6.7325    0.3336 C.ar    1  LIG1        0.1776
     43 C           9.7173    7.1874   -0.2944 C.ar    1  LIG1        0.1404
     44 C           9.9522    8.5064    0.2185 C.ar    1  LIG1        0.1729
     45 C           8.9603    8.7575    1.1069 C.ar    1  LIG1        0.1353
     46 O           8.1256    7.6817    1.1724 O.2     1  LIG1       -0.4562
     47 H           8.7199    9.5958    1.7396 H       1  LIG1        0.1068
     48 N          11.1633    6.1536   -2.1594 N.1     1  LIG1       -0.1906
     49 C          10.5015    6.5837   -1.3129 C.1     1  LIG1        0.1067
     50 O          10.9953    9.2629   -0.1844 O.3     1  LIG1       -0.5028
     51 H          10.9653   10.1205    0.2547 H       1  LIG1        0.2923
@<TRIPOS>BOND
     1    48    49    3
     2    41    38    1
     3     8     6    1
     4    49    43    1
     5    13     7    1
     6    39    38    1
     7     6     7   ar
     8     6     3   ar
     9    38    40    1
    10    38    37    1
    11     7     4   ar
    12     9     3    1
    13    20    19    1
    14     3     1   ar
    15    21    19    1
    16    33    29    1
    17     4    14    1
    18     4     2   ar
    19    43    44   ar
    20    43    42   ar
    21    37    30    1
    22    14    15   ar
    23    14    18   ar
    24    11    10    1
    25    19    15    1
    26     1     2   ar
    27     1    10    1
    28    50    44    1
    29    50    51    1
    30    29    30   ar
    31    29    28   ar
    32    15    16   ar
    33    18    17   ar
    34    30    31   ar
    35     2     5    1
    36    16    17   ar
    37    16    22    1
    38    17    28    1
    39    22    23    1
    40    28    27   ar
    41    10    12    1
    42    44    45   ar
    43    31    42    1
    44    31    32   ar
    45    42    46   ar
    46    27    32   ar
    47    27    34    1
    48    36    34    1
    49    34    35    1
    50    45    46   ar
    51    45    47    1
    52    24    23    1
    53    23    26    1
    54    23    25    1
