@<TRIPOS>MOLECULE
mol_data/opt/cam/geoms/mol2/4ha6ld6ia12fl-.out
 52 55 0 0 0
SMALL
GASTEIGER

@<TRIPOS>ATOM
      1 C          -0.1204    0.0009   -0.3295 C.ar    1  LIG1        0.0251
      2 C           1.2735    0.0912   -0.2910 C.ar    1  LIG1       -0.0332
      3 C          -0.8737    1.1321   -0.0016 C.ar    1  LIG1       -0.0410
      4 C           1.9135    1.2790    0.0636 C.ar    1  LIG1       -0.0110
      5 H           1.8661   -0.7785   -0.5605 H       1  LIG1        0.0642
      6 C          -0.2379    2.3140    0.3473 C.ar    1  LIG1       -0.0594
      7 C           1.1469    2.4028    0.3805 C.ar    1  LIG1       -0.0537
      8 H          -0.8362    3.1837    0.5993 H       1  LIG1        0.0618
      9 H          -1.9583    1.0787   -0.0229 H       1  LIG1        0.0636
     10 N          -0.7426   -1.2025   -0.6431 N.pl3   1  LIG1       -0.3579
     11 H          -1.6880   -1.1255   -0.9868 H       1  LIG1        0.1423
     12 H          -0.1899   -1.8513   -1.1830 H       1  LIG1        0.1423
     13 H           1.6313    3.3317    0.6507 H       1  LIG1        0.0624
     14 C           4.1956    2.3565   -0.3591 C.ar    1  LIG1        0.2230
     15 C           3.3949    1.2996    0.1415 C.ar    1  LIG1        0.0450
     16 C           4.0939    0.2558    0.7127 C.ar    1  LIG1       -0.0295
     17 C           5.4961    0.2592    0.7695 C.ar    1  LIG1        0.0785
     18 C           6.1860    1.3500    0.2271 C.ar    1  LIG1        0.0938
     19 N           5.5145    2.3723   -0.3168 N.ar    1  LIG1       -0.2110
     20 H           3.5502   -0.5758    1.1468 H       1  LIG1        0.0639
     21 O           3.5628    3.3907   -0.9264 O.3     1  LIG1       -0.4792
     22 C           4.3608    4.4409   -1.4659 C.3     1  LIG1        0.0804
     23 H           3.6533    5.1393   -1.9105 H       1  LIG1        0.0660
     24 H           4.9390    4.9348   -0.6820 H       1  LIG1        0.0660
     25 H           5.0498    4.0598   -2.2220 H       1  LIG1        0.0660
     26 N           6.6761   -1.7347    1.9243 N.1     1  LIG1       -0.1908
     27 C           6.1662   -0.8334    1.4075 C.1     1  LIG1        0.1013
     28 C           8.3767    2.5670    0.6215 C.ar    1  LIG1        0.0482
     29 C           7.6672    1.4224    0.2034 C.ar    1  LIG1        0.0228
     30 C           8.4070    0.3419   -0.2718 C.ar    1  LIG1       -0.0487
     31 C           9.7867    0.4101   -0.3206 C.ar    1  LIG1       -0.0319
     32 C          10.4069    1.5758    0.1387 C.ar    1  LIG1        0.1101
     33 N           9.7060    2.6216    0.5936 N.ar    1  LIG1       -0.2480
     34 H           7.8992   -0.5473   -0.6291 H       1  LIG1        0.0625
     35 C           7.6975    3.7978    1.1566 C.3     1  LIG1       -0.0217
     36 H           6.8835    3.5504    1.8416 H       1  LIG1        0.0293
     37 H           7.2642    4.3820    0.3415 H       1  LIG1        0.0293
     38 H           8.4397    4.4059    1.6725 H       1  LIG1        0.0293
     39 H          10.3661   -0.3987   -0.7503 H       1  LIG1        0.0640
     40 C          11.8575    1.6875    0.1463 C.ar    1  LIG1        0.1979
     41 C          12.8483    0.7426    0.1495 C.ar    1  LIG1        0.2069
     42 C          14.0925    1.4496    0.1663 C.ar    1  LIG1        0.2002
     43 C          13.7651    2.7685    0.1822 C.ar    1  LIG1        0.1380
     44 O          12.4231    2.9267    0.1926 O.2     1  LIG1       -0.4538
     45 H          14.3654    3.6627    0.2131 H       1  LIG1        0.1069
     46 O          12.7514   -0.6143    0.1546 O.3     1  LIG1       -0.5008
     47 H          11.9300   -0.8734    0.5915 H       1  LIG1        0.2924
     48 O          15.3447    0.9356    0.2334 O.3     1  LIG1       -0.4888
     49 C          15.6620   -0.0003   -0.7910 C.3     1  LIG1        0.0791
     50 H          16.6881   -0.3194   -0.6070 H       1  LIG1        0.0660
     51 H          14.9973   -0.8676   -0.7576 H       1  LIG1        0.0660
     52 H          15.5996    0.4683   -1.7800 H       1  LIG1        0.0660
@<TRIPOS>BOND
     1    25    22    1
     2    23    22    1
     3    52    49    1
     4    22    21    1
     5    22    24    1
     6    12    10    1
     7    11    10    1
     8    21    14    1
     9    49    51    1
    10    49    50    1
    11    49    48    1
    12    39    31    1
    13    10     1    1
    14    34    30    1
    15     5     2    1
    16    14    19   ar
    17    14    15   ar
    18     1     2   ar
    19     1     3   ar
    20    31    30   ar
    21    31    32   ar
    22    19    18   ar
    23     2     4   ar
    24    30    29   ar
    25     9     3    1
    26     3     6   ar
    27     4    15    1
    28     4     7   ar
    29    32    40    1
    30    32    33   ar
    31    15    16   ar
    32    40    41   ar
    33    40    44   ar
    34    41    46    1
    35    41    42   ar
    36    46    47    1
    37    42    43   ar
    38    42    48    1
    39    43    44   ar
    40    43    45    1
    41    29    18    1
    42    29    28   ar
    43    18    17   ar
    44    37    35    1
    45     6     7   ar
    46     6     8    1
    47     7    13    1
    48    33    28   ar
    49    28    35    1
    50    16    17   ar
    51    16    20    1
    52    17    27    1
    53    35    38    1
    54    35    36    1
    55    27    26    3
