@<TRIPOS>MOLECULE
mol_data/opt/cam/geoms/mol2/4hd.out
 15 15 0 0 0
SMALL
GASTEIGER

@<TRIPOS>ATOM
      1 C           0.0858    0.0444   -0.0670 C.ar    1  LIG1        0.0246
      2 C           1.4884    0.0407   -0.0464 C.ar    1  LIG1       -0.0398
      3 C          -0.5843    1.2766   -0.0487 C.ar    1  LIG1       -0.0398
      4 C           2.1945    1.2272   -0.0091 C.ar    1  LIG1       -0.0426
      5 H           2.0205   -0.9055   -0.0557 H       1  LIG1        0.0636
      6 C           0.1238    2.4619   -0.0114 C.ar    1  LIG1       -0.0426
      7 C           1.5224    2.4538    0.0080 C.ar    1  LIG1        0.0519
      8 H          -0.4052    3.4082    0.0010 H       1  LIG1        0.0631
      9 H           3.2785    1.2117    0.0051 H       1  LIG1        0.0631
     10 H          -1.6697    1.2949   -0.0598 H       1  LIG1        0.0636
     11 N          -0.6202   -1.1396   -0.0605 N.pl3   1  LIG1       -0.3580
     12 H          -1.5825   -1.1035   -0.3571 H       1  LIG1        0.1423
     13 H          -0.1304   -1.9693   -0.3555 H       1  LIG1        0.1423
     14 N           2.8477    4.6774    0.0703 N.1     1  LIG1       -0.1909
     15 C           2.2554    3.6831    0.0430 C.1     1  LIG1        0.0992
@<TRIPOS>BOND
     1    12    11    1
     2    13    11    1
     3     1    11    1
     4     1     3   ar
     5     1     2   ar
     6    10     3    1
     7     5     2    1
     8     3     6   ar
     9     2     4   ar
    10     6     8    1
    11     6     7   ar
    12     4     9    1
    13     4     7   ar
    14     7    15    1
    15    15    14    3
