@<TRIPOS>MOLECULE
mol_data/opt/cam/geoms/mol2/4hd13ai-12li-6lf.out
 54 57 0 0 0
SMALL
GASTEIGER

@<TRIPOS>ATOM
      1 C          -0.0377   -0.1215   -0.0896 C.ar    1  LIG1        0.0252
      2 C           1.3548   -0.0185    0.0010 C.ar    1  LIG1       -0.0307
      3 C          -0.7907    1.0278   -0.4108 C.ar    1  LIG1       -0.0398
      4 C           2.0473    1.1828   -0.2274 C.ar    1  LIG1        0.0174
      5 H           1.9188   -0.9013    0.2819 H       1  LIG1        0.0643
      6 C          -0.1389    2.2249   -0.6289 C.ar    1  LIG1       -0.0420
      7 C           1.2642    2.3310   -0.5481 C.ar    1  LIG1        0.0610
      8 H          -0.7105    3.1136   -0.8758 H       1  LIG1        0.0631
      9 H          -1.8732    0.9715   -0.4745 H       1  LIG1        0.0636
     10 N          -0.6753   -1.3181    0.1931 N.pl3   1  LIG1       -0.3579
     11 H          -1.6084   -1.4294   -0.1754 H       1  LIG1        0.1423
     12 H          -0.1162   -2.1558    0.1247 H       1  LIG1        0.1423
     13 N           2.2628    4.6781   -1.0084 N.1     1  LIG1       -0.1908
     14 C           1.8292    3.6139   -0.8056 C.1     1  LIG1        0.0998
     15 C           3.5023    1.1681   -0.1304 C.ar    1  LIG1        0.0485
     16 C           4.3593    0.0667   -0.0507 C.ar    1  LIG1       -0.0328
     17 C           5.6907    0.5139    0.0439 C.ar    1  LIG1       -0.0215
     18 C           5.6350    1.9172    0.0231 C.ar    1  LIG1        0.0892
     19 N           4.3124    2.2813   -0.0881 N.ar    1  LIG1       -0.3514
     20 H           4.0122    3.2463   -0.1238 H       1  LIG1        0.1660
     21 H           4.0615   -0.9718   -0.0819 H       1  LIG1        0.0642
     22 C           6.8965   -0.3765    0.1164 C.3     1  LIG1       -0.0376
     23 H           7.5672   -0.0923    0.9296 H       1  LIG1        0.0278
     24 H           7.4834   -0.3448   -0.8104 H       1  LIG1        0.0278
     25 H           6.5870   -1.4147    0.2679 H       1  LIG1        0.0278
     26 C           6.6316    2.9569    0.0890 C.ar    1  LIG1        0.1936
     27 C           7.9863    3.0504    0.3375 C.ar    1  LIG1        0.1706
     28 C           8.3454    4.4372    0.3137 C.ar    1  LIG1        0.0379
     29 C           7.1786    5.1177    0.0456 C.ar    1  LIG1        0.1475
     30 O           6.1470    4.2256   -0.0888 O.2     1  LIG1       -0.4491
     31 O           8.8299    2.0194    0.6538 O.3     1  LIG1       -0.4910
     32 C           9.7854    1.6954   -0.3603 C.3     1  LIG1        0.0790
     33 H          10.3781    0.8650    0.0285 H       1  LIG1        0.0660
     34 H           9.2873    1.3868   -1.2871 H       1  LIG1        0.0660
     35 H          10.4487    2.5407   -0.5768 H       1  LIG1        0.0660
     36 C           9.7040    4.9841    0.6318 C.3     1  LIG1       -0.0326
     37 H           9.6363    5.9834    1.0699 H       1  LIG1        0.0280
     38 H          10.3472    5.0582   -0.2544 H       1  LIG1        0.0280
     39 H          10.2100    4.3294    1.3479 H       1  LIG1        0.0280
     40 C           5.6614    7.1392    0.2952 C.ar    1  LIG1        0.2256
     41 C           6.8855    6.5354   -0.1236 C.ar    1  LIG1        0.0825
     42 C           7.8293    7.3829   -0.7066 C.ar    1  LIG1       -0.0029
     43 C           7.5612    8.7478   -0.8493 C.ar    1  LIG1        0.1358
     44 C           6.3288    9.2210   -0.4156 C.ar    1  LIG1        0.0728
     45 N           5.4026    8.4279    0.1437 N.ar    1  LIG1       -0.2171
     46 H           8.7675    6.9913   -1.0816 H       1  LIG1        0.0663
     47 H           6.0689   10.2753   -0.5186 H       1  LIG1        0.0868
     48 O           4.7453    6.3465    0.8902 O.3     1  LIG1       -0.4792
     49 C           3.5028    6.9529    1.2592 C.3     1  LIG1        0.0804
     50 H           2.9164    6.1510    1.7071 H       1  LIG1        0.0660
     51 H           3.6601    7.7644    1.9757 H       1  LIG1        0.0660
     52 H           2.9847    7.3442    0.3809 H       1  LIG1        0.0660
     53 O           8.5207    9.5373   -1.4258 O.3     1  LIG1       -0.5052
     54 H           8.1858   10.4417   -1.4870 H       1  LIG1        0.2922
@<TRIPOS>BOND
     1    54    53    1
     2    53    43    1
     3    34    32    1
     4    46    42    1
     5    13    14    3
     6     8     6    1
     7    43    42   ar
     8    43    44   ar
     9    24    22    1
    10    14     7    1
    11    42    41   ar
    12     6     7   ar
    13     6     3   ar
    14    35    32    1
    15     7     4   ar
    16    47    44    1
    17     9     3    1
    18    44    45   ar
    19     3     1   ar
    20    32    33    1
    21    32    31    1
    22    38    36    1
    23     4    15    1
    24     4     2   ar
    25    11    10    1
    26    15    19   ar
    27    15    16   ar
    28    20    19    1
    29    41    29    1
    30    41    40   ar
    31     1     2   ar
    32     1    10    1
    33    30    29   ar
    34    30    26   ar
    35    19    18   ar
    36    21    16    1
    37    16    17   ar
    38     2     5    1
    39    18    17   ar
    40    18    26    1
    41    17    22    1
    42    29    28   ar
    43    26    27   ar
    44    22    25    1
    45    22    23    1
    46    12    10    1
    47    45    40   ar
    48    40    48    1
    49    28    27   ar
    50    28    36    1
    51    27    31    1
    52    52    49    1
    53    36    37    1
    54    36    39    1
    55    48    49    1
    56    49    50    1
    57    49    51    1
