@<TRIPOS>MOLECULE
mol_data/opt/cam/geoms/mol2/4hd4hd4hd4hd-.out
 54 57 0 0 0
SMALL
GASTEIGER

@<TRIPOS>ATOM
      1 C          -0.2199    0.6912    1.0398 C.ar    1  LIG1        0.0252
      2 C           1.1815    0.6597    0.9924 C.ar    1  LIG1       -0.0320
      3 C          -0.9170    1.2326   -0.0514 C.ar    1  LIG1       -0.0398
      4 C           1.8848    1.1583   -0.0967 C.ar    1  LIG1        0.0030
      5 H           1.7346    0.2560    1.8348 H       1  LIG1        0.0642
      6 C          -0.2291    1.7198   -1.1429 C.ar    1  LIG1       -0.0420
      7 C           1.1696    1.6884   -1.1870 C.ar    1  LIG1        0.0596
      8 H          -0.7739    2.1296   -1.9859 H       1  LIG1        0.0631
      9 H          -2.0014    1.2704   -0.0318 H       1  LIG1        0.0636
     10 N          -0.8909    0.2424    2.1489 N.pl3   1  LIG1       -0.3579
     11 H          -1.8786    0.0633    2.0739 H       1  LIG1        0.1423
     12 H          -0.3964   -0.3324    2.8111 H       1  LIG1        0.1423
     13 N           2.3766    2.5443   -3.3122 N.1     1  LIG1       -0.1909
     14 C           1.8477    2.1666   -2.3543 C.1     1  LIG1        0.0998
     15 C           4.0823   -0.0855   -0.1072 C.ar    1  LIG1        0.0330
     16 C           5.4833   -0.0563   -0.1116 C.ar    1  LIG1       -0.0314
     17 C           3.3740    1.1350   -0.0918 C.ar    1  LIG1        0.0053
     18 C           6.1967    1.1336   -0.0841 C.ar    1  LIG1        0.0030
     19 H           6.0292   -0.9947   -0.1234 H       1  LIG1        0.0643
     20 C           4.0870    2.3239   -0.0785 C.ar    1  LIG1       -0.0342
     21 C           5.4830    2.3462   -0.0687 C.ar    1  LIG1        0.0602
     22 H           3.5467    3.2639   -0.0778 H       1  LIG1        0.0637
     23 N           3.4219   -1.2925   -0.0835 N.pl3   1  LIG1       -0.3575
     24 H           2.4512   -1.2944   -0.3552 H       1  LIG1        0.1423
     25 H           3.9436   -2.1053   -0.3710 H       1  LIG1        0.1423
     26 N           6.7024    4.6312   -0.0509 N.1     1  LIG1       -0.1908
     27 C           6.1644    3.6066   -0.0613 C.1     1  LIG1        0.0998
     28 C           8.4159    0.5774   -1.1509 C.ar    1  LIG1        0.0330
     29 C           9.8166    0.5907   -1.0947 C.ar    1  LIG1       -0.0314
     30 C           7.6846    1.1113   -0.0681 C.ar    1  LIG1        0.0053
     31 C          10.5094    1.1046   -0.0103 C.ar    1  LIG1        0.0030
     32 H          10.3806    0.2003   -1.9360 H       1  LIG1        0.0643
     33 C           8.3760    1.6272    1.0170 C.ar    1  LIG1       -0.0342
     34 C           9.7710    1.6258    1.0713 C.ar    1  LIG1        0.0602
     35 H           7.8193    2.0346    1.8534 H       1  LIG1        0.0637
     36 N           7.7797    0.0313   -2.2419 N.pl3   1  LIG1       -0.3575
     37 H           6.8215    0.3041   -2.4002 H       1  LIG1        0.1423
     38 H           8.3279   -0.0639   -3.0827 H       1  LIG1        0.1423
     39 N          10.9324    2.5527    3.1927 N.1     1  LIG1       -0.1908
     40 C          10.4218    2.1310    2.2434 C.1     1  LIG1        0.0998
     41 C          12.7615    2.2635   -0.0080 C.ar    1  LIG1        0.0325
     42 C          14.1625    2.1630    0.0028 C.ar    1  LIG1       -0.0392
     43 C          11.9974    1.0740   -0.0062 C.ar    1  LIG1        0.0053
     44 C          14.7930    0.9378   -0.0038 C.ar    1  LIG1       -0.0426
     45 H          14.7527    3.0739    0.0035 H       1  LIG1        0.0636
     46 C          12.6478   -0.1522   -0.0285 C.ar    1  LIG1       -0.0348
     47 C          14.0404   -0.2414   -0.0266 C.ar    1  LIG1        0.0525
     48 H          12.0557   -1.0609   -0.0297 H       1  LIG1        0.0637
     49 H          15.8758    0.8839    0.0046 H       1  LIG1        0.0631
     50 N          12.1703    3.4991   -0.0868 N.pl3   1  LIG1       -0.3575
     51 H          12.7173    4.2904    0.2126 H       1  LIG1        0.1423
     52 H          11.1868    3.5755    0.1175 H       1  LIG1        0.1423
     53 N          15.1997   -2.5557   -0.0668 N.1     1  LIG1       -0.1909
     54 C          14.6824   -1.5202   -0.0457 C.1     1  LIG1        0.0992
@<TRIPOS>BOND
     1    13    14    3
     2    38    36    1
     3    37    36    1
     4    14     7    1
     5    36    28    1
     6     8     6    1
     7    32    29    1
     8     7     6   ar
     9     7     4   ar
    10    28    29   ar
    11    28    30   ar
    12     6     3   ar
    13    29    31   ar
    14    25    23    1
    15    24    23    1
    16    19    16    1
    17    16    15   ar
    18    16    18   ar
    19    15    17   ar
    20    15    23    1
    21     4    17    1
    22     4     2   ar
    23    17    20   ar
    24    50    41    1
    25    50    52    1
    26    50    51    1
    27    18    21   ar
    28    18    30    1
    29    20    22    1
    30    20    21   ar
    31    21    27    1
    32    30    33   ar
    33    53    54    3
    34    27    26    3
    35     3     9    1
    36     3     1   ar
    37    54    47    1
    38    48    46    1
    39    46    47   ar
    40    46    43   ar
    41    47    44   ar
    42    31    43    1
    43    31    34   ar
    44    41    43   ar
    45    41    42   ar
    46    44    42   ar
    47    44    49    1
    48    42    45    1
    49     2     1   ar
    50     2     5    1
    51    33    34   ar
    52    33    35    1
    53     1    10    1
    54    34    40    1
    55    11    10    1
    56    10    12    1
    57    40    39    3
