@<TRIPOS>MOLECULE
mol_data/opt/cam/geoms/mol2/4hd4hd-4hd4hd-.out
 54 57 0 0 0
SMALL
GASTEIGER

@<TRIPOS>ATOM
      1 C          -0.2558    0.2191    0.4059 C.ar    1  LIG1        0.0252
      2 C           1.1458    0.2398    0.4517 C.ar    1  LIG1       -0.0320
      3 C          -0.9226    1.2653   -0.2497 C.ar    1  LIG1       -0.0398
      4 C           1.8819    1.2582   -0.1366 C.ar    1  LIG1        0.0030
      5 H           1.6729   -0.5543    0.9712 H       1  LIG1        0.0642
      6 C          -0.2036    2.2828   -0.8400 C.ar    1  LIG1       -0.0420
      7 C           1.1959    2.2974   -0.7983 C.ar    1  LIG1        0.0596
      8 H          -0.7231    3.0820   -1.3568 H       1  LIG1        0.0631
      9 H          -2.0070    1.2711   -0.2906 H       1  LIG1        0.0636
     10 N          -0.9596   -0.7802    1.0300 N.pl3   1  LIG1       -0.3579
     11 H          -1.9261   -0.9079    0.7770 H       1  LIG1        0.1423
     12 H          -0.4694   -1.6262    1.2715 H       1  LIG1        0.1423
     13 N           2.4604    4.2300   -1.9697 N.1     1  LIG1       -0.1909
     14 C           1.9026    3.3555   -1.4554 C.1     1  LIG1        0.0998
     15 C           4.1371    2.1877    0.5740 C.ar    1  LIG1        0.0330
     16 C           5.5355    2.0692    0.5696 C.ar    1  LIG1       -0.0314
     17 C           3.3694    1.2037   -0.0894 C.ar    1  LIG1        0.0053
     18 C           6.1920    1.0181   -0.0484 C.ar    1  LIG1        0.0030
     19 H           6.1241    2.8193    1.0881 H       1  LIG1        0.0643
     20 C           4.0257    0.1438   -0.6954 C.ar    1  LIG1       -0.0342
     21 C           5.4180    0.0305   -0.6915 C.ar    1  LIG1        0.0602
     22 H           3.4401   -0.6074   -1.2139 H       1  LIG1        0.0637
     23 N           3.5488    3.2082    1.2743 N.pl3   1  LIG1       -0.3575
     24 H           4.1154    4.0186    1.4683 H       1  LIG1        0.1423
     25 H           2.5811    3.4151    1.0873 H       1  LIG1        0.1423
     26 N           6.4994   -1.9905   -1.8959 N.1     1  LIG1       -0.1908
     27 C           6.0257   -1.0746   -1.3695 C.1     1  LIG1        0.0998
     28 C           8.4069   -0.0464    0.5947 C.ar    1  LIG1        0.0330
     29 C           9.8085   -0.0088    0.5548 C.ar    1  LIG1       -0.0314
     30 C           7.6804    0.9810   -0.0477 C.ar    1  LIG1        0.0053
     31 C          10.5094    1.0005   -0.0843 C.ar    1  LIG1        0.0030
     32 H          10.3664   -0.7904    1.0606 H       1  LIG1        0.0643
     33 C           8.3804    1.9990   -0.6771 C.ar    1  LIG1       -0.0342
     34 C           9.7766    2.0282   -0.7130 C.ar    1  LIG1        0.0602
     35 H           7.8253    2.7826   -1.1815 H       1  LIG1        0.0637
     36 N           7.7789   -1.0336    1.3119 N.pl3   1  LIG1       -0.3575
     37 H           6.8005   -1.1932    1.1340 H       1  LIG1        0.1423
     38 H           8.3067   -1.8749    1.4839 H       1  LIG1        0.1423
     39 N          10.9435    3.9739   -1.9615 N.1     1  LIG1       -0.1908
     40 C          10.4298    3.0915   -1.4156 C.1     1  LIG1        0.0998
     41 C          12.7974    1.9383    0.4910 C.ar    1  LIG1        0.0325
     42 C          14.1940    1.8167    0.4190 C.ar    1  LIG1       -0.0392
     43 C          11.9973    0.9467   -0.1192 C.ar    1  LIG1        0.0053
     44 C          14.7888    0.7482   -0.2165 C.ar    1  LIG1       -0.0426
     45 H          14.8106    2.5777    0.8869 H       1  LIG1        0.0636
     46 C          12.6117   -0.1312   -0.7443 C.ar    1  LIG1       -0.0348
     47 C          14.0008   -0.2470   -0.8040 C.ar    1  LIG1        0.0525
     48 H          11.9929   -0.8898   -1.2110 H       1  LIG1        0.0637
     49 H          15.8694    0.6740   -0.2605 H       1  LIG1        0.0631
     50 N          12.2446    2.9749    1.2080 N.pl3   1  LIG1       -0.3575
     51 H          12.8224    3.7929    1.3248 H       1  LIG1        0.1423
     52 H          11.2757    3.1914    1.0375 H       1  LIG1        0.1423
     53 N          15.1009   -2.2760   -1.9769 N.1     1  LIG1       -0.1909
     54 C          14.6075   -1.3675   -1.4562 C.1     1  LIG1        0.0992
@<TRIPOS>BOND
     1    53    54    3
     2    13    14    3
     3    39    40    3
     4    26    27    3
     5    54    47    1
     6    14     7    1
     7    40    34    1
     8    27    21    1
     9     8     6    1
    10    22    20    1
    11    48    46    1
    12    35    33    1
    13     6     7   ar
    14     6     3   ar
    15    47    46   ar
    16    47    44   ar
    17     7     4   ar
    18    46    43   ar
    19    34    33   ar
    20    34    31   ar
    21    20    21   ar
    22    20    17   ar
    23    21    18   ar
    24    33    30   ar
    25     9     3    1
    26    49    44    1
    27     3     1   ar
    28    44    42   ar
    29     4    17    1
    30     4     2   ar
    31    43    31    1
    32    43    41   ar
    33    17    15   ar
    34    31    29   ar
    35    18    30    1
    36    18    16   ar
    37    30    28   ar
    38     1     2   ar
    39     1    10    1
    40    42    41   ar
    41    42    45    1
    42     2     5    1
    43    41    50    1
    44    29    28   ar
    45    29    32    1
    46    16    15   ar
    47    16    19    1
    48    15    23    1
    49    28    36    1
    50    11    10    1
    51    10    12    1
    52    52    50    1
    53    25    23    1
    54    37    36    1
    55    50    51    1
    56    23    24    1
    57    36    38    1
