@<TRIPOS>MOLECULE
mol_data/opt/cam/geoms/mol2/4hd4hd-4hd-4hd-.out
 54 57 0 0 0
SMALL
GASTEIGER

@<TRIPOS>ATOM
      1 C          -0.2080    1.1991   -1.1826 C.ar    1  LIG1        0.0252
      2 C           1.1933    1.2335   -1.1336 C.ar    1  LIG1       -0.0320
      3 C          -0.9213    1.1215    0.0233 C.ar    1  LIG1       -0.0398
      4 C           1.8849    1.1844    0.0683 C.ar    1  LIG1        0.0030
      5 H           1.7563    1.3036   -2.0591 H       1  LIG1        0.0642
      6 C          -0.2467    1.0709    1.2246 C.ar    1  LIG1       -0.0420
      7 C           1.1525    1.0983    1.2701 C.ar    1  LIG1        0.0596
      8 H          -0.8019    0.9992    2.1532 H       1  LIG1        0.0631
      9 H          -2.0059    1.0929    0.0071 H       1  LIG1        0.0636
     10 N          -0.8641    1.2072   -2.3869 N.pl3   1  LIG1       -0.3579
     11 H          -1.8480    1.4202   -2.3949 H       1  LIG1        0.1423
     12 H          -0.3561    1.4932   -3.2077 H       1  LIG1        0.1423
     13 N           2.3284    0.9682    3.5735 N.1     1  LIG1       -0.1909
     14 C           1.8106    1.0121    2.5389 C.1     1  LIG1        0.0998
     15 C           4.1365    2.2200    0.6326 C.ar    1  LIG1        0.0330
     16 C           5.5360    2.1402    0.5803 C.ar    1  LIG1       -0.0314
     17 C           3.3742    1.1824    0.0509 C.ar    1  LIG1        0.0053
     18 C           6.1984    1.0871   -0.0328 C.ar    1  LIG1        0.0030
     19 H           6.1213    2.9296    1.0415 H       1  LIG1        0.0643
     20 C           4.0377    0.1425   -0.5833 C.ar    1  LIG1       -0.0342
     21 C           5.4311    0.0759   -0.6414 C.ar    1  LIG1        0.0602
     22 H           3.4547   -0.6502   -1.0392 H       1  LIG1        0.0637
     23 N           3.5444    3.3277    1.1896 N.pl3   1  LIG1       -0.3575
     24 H           4.1000    3.8507    1.8486 H       1  LIG1        0.1423
     25 H           2.5734    3.2557    1.4489 H       1  LIG1        0.1423
     26 N           6.5210   -1.8792   -1.9435 N.1     1  LIG1       -0.1908
     27 C           6.0472   -1.0064   -1.3489 C.1     1  LIG1        0.0998
     28 C           8.4537    2.0446   -0.6493 C.ar    1  LIG1        0.0330
     29 C           9.8507    1.9436   -0.6245 C.ar    1  LIG1       -0.0314
     30 C           7.6858    1.0354   -0.0294 C.ar    1  LIG1        0.0053
     31 C          10.5064    0.8945    0.0042 C.ar    1  LIG1        0.0030
     32 H          10.4424    2.7177   -1.1032 H       1  LIG1        0.0643
     33 C           8.3411   -0.0202    0.5874 C.ar    1  LIG1       -0.0342
     34 C           9.7341   -0.1070    0.6205 C.ar    1  LIG1        0.0602
     35 H           7.7564   -0.8021    1.0589 H       1  LIG1        0.0637
     36 N           7.8587    3.1343   -1.2441 N.pl3   1  LIG1       -0.3575
     37 H           8.4184    3.6606   -1.8961 H       1  LIG1        0.1423
     38 H           6.8839    3.0559   -1.4883 H       1  LIG1        0.1423
     39 N          10.8192   -2.1435    1.7965 N.1     1  LIG1       -0.1908
     40 C          10.3471   -1.2288    1.2677 C.1     1  LIG1        0.0998
     41 C          12.7221    0.7266   -1.1851 C.ar    1  LIG1        0.0325
     42 C          14.1234    0.7181   -1.1329 C.ar    1  LIG1       -0.0392
     43 C          11.9951    0.8557    0.0177 C.ar    1  LIG1        0.0053
     44 C          14.7924    0.8324    0.0679 C.ar    1  LIG1       -0.0426
     45 H          14.6847    0.6187   -2.0567 H       1  LIG1        0.0636
     46 C          12.6816    0.9562    1.2203 C.ar    1  LIG1       -0.0348
     47 C          14.0763    0.9523    1.2628 C.ar    1  LIG1        0.0525
     48 H          12.1215    1.0456    2.1444 H       1  LIG1        0.0637
     49 H          15.8762    0.8251    0.0899 H       1  LIG1        0.0631
     50 N          12.0782    0.6437   -2.4038 N.pl3   1  LIG1       -0.3575
     51 H          12.6156    0.2466   -3.1592 H       1  LIG1        0.1423
     52 H          11.1178    0.3344   -2.3857 H       1  LIG1        0.1423
     53 N          15.3282    1.1962    3.5161 N.1     1  LIG1       -0.1909
     54 C          14.7650    1.0813    2.5116 C.1     1  LIG1        0.0992
@<TRIPOS>BOND
     1    12    10    1
     2    51    50    1
     3    50    52    1
     4    50    41    1
     5    11    10    1
     6    10     1    1
     7     5     2    1
     8    45    42    1
     9    26    27    3
    10    37    36    1
    11    38    36    1
    12    27    21    1
    13    36    28    1
    14    41    42   ar
    15    41    43   ar
    16     1     2   ar
    17     1     3   ar
    18     2     4   ar
    19    42    44   ar
    20    32    29    1
    21    22    20    1
    22    28    29   ar
    23    28    30   ar
    24    21    20   ar
    25    21    18   ar
    26    29    31   ar
    27    20    17   ar
    28    18    30    1
    29    18    16   ar
    30    30    33   ar
    31    31    43    1
    32    31    34   ar
    33     9     3    1
    34    43    46   ar
    35     3     6   ar
    36    17     4    1
    37    17    15   ar
    38    44    49    1
    39    44    47   ar
    40     4     7   ar
    41    16    15   ar
    42    16    19    1
    43    33    34   ar
    44    33    35    1
    45    34    40    1
    46    15    23    1
    47    23    25    1
    48    23    24    1
    49    46    47   ar
    50    46    48    1
    51     6     7   ar
    52     6     8    1
    53    47    54    1
    54    40    39    3
    55     7    14    1
    56    54    53    3
    57    14    13    3
