@<TRIPOS>MOLECULE
mol_data/opt/cam/geoms/mol2/4hd4hd4hd.out
 41 43 0 0 0
SMALL
GASTEIGER

@<TRIPOS>ATOM
      1 C          -0.1265    0.6386    0.9558 C.ar    1  LIG1        0.0252
      2 C           1.2757    0.6191    0.9357 C.ar    1  LIG1       -0.0320
      3 C          -0.8069    1.1789   -0.1464 C.ar    1  LIG1       -0.0398
      4 C           1.9960    1.1282   -0.1372 C.ar    1  LIG1        0.0030
      5 H           1.8159    0.2160    1.7867 H       1  LIG1        0.0642
      6 C          -0.1019    1.6761   -1.2224 C.ar    1  LIG1       -0.0420
      7 C           1.2976    1.6563   -1.2393 C.ar    1  LIG1        0.0596
      8 H          -0.6336    2.0849   -2.0743 H       1  LIG1        0.0631
      9 H          -1.8917    1.2078   -0.1475 H       1  LIG1        0.0636
     10 N          -0.8152    0.1795    2.0502 N.pl3   1  LIG1       -0.3579
     11 H          -1.7989   -0.0108    1.9530 H       1  LIG1        0.1423
     12 H          -0.3283   -0.3967    2.7169 H       1  LIG1        0.1423
     13 N           2.5357    2.5276   -3.3403 N.1     1  LIG1       -0.1909
     14 C           1.9938    2.1436   -2.3922 C.1     1  LIG1        0.0998
     15 C           4.2038   -0.0961   -0.1191 C.ar    1  LIG1        0.0330
     16 C           5.6035   -0.0546   -0.0930 C.ar    1  LIG1       -0.0314
     17 C           3.4851    1.1178   -0.1024 C.ar    1  LIG1        0.0053
     18 C           6.3073    1.1404   -0.0341 C.ar    1  LIG1        0.0030
     19 H           6.1585   -0.9874   -0.1088 H       1  LIG1        0.0643
     20 C           4.1876    2.3121   -0.0583 C.ar    1  LIG1       -0.0342
     21 C           5.5831    2.3463   -0.0181 C.ar    1  LIG1        0.0602
     22 H           3.6395    3.2476   -0.0564 H       1  LIG1        0.0637
     23 N           3.5525   -1.3099   -0.1255 N.pl3   1  LIG1       -0.3575
     24 H           2.5902   -1.3129   -0.4263 H       1  LIG1        0.1423
     25 H           4.0879   -2.1100   -0.4237 H       1  LIG1        0.1423
     26 N           6.7570    4.6538    0.0531 N.1     1  LIG1       -0.1908
     27 C           6.2466    3.6157    0.0205 C.1     1  LIG1        0.0998
     28 C           8.5439    0.6100   -1.0676 C.ar    1  LIG1        0.0325
     29 C           9.9428    0.5843   -0.9722 C.ar    1  LIG1       -0.0392
     30 C           7.7955    1.1191    0.0155 C.ar    1  LIG1        0.0053
     31 C          10.5889    1.0465    0.1553 C.ar    1  LIG1       -0.0426
     32 H          10.5207    0.1933   -1.8039 H       1  LIG1        0.0636
     33 C           8.4599    1.5935    1.1384 C.ar    1  LIG1       -0.0348
     34 C           9.8519    1.5593    1.2273 C.ar    1  LIG1        0.0525
     35 H           7.8838    1.9927    1.9656 H       1  LIG1        0.0637
     36 H          11.6711    1.0179    0.2126 H       1  LIG1        0.0631
     37 N           7.9215    0.1105   -2.1939 N.pl3   1  LIG1       -0.3575
     38 H           6.9788    0.4261   -2.3670 H       1  LIG1        0.1423
     39 H           8.4894    0.0588   -3.0257 H       1  LIG1        0.1423
     40 N          11.0567    2.4012    3.3588 N.1     1  LIG1       -0.1909
     41 C          10.5155    2.0313    2.4050 C.1     1  LIG1        0.0992
@<TRIPOS>BOND
     1    13    14    3
     2    39    37    1
     3    14     7    1
     4    38    37    1
     5    37    28    1
     6     8     6    1
     7    32    29    1
     8     7     6   ar
     9     7     4   ar
    10     6     3   ar
    11    28    29   ar
    12    28    30   ar
    13    29    31   ar
    14    24    23    1
    15    25    23    1
    16     9     3    1
    17     3     1   ar
    18     4    17    1
    19     4     2   ar
    20    23    15    1
    21    15    17   ar
    22    15    16   ar
    23    19    16    1
    24    17    20   ar
    25    16    18   ar
    26    20    22    1
    27    20    21   ar
    28    18    21   ar
    29    18    30    1
    30    21    27    1
    31    30    33   ar
    32    27    26    3
    33    31    36    1
    34    31    34   ar
    35     2     1   ar
    36     2     5    1
    37     1    10    1
    38    33    34   ar
    39    33    35    1
    40    34    41    1
    41    11    10    1
    42    10    12    1
    43    41    40    3
