@<TRIPOS>MOLECULE
mol_data/opt/cam/geoms/mol2/4hd4hd-4hd.out
 41 43 0 0 0
SMALL
GASTEIGER

@<TRIPOS>ATOM
      1 C          -0.1373    0.1484   -0.4045 C.ar    1  LIG1        0.0252
      2 C           1.2647    0.1643   -0.4389 C.ar    1  LIG1       -0.0320
      3 C          -0.8108    1.2782    0.0839 C.ar    1  LIG1       -0.0398
      4 C           1.9951    1.2586    0.0016 C.ar    1  LIG1        0.0030
      5 H           1.7974   -0.6991   -0.8248 H       1  LIG1        0.0642
      6 C          -0.0975    2.3721    0.5260 C.ar    1  LIG1       -0.0420
      7 C           1.3023    2.3827    0.4961 C.ar    1  LIG1        0.0596
      8 H          -0.6220    3.2388    0.9127 H       1  LIG1        0.0631
      9 H          -1.8953    1.2855    0.1196 H       1  LIG1        0.0636
     10 N          -0.8324   -0.9636   -0.8088 N.pl3   1  LIG1       -0.3579
     11 H          -1.8148   -0.8648   -1.0063 H       1  LIG1        0.1423
     12 H          -0.3516   -1.6477   -1.3698 H       1  LIG1        0.1423
     13 N           2.5521    4.4735    1.3749 N.1     1  LIG1       -0.1909
     14 C           2.0017    3.5292    0.9931 C.1     1  LIG1        0.0998
     15 C           4.2555    2.0686   -0.8289 C.ar    1  LIG1        0.0330
     16 C           5.6530    1.9470   -0.8042 C.ar    1  LIG1       -0.0314
     17 C           3.4830    1.1995   -0.0260 C.ar    1  LIG1        0.0053
     18 C           6.3059    1.0028   -0.0295 C.ar    1  LIG1        0.0030
     19 H           6.2454    2.6060   -1.4310 H       1  LIG1        0.0643
     20 C           4.1347    0.2454    0.7399 C.ar    1  LIG1       -0.0342
     21 C           5.5268    0.1310    0.7587 C.ar    1  LIG1        0.0602
     22 H           3.5452   -0.4159    1.3655 H       1  LIG1        0.0637
     23 N           3.6724    2.9735   -1.6793 N.pl3   1  LIG1       -0.3575
     24 H           4.2469    3.7415   -1.9893 H       1  LIG1        0.1423
     25 H           2.7100    3.2214   -1.5156 H       1  LIG1        0.1423
     26 N           6.5952   -1.6790    2.2714 N.1     1  LIG1       -0.1908
     27 C           6.1283   -0.8555    1.6047 C.1     1  LIG1        0.0998
     28 C           8.5157   -0.1558   -0.4951 C.ar    1  LIG1        0.0325
     29 C           9.9184   -0.1168   -0.4642 C.ar    1  LIG1       -0.0392
     30 C           7.7947    0.9642   -0.0249 C.ar    1  LIG1        0.0053
     31 C          10.5946    0.9913   -0.0011 C.ar    1  LIG1       -0.0426
     32 H          10.4743   -0.9764   -0.8253 H       1  LIG1        0.0636
     33 C           8.4906    2.0787    0.4265 C.ar    1  LIG1       -0.0348
     34 C           9.8852    2.1104    0.4471 C.ar    1  LIG1        0.0525
     35 H           7.9325    2.9360    0.7866 H       1  LIG1        0.0637
     36 H          11.6785    1.0003    0.0145 H       1  LIG1        0.0631
     37 N           7.8808   -1.2477   -1.0426 N.pl3   1  LIG1       -0.3575
     38 H           6.9052   -1.3729   -0.8252 H       1  LIG1        0.1423
     39 H           8.4035   -2.1099   -1.0471 H       1  LIG1        0.1423
     40 N          11.1396    4.2105    1.2949 N.1     1  LIG1       -0.1909
     41 C          10.5771    3.2711    0.9195 C.1     1  LIG1        0.0992
@<TRIPOS>BOND
     1    24    23    1
     2    23    25    1
     3    23    15    1
     4    19    16    1
     5    12    10    1
     6    39    37    1
     7    37    38    1
     8    37    28    1
     9    11    10    1
    10    15    16   ar
    11    15    17   ar
    12    32    29    1
    13     5     2    1
    14    10     1    1
    15    16    18   ar
    16    28    29   ar
    17    28    30   ar
    18    29    31   ar
    19     2     1   ar
    20     2     4   ar
    21     1     3   ar
    22    18    30    1
    23    18    21   ar
    24    17     4    1
    25    17    20   ar
    26    30    33   ar
    27    31    36    1
    28    31    34   ar
    29     4     7   ar
    30     3     9    1
    31     3     6   ar
    32    33    34   ar
    33    33    35    1
    34    34    41    1
    35     7     6   ar
    36     7    14    1
    37     6     8    1
    38    20    21   ar
    39    20    22    1
    40    21    27    1
    41    41    40    3
    42    14    13    3
    43    27    26    3
