@<TRIPOS>MOLECULE
mol_data/opt/cam/geoms/mol2/4hd4hd.out
 28 29 0 0 0
SMALL
GASTEIGER

@<TRIPOS>ATOM
      1 C          -0.0209    0.1670    0.4881 C.ar    1  LIG1        0.0252
      2 C           1.3804    0.1686    0.4787 C.ar    1  LIG1       -0.0320
      3 C          -0.6985    1.2408   -0.1081 C.ar    1  LIG1       -0.0398
      4 C           2.1080    1.2046   -0.0959 C.ar    1  LIG1        0.0030
      5 H           1.9165   -0.6501    0.9485 H       1  LIG1        0.0642
      6 C           0.0114    2.2704   -0.6894 C.ar    1  LIG1       -0.0420
      7 C           1.4112    2.2697   -0.6975 C.ar    1  LIG1        0.0596
      8 H          -0.5165    3.0947   -1.1557 H       1  LIG1        0.0631
      9 H          -1.7837    1.2612   -0.1066 H       1  LIG1        0.0636
     10 N          -0.7142   -0.8429    1.1116 N.pl3   1  LIG1       -0.3579
     11 H          -1.6906   -0.9527    0.8917 H       1  LIG1        0.1423
     12 H          -0.2244   -1.6996    1.3125 H       1  LIG1        0.1423
     13 N           2.6225    4.2249   -1.8878 N.1     1  LIG1       -0.1909
     14 C           2.0997    3.3452   -1.3469 C.1     1  LIG1        0.0998
     15 C           4.3244    0.1225   -0.6384 C.ar    1  LIG1        0.0325
     16 C           5.7234    0.1264   -0.5455 C.ar    1  LIG1       -0.0392
     17 C           3.5963    1.1762   -0.0449 C.ar    1  LIG1        0.0053
     18 C           6.3917    1.1367    0.1140 C.ar    1  LIG1       -0.0426
     19 H           6.2839   -0.6835   -1.0021 H       1  LIG1        0.0636
     20 C           4.2842    2.1924    0.6063 C.ar    1  LIG1       -0.0348
     21 C           5.6761    2.1855    0.6992 C.ar    1  LIG1        0.0525
     22 H           3.7260    3.0046    1.0579 H       1  LIG1        0.0637
     23 H           7.4737    1.1228    0.1779 H       1  LIG1        0.0631
     24 N           3.6840   -0.9220   -1.2767 N.pl3   1  LIG1       -0.3575
     25 H           2.7424   -0.7466   -1.5931 H       1  LIG1        0.1423
     26 H           4.2428   -1.4468   -1.9318 H       1  LIG1        0.1423
     27 N           6.9240    4.0703    1.9625 N.1     1  LIG1       -0.1909
     28 C           6.3626    3.2327    1.3943 C.1     1  LIG1        0.0992
@<TRIPOS>BOND
     1    26    24    1
     2    13    14    3
     3    25    24    1
     4    14     7    1
     5    24    15    1
     6     8     6    1
     7    19    16    1
     8     7     6   ar
     9     7     4   ar
    10     6     3   ar
    11    15    16   ar
    12    15    17   ar
    13    16    18   ar
    14     3     9    1
    15     3     1   ar
    16     4    17    1
    17     4     2   ar
    18    17    20   ar
    19    18    23    1
    20    18    21   ar
    21     2     1   ar
    22     2     5    1
    23     1    10    1
    24    20    21   ar
    25    20    22    1
    26    21    28    1
    27    11    10    1
    28    10    12    1
    29    28    27    3
