@<TRIPOS>MOLECULE
mol_data/opt/cam/geoms/mol2/4hd4hd4hd4hd.out
 54 57 0 0 0
SMALL
GASTEIGER

@<TRIPOS>ATOM
      1 C          -0.2441    1.5745    0.8426 C.ar    1  LIG1        0.0252
      2 C           1.1575    1.5277    0.8646 C.ar    1  LIG1       -0.0320
      3 C          -0.9174    1.0330   -0.2633 C.ar    1  LIG1       -0.0398
      4 C           1.8857    0.9711   -0.1797 C.ar    1  LIG1        0.0030
      5 H           1.6909    1.9568    1.7072 H       1  LIG1        0.0642
      6 C          -0.2055    0.4702   -1.3016 C.ar    1  LIG1       -0.0420
      7 C           1.1933    0.4259   -1.2782 C.ar    1  LIG1        0.0596
      8 H          -0.7315    0.0476   -2.1503 H       1  LIG1        0.0631
      9 H          -2.0015    1.0632   -0.3013 H       1  LIG1        0.0636
     10 N          -0.9378    2.1774    1.8608 N.pl3   1  LIG1       -0.3579
     11 H          -1.9261    2.0033    1.9389 H       1  LIG1        0.1423
     12 H          -0.4604    2.3580    2.7285 H       1  LIG1        0.1423
     13 N           2.4410   -0.7119   -3.2417 N.1     1  LIG1       -0.1909
     14 C           1.8927   -0.1980   -2.3611 C.1     1  LIG1        0.0998
     15 C           4.0762    0.3100    0.8968 C.ar    1  LIG1        0.0330
     16 C           5.4784    0.3256    0.8821 C.ar    1  LIG1       -0.0314
     17 C           3.3735    0.9722   -0.1334 C.ar    1  LIG1        0.0053
     18 C           6.1988    0.9773   -0.1047 C.ar    1  LIG1        0.0030
     19 H           6.0191   -0.2028    1.6610 H       1  LIG1        0.0643
     20 C           4.0953    1.6274   -1.1201 C.ar    1  LIG1       -0.0342
     21 C           5.4907    1.6504   -1.1208 C.ar    1  LIG1        0.0602
     22 H           3.5617    2.1460   -1.9086 H       1  LIG1        0.0637
     23 N           3.4137   -0.3311    1.9175 N.pl3   1  LIG1       -0.3575
     24 H           2.4484   -0.5760    1.7600 H       1  LIG1        0.1423
     25 H           3.9398   -1.0084    2.4468 H       1  LIG1        0.1423
     26 N           6.7453    2.9706   -2.9626 N.1     1  LIG1       -0.1908
     27 C           6.1839    2.3844   -2.1373 C.1     1  LIG1        0.0998
     28 C           8.4487    0.3438   -1.0757 C.ar    1  LIG1        0.0330
     29 C           9.8474    0.4092   -0.9993 C.ar    1  LIG1       -0.0314
     30 C           7.6857    0.9742   -0.0666 C.ar    1  LIG1        0.0053
     31 C          10.5080    1.0493    0.0398 C.ar    1  LIG1        0.0030
     32 H          10.4352   -0.0754   -1.7724 H       1  LIG1        0.0643
     33 C           8.3448    1.5966    0.9812 C.ar    1  LIG1       -0.0342
     34 C           9.7386    1.6501    1.0546 C.ar    1  LIG1        0.0602
     35 H           7.7598    2.0828    1.7543 H       1  LIG1        0.0637
     36 N           7.8564   -0.3754   -2.0798 N.pl3   1  LIG1       -0.3575
     37 H           6.8714   -0.2509   -2.2495 H       1  LIG1        0.1423
     38 H           8.4051   -0.5689   -2.9019 H       1  LIG1        0.1423
     39 N          10.7926    2.9254    3.0463 N.1     1  LIG1       -0.1908
     40 C          10.3422    2.3504    2.1483 C.1     1  LIG1        0.0998
     41 C          12.7269    1.6591   -0.9943 C.ar    1  LIG1        0.0325
     42 C          14.1288    1.6489   -0.9351 C.ar    1  LIG1       -0.0392
     43 C          11.9957    1.0765    0.0653 C.ar    1  LIG1        0.0053
     44 C          14.7947    1.0814    0.1305 C.ar    1  LIG1       -0.0426
     45 H          14.6925    2.0968   -1.7475 H       1  LIG1        0.0636
     46 C          12.6814    0.5188    1.1367 C.ar    1  LIG1       -0.0348
     47 C          14.0756    0.5070    1.1833 C.ar    1  LIG1        0.0525
     48 H          12.1201    0.0766    1.9519 H       1  LIG1        0.0637
     49 H          15.8785    1.0810    0.1570 H       1  LIG1        0.0631
     50 N          12.0943    2.2041   -2.0901 N.pl3   1  LIG1       -0.3575
     51 H          11.1231    2.4567   -1.9882 H       1  LIG1        0.1423
     52 H          12.6336    2.8484   -2.6468 H       1  LIG1        0.1423
     53 N          15.3189   -0.5876    3.1732 N.1     1  LIG1       -0.1909
     54 C          14.7598   -0.0944    2.2878 C.1     1  LIG1        0.0992
@<TRIPOS>BOND
     1    13    14    3
     2    26    27    3
     3    38    36    1
     4    52    50    1
     5    14     7    1
     6    37    36    1
     7     8     6    1
     8    27    21    1
     9    50    51    1
    10    50    41    1
    11    36    28    1
    12    22    20    1
    13    32    29    1
    14    45    42    1
    15     6     7   ar
    16     6     3   ar
    17     7     4   ar
    18    21    20   ar
    19    21    18   ar
    20    20    17   ar
    21    28    29   ar
    22    28    30   ar
    23    29    31   ar
    24    41    42   ar
    25    41    43   ar
    26    42    44   ar
    27     9     3    1
    28     3     1   ar
    29     4    17    1
    30     4     2   ar
    31    17    15   ar
    32    18    30    1
    33    18    16   ar
    34    30    33   ar
    35    31    43    1
    36    31    34   ar
    37    43    46   ar
    38    44    49    1
    39    44    47   ar
    40     1     2   ar
    41     1    10    1
    42     2     5    1
    43    16    15   ar
    44    16    19    1
    45    15    23    1
    46    33    34   ar
    47    33    35    1
    48    34    40    1
    49    46    47   ar
    50    46    48    1
    51    47    54    1
    52    24    23    1
    53    10    11    1
    54    10    12    1
    55    23    25    1
    56    40    39    3
    57    54    53    3
