@<TRIPOS>MOLECULE
mol_data/opt/cam/geoms/mol2/4hd4hd4hd-4hd.out
 54 57 0 0 0
SMALL
GASTEIGER

@<TRIPOS>ATOM
      1 C          -0.2393    0.1967    0.5818 C.ar    1  LIG1        0.0252
      2 C           1.1623    0.1822    0.5321 C.ar    1  LIG1       -0.0320
      3 C          -0.9208    1.2810    0.0079 C.ar    1  LIG1       -0.0398
      4 C           1.8822    1.2136   -0.0583 C.ar    1  LIG1        0.0030
      5 H           1.7024   -0.6431    0.9858 H       1  LIG1        0.0642
      6 C          -0.2170    2.3059   -0.5886 C.ar    1  LIG1       -0.0420
      7 C           1.1818    2.2901   -0.6357 C.ar    1  LIG1        0.0596
      8 H          -0.7496    3.1378   -1.0358 H       1  LIG1        0.0631
      9 H          -2.0051    1.3131    0.0399 H       1  LIG1        0.0636
     10 N          -0.9252   -0.8065    1.2177 N.pl3   1  LIG1       -0.3579
     11 H          -1.9137   -0.8955    1.0503 H       1  LIG1        0.1423
     12 H          -0.4420   -1.6645    1.4263 H       1  LIG1        0.1423
     13 N           2.4144    4.2233   -1.8396 N.1     1  LIG1       -0.1909
     14 C           1.8731    3.3568   -1.2955 C.1     1  LIG1        0.0998
     15 C           4.0776    0.1361   -0.7002 C.ar    1  LIG1        0.0330
     16 C           5.4791    0.1589   -0.6860 C.ar    1  LIG1       -0.0314
     17 C           3.3704    1.1761   -0.0593 C.ar    1  LIG1        0.0053
     18 C           6.1972    1.1624   -0.0554 C.ar    1  LIG1        0.0030
     19 H           6.0225   -0.6283   -1.1991 H       1  LIG1        0.0643
     20 C           4.0883    2.1800    0.5729 C.ar    1  LIG1       -0.0342
     21 C           5.4840    2.1886    0.5959 C.ar    1  LIG1        0.0602
     22 H           3.5516    2.9772    1.0748 H       1  LIG1        0.0637
     23 N           3.4188   -0.9021   -1.3183 N.pl3   1  LIG1       -0.3575
     24 H           2.4528   -0.7517   -1.5650 H       1  LIG1        0.1423
     25 H           3.9453   -1.4366   -1.9914 H       1  LIG1        0.1423
     26 N           6.7017    4.0802    1.8795 N.1     1  LIG1       -0.1908
     27 C           6.1629    3.2287    1.3101 C.1     1  LIG1        0.0998
     28 C           8.4582    2.1202   -0.6910 C.ar    1  LIG1        0.0330
     29 C           9.8576    2.0149   -0.6506 C.ar    1  LIG1       -0.0314
     30 C           7.6844    1.1184   -0.0606 C.ar    1  LIG1        0.0053
     31 C          10.5085    0.9624   -0.0293 C.ar    1  LIG1        0.0030
     32 H          10.4525    2.7773   -1.1431 H       1  LIG1        0.0643
     33 C           8.3348    0.0570    0.5483 C.ar    1  LIG1       -0.0342
     34 C           9.7279   -0.0416    0.5807 C.ar    1  LIG1        0.0602
     35 H           7.7430   -0.7074    1.0402 H       1  LIG1        0.0637
     36 N           7.8783    3.1423   -1.3917 N.pl3   1  LIG1       -0.3575
     37 H           8.4414    3.9561   -1.5802 H       1  LIG1        0.1423
     38 H           6.8993    3.3328   -1.2512 H       1  LIG1        0.1423
     39 N          10.7904   -2.0696    1.7903 N.1     1  LIG1       -0.1908
     40 C          10.3268   -1.1497    1.2615 C.1     1  LIG1        0.0998
     41 C          12.7467   -0.0726   -0.6291 C.ar    1  LIG1        0.0325
     42 C          14.1475   -0.0240   -0.5550 C.ar    1  LIG1       -0.0392
     43 C          11.9972    0.9424    0.0060 C.ar    1  LIG1        0.0053
     44 C          14.7948    0.9963    0.1079 C.ar    1  LIG1       -0.0426
     45 H          14.7252   -0.8029   -1.0426 H       1  LIG1        0.0636
     46 C          12.6645    1.9715    0.6585 C.ar    1  LIG1       -0.0348
     47 C          14.0576    2.0146    0.7212 C.ar    1  LIG1        0.0525
     48 H          12.0844    2.7485    1.1442 H       1  LIG1        0.0637
     49 H          15.8778    1.0146    0.1537 H       1  LIG1        0.0631
     50 N          12.1417   -1.0620   -1.3710 N.pl3   1  LIG1       -0.3575
     51 H          11.1628   -1.2314   -1.2047 H       1  LIG1        0.1423
     52 H          12.6766   -1.9057   -1.5072 H       1  LIG1        0.1423
     53 N          15.2606    3.9502    1.9497 N.1     1  LIG1       -0.1909
     54 C          14.7205    3.0841    1.4036 C.1     1  LIG1        0.0992
@<TRIPOS>BOND
     1    25    23    1
     2    13    14    3
     3    37    36    1
     4    24    23    1
     5    52    50    1
     6    36    38    1
     7    36    28    1
     8    50    51    1
     9    50    41    1
    10    23    15    1
    11    14     7    1
    12    19    16    1
    13    32    29    1
    14    45    42    1
    15     8     6    1
    16    15    16   ar
    17    15    17   ar
    18    28    29   ar
    19    28    30   ar
    20    16    18   ar
    21    29    31   ar
    22     7     6   ar
    23     7     4   ar
    24    41    42   ar
    25    41    43   ar
    26     6     3   ar
    27    42    44   ar
    28    30    18    1
    29    30    33   ar
    30    17     4    1
    31    17    20   ar
    32     4     2   ar
    33    18    21   ar
    34    31    43    1
    35    31    34   ar
    36    43    46   ar
    37     3     9    1
    38     3     1   ar
    39    44    49    1
    40    44    47   ar
    41     2     1   ar
    42     2     5    1
    43    33    34   ar
    44    33    35    1
    45    20    21   ar
    46    20    22    1
    47    34    40    1
    48     1    10    1
    49    21    27    1
    50    46    47   ar
    51    46    48    1
    52    47    54    1
    53    11    10    1
    54    10    12    1
    55    40    39    3
    56    27    26    3
    57    54    53    3
