@<TRIPOS>MOLECULE
mol_data/opt/cam/geoms/mol2/4hd4hd-4hd-4hd.out
 54 57 0 0 0
SMALL
GASTEIGER

@<TRIPOS>ATOM
      1 C          -0.2274    0.6126   -0.9919 C.ar    1  LIG1        0.0252
      2 C           1.1746    0.6532   -0.9849 C.ar    1  LIG1       -0.0320
      3 C          -0.9222    1.1980    0.0776 C.ar    1  LIG1       -0.0398
      4 C           1.8840    1.2462    0.0495 C.ar    1  LIG1        0.0030
      5 H           1.7239    0.2130   -1.8113 H       1  LIG1        0.0642
      6 C          -0.2296    1.7892    1.1127 C.ar    1  LIG1       -0.0420
      7 C           1.1702    1.8223    1.1203 C.ar    1  LIG1        0.0596
      8 H          -0.7709    2.2298    1.9426 H       1  LIG1        0.0631
      9 H          -2.0071    1.1766    0.0916 H       1  LIG1        0.0636
     10 N          -0.9020   -0.0162   -2.0068 N.pl3   1  LIG1       -0.3579
     11 H          -1.8853    0.1700   -2.1159 H       1  LIG1        0.1423
     12 H          -0.4059   -0.2186   -2.8592 H       1  LIG1        0.1423
     13 N           2.3825    2.9283    3.1234 N.1     1  LIG1       -0.1909
     14 C           1.8481    2.4194    2.2313 C.1     1  LIG1        0.0998
     15 C           4.1445    2.4026   -0.0581 C.ar    1  LIG1        0.0330
     16 C           5.5430    2.2953   -0.0793 C.ar    1  LIG1       -0.0314
     17 C           3.3729    1.2216    0.0180 C.ar    1  LIG1        0.0053
     18 C           6.1964    1.0721   -0.0410 C.ar    1  LIG1        0.0030
     19 H           6.1345    3.2047   -0.1207 H       1  LIG1        0.0643
     20 C           4.0263   -0.0015    0.0346 C.ar    1  LIG1       -0.0342
     21 C           5.4186   -0.1010    0.0028 C.ar    1  LIG1        0.0602
     22 H           3.4361   -0.9100    0.0844 H       1  LIG1        0.0637
     23 N           3.5614    3.6410   -0.1734 N.pl3   1  LIG1       -0.3575
     24 H           4.1275    4.4318    0.0927 H       1  LIG1        0.1423
     25 H           2.5944    3.7280    0.0958 H       1  LIG1        0.1423
     26 N           6.4864   -2.4600   -0.0337 N.1     1  LIG1       -0.1908
     27 C           6.0216   -1.4001   -0.0108 C.1     1  LIG1        0.0998
     28 C           8.4459    1.5721   -1.0834 C.ar    1  LIG1        0.0330
     29 C           9.8430    1.4663   -1.0367 C.ar    1  LIG1       -0.0314
     30 C           7.6828    1.0138   -0.0346 C.ar    1  LIG1        0.0053
     31 C          10.5055    0.8439    0.0089 C.ar    1  LIG1        0.0030
     32 H          10.4282    1.8735   -1.8553 H       1  LIG1        0.0643
     33 C           8.3455    0.3940    1.0149 C.ar    1  LIG1       -0.0342
     34 C           9.7377    0.3070    1.0621 C.ar    1  LIG1        0.0602
     35 H           7.7676   -0.0254    1.8306 H       1  LIG1        0.0637
     36 N           7.8498    2.2281   -2.1350 N.pl3   1  LIG1       -0.3575
     37 H           8.4027    2.3503   -2.9686 H       1  LIG1        0.1423
     38 H           6.8703    2.0539   -2.2977 H       1  LIG1        0.1423
     39 N          10.8491   -0.8163    3.1144 N.1     1  LIG1       -0.1908
     40 C          10.3591   -0.3061    2.1983 C.1     1  LIG1        0.0998
     41 C          12.6824   -0.4503   -0.0625 C.ar    1  LIG1        0.0325
     42 C          14.0869   -0.4357   -0.0612 C.ar    1  LIG1       -0.0392
     43 C          11.9924    0.7819    0.0027 C.ar    1  LIG1        0.0053
     44 C          14.7914    0.7477   -0.0174 C.ar    1  LIG1       -0.0426
     45 H          14.6201   -1.3799   -0.1087 H       1  LIG1        0.0636
     46 C          12.7168    1.9660    0.0311 C.ar    1  LIG1       -0.0348
     47 C          14.1121    1.9702    0.0225 C.ar    1  LIG1        0.0525
     48 H          12.1816    2.9081    0.0789 H       1  LIG1        0.0637
     49 H          15.8755    0.7353   -0.0175 H       1  LIG1        0.0631
     50 N          12.0171   -1.6440   -0.1950 N.pl3   1  LIG1       -0.3575
     51 H          11.0347   -1.6700    0.0268 H       1  LIG1        0.1423
     52 H          12.5184   -2.4768    0.0708 H       1  LIG1        0.1423
     53 N          15.4122    4.2083    0.0725 N.1     1  LIG1       -0.1909
     54 C          14.8315    3.2069    0.0540 C.1     1  LIG1        0.0992
@<TRIPOS>BOND
     1    37    36    1
     2    12    10    1
     3    38    36    1
     4    36    28    1
     5    11    10    1
     6    10     1    1
     7    32    29    1
     8     5     2    1
     9    28    29   ar
    10    28    30   ar
    11    29    31   ar
    12     1     2   ar
    13     1     3   ar
    14     2     4   ar
    15    50    41    1
    16    50    51    1
    17    50    52    1
    18    23    15    1
    19    23    24    1
    20    23    25    1
    21    19    16    1
    22    45    42    1
    23    16    15   ar
    24    16    18   ar
    25    41    42   ar
    26    41    43   ar
    27    42    44   ar
    28    15    17   ar
    29    18    30    1
    30    18    21   ar
    31    30    33   ar
    32    26    27    3
    33    49    44    1
    34    44    47   ar
    35    27    21    1
    36    43    31    1
    37    43    46   ar
    38    21    20   ar
    39    31    34   ar
    40    17    20   ar
    41    17     4    1
    42    47    46   ar
    43    47    54    1
    44    46    48    1
    45    20    22    1
    46     4     7   ar
    47    54    53    3
    48     3     9    1
    49     3     6   ar
    50    33    34   ar
    51    33    35    1
    52    34    40    1
    53     6     7   ar
    54     6     8    1
    55     7    14    1
    56    40    39    3
    57    14    13    3
