@<TRIPOS>MOLECULE
mol_data/opt/cam/geoms/mol2/4hd4hd-4hd4hd.out
 54 57 0 0 0
SMALL
GASTEIGER

@<TRIPOS>ATOM
      1 C          -0.2618    0.1194   -0.0192 C.ar    1  LIG1        0.0252
      2 C           1.1397    0.1072   -0.0748 C.ar    1  LIG1       -0.0320
      3 C          -0.9201    1.3551    0.0727 C.ar    1  LIG1       -0.0398
      4 C           1.8838    1.2776   -0.0334 C.ar    1  LIG1        0.0030
      5 H           1.6608   -0.8414   -0.1573 H       1  LIG1        0.0642
      6 C          -0.1930    2.5257    0.1162 C.ar    1  LIG1       -0.0420
      7 C           1.2062    2.5100    0.0671 C.ar    1  LIG1        0.0596
      8 H          -0.7060    3.4774    0.1990 H       1  LIG1        0.0631
      9 H          -2.0039    1.3863    0.1176 H       1  LIG1        0.0636
     10 N          -0.9700   -1.0552   -0.0207 N.pl3   1  LIG1       -0.3579
     11 H          -1.9561   -1.0182   -0.2210 H       1  LIG1        0.1423
     12 H          -0.5031   -1.8949   -0.3217 H       1  LIG1        0.1423
     13 N           2.4853    4.7585    0.1845 N.1     1  LIG1       -0.1909
     14 C           1.9211    3.7483    0.1460 C.1     1  LIG1        0.0998
     15 C           4.1391    1.7440   -1.1081 C.ar    1  LIG1        0.0330
     16 C           5.5360    1.6218   -1.0582 C.ar    1  LIG1       -0.0314
     17 C           3.3707    1.1954   -0.0565 C.ar    1  LIG1        0.0053
     18 C           6.1913    0.9762   -0.0228 C.ar    1  LIG1        0.0030
     19 H           6.1247    2.0329   -1.8721 H       1  LIG1        0.0643
     20 C           4.0251    0.5383    0.9738 C.ar    1  LIG1       -0.0342
     21 C           5.4165    0.4201    1.0155 C.ar    1  LIG1        0.0602
     22 H           3.4389    0.1263    1.7880 H       1  LIG1        0.0637
     23 N           3.5516    2.3256   -2.2026 N.pl3   1  LIG1       -0.3575
     24 H           4.1254    2.9479   -2.7500 H       1  LIG1        0.1423
     25 H           2.5921    2.6206   -2.1199 H       1  LIG1        0.1423
     26 N           6.4956   -0.8068    3.0243 N.1     1  LIG1       -0.1908
     27 C           6.0227   -0.2413    2.1315 C.1     1  LIG1        0.0998
     28 C           8.3896   -0.2957   -0.0969 C.ar    1  LIG1        0.0330
     29 C           9.7910   -0.2611   -0.0886 C.ar    1  LIG1       -0.0314
     30 C           7.6791    0.9223   -0.0199 C.ar    1  LIG1        0.0053
     31 C          10.5081    0.9251   -0.0213 C.ar    1  LIG1        0.0030
     32 H          10.3353   -1.1991   -0.1353 H       1  LIG1        0.0643
     33 C           8.3954    2.1094    0.0268 C.ar    1  LIG1       -0.0342
     34 C           9.7914    2.1362    0.0239 C.ar    1  LIG1        0.0602
     35 H           7.8529    3.0471    0.0780 H       1  LIG1        0.0637
     36 N           7.7459   -1.5027   -0.2432 N.pl3   1  LIG1       -0.3575
     37 H           6.7730   -1.5423    0.0156 H       1  LIG1        0.1423
     38 H           8.2667   -2.3211    0.0320 H       1  LIG1        0.1423
     39 N          10.9616    4.4463    0.0386 N.1     1  LIG1       -0.1908
     40 C          10.4561    3.4051    0.0396 C.1     1  LIG1        0.0998
     41 C          12.7390    0.2918   -1.0217 C.ar    1  LIG1        0.0325
     42 C          14.1384    0.2723   -0.9323 C.ar    1  LIG1       -0.0392
     43 C          11.9958    0.8939    0.0173 C.ar    1  LIG1        0.0053
     44 C          14.7922    0.8253    0.1485 C.ar    1  LIG1       -0.0426
     45 H          14.7104   -0.1896   -1.7311 H       1  LIG1        0.0636
     46 C          12.6699    1.4553    1.0951 C.ar    1  LIG1       -0.0348
     47 C          14.0619    1.4254    1.1788 C.ar    1  LIG1        0.0525
     48 H          12.1005    1.9199    1.8920 H       1  LIG1        0.0637
     49 H          15.8746    0.7991    0.2020 H       1  LIG1        0.0631
     50 N          12.1168   -0.3020   -2.1013 N.pl3   1  LIG1       -0.3575
     51 H          11.1666   -0.0220   -2.2904 H       1  LIG1        0.1423
     52 H          12.6817   -0.4243   -2.9274 H       1  LIG1        0.1423
     53 N          15.2896    2.4398    3.2204 N.1     1  LIG1       -0.1909
     54 C          14.7355    1.9923    2.3082 C.1     1  LIG1        0.0992
@<TRIPOS>BOND
     1    52    50    1
     2    24    23    1
     3    51    50    1
     4    23    25    1
     5    23    15    1
     6    50    41    1
     7    19    16    1
     8    45    42    1
     9    15    16   ar
    10    15    17   ar
    11    16    18   ar
    12    41    42   ar
    13    41    43   ar
    14    42    44   ar
    15    12    10    1
    16    36    28    1
    17    36    37    1
    18    36    38    1
    19    11    10    1
    20     5     2    1
    21    32    29    1
    22    28    29   ar
    23    28    30   ar
    24    29    31   ar
    25     2     4   ar
    26     2     1   ar
    27    17     4    1
    28    17    20   ar
    29     4     7   ar
    30    18    30    1
    31    18    21   ar
    32    31    43    1
    33    31    34   ar
    34    10     1    1
    35    30    33   ar
    36     1     3   ar
    37    43    46   ar
    38    34    33   ar
    39    34    40    1
    40    33    35    1
    41    39    40    3
    42     7     6   ar
    43     7    14    1
    44     3     6   ar
    45     3     9    1
    46     6     8    1
    47    14    13    3
    48    44    49    1
    49    44    47   ar
    50    20    21   ar
    51    20    22    1
    52    21    27    1
    53    46    47   ar
    54    46    48    1
    55    47    54    1
    56    27    26    3
    57    54    53    3
