@<TRIPOS>MOLECULE
mol_data/opt/cam/geoms/mol2/4hd4hd-.out
 28 29 0 0 0
SMALL
GASTEIGER

@<TRIPOS>ATOM
      1 C          -0.0143    0.1821   -0.5171 C.ar    1  LIG1        0.0252
      2 C           1.3869    0.2183   -0.5578 C.ar    1  LIG1       -0.0320
      3 C          -0.6959    1.2265    0.1256 C.ar    1  LIG1       -0.0398
      4 C           2.1103    1.2497    0.0239 C.ar    1  LIG1        0.0030
      5 H           1.9259   -0.5779   -1.0616 H       1  LIG1        0.0642
      6 C           0.0098    2.2571    0.7095 C.ar    1  LIG1       -0.0420
      7 C           1.4092    2.2870    0.6728 C.ar    1  LIG1        0.0596
      8 H          -0.5205    3.0565    1.2150 H       1  LIG1        0.0631
      9 H          -1.7802    1.2166    0.1689 H       1  LIG1        0.0636
     10 N          -0.7008   -0.8723   -1.0659 N.pl3   1  LIG1       -0.3579
     11 H          -1.6845   -0.7563   -1.2469 H       1  LIG1        0.1423
     12 H          -0.2152   -1.4674   -1.7172 H       1  LIG1        0.1423
     13 N           2.6373    4.2541    1.8257 N.1     1  LIG1       -0.1909
     14 C           2.0987    3.3630    1.3192 C.1     1  LIG1        0.0998
     15 C           4.3536    2.1873   -0.7059 C.ar    1  LIG1        0.0325
     16 C           5.7532    2.0787   -0.7103 C.ar    1  LIG1       -0.0392
     17 C           3.5986    1.2081   -0.0225 C.ar    1  LIG1        0.0053
     18 C           6.3933    1.0347   -0.0779 C.ar    1  LIG1       -0.0426
     19 H           6.3350    2.8302   -1.2347 H       1  LIG1        0.0636
     20 C           4.2579    0.1550    0.5984 C.ar    1  LIG1       -0.0348
     21 C           5.6493    0.0519    0.5830 C.ar    1  LIG1        0.0525
     22 H           3.6739   -0.5948    1.1207 H       1  LIG1        0.0637
     23 H           7.4754    0.9705   -0.0933 H       1  LIG1        0.0631
     24 N           3.7504    3.1977   -1.4190 N.pl3   1  LIG1       -0.3575
     25 H           4.3125    4.0153   -1.5976 H       1  LIG1        0.1423
     26 H           2.7900    3.4105   -1.2016 H       1  LIG1        0.1423
     27 N           6.8265   -1.9337    1.7554 N.1     1  LIG1       -0.1909
     28 C           6.3004   -1.0440    1.2341 C.1     1  LIG1        0.0992
@<TRIPOS>BOND
     1    12    10    1
     2    25    24    1
     3    24    26    1
     4    24    15    1
     5    11    10    1
     6    19    16    1
     7    10     1    1
     8     5     2    1
     9    16    15   ar
    10    16    18   ar
    11    15    17   ar
    12     2     1   ar
    13     2     4   ar
    14     1     3   ar
    15    23    18    1
    16    18    21   ar
    17    17     4    1
    18    17    20   ar
    19     4     7   ar
    20     3     9    1
    21     3     6   ar
    22    21    20   ar
    23    21    28    1
    24    20    22    1
    25     7     6   ar
    26     7    14    1
    27     6     8    1
    28    28    27    3
    29    14    13    3
