@<TRIPOS>MOLECULE
mol_data/opt/cam/geoms/mol2/4hd4hd4hd-4hd-.out
 54 57 0 0 0
SMALL
GASTEIGER

@<TRIPOS>ATOM
      1 C          -0.2312   -0.0132    0.0940 C.ar    1  LIG1        0.0252
      2 C           1.1706    0.0059    0.0519 C.ar    1  LIG1       -0.0320
      3 C          -0.9208    1.2091    0.0801 C.ar    1  LIG1       -0.0398
      4 C           1.8829    1.1982    0.0084 C.ar    1  LIG1        0.0030
      5 H           1.7166   -0.9321    0.0775 H       1  LIG1        0.0642
      6 C          -0.2246    2.3982    0.0278 C.ar    1  LIG1       -0.0420
      7 C           1.1744    2.4150   -0.0121 C.ar    1  LIG1        0.0596
      8 H          -0.7632    3.3391    0.0112 H       1  LIG1        0.0631
      9 H          -2.0054    1.2156    0.1162 H       1  LIG1        0.0636
     10 N          -0.9098   -1.2010    0.1914 N.pl3   1  LIG1       -0.3579
     11 H          -1.8973   -1.2098   -0.0029 H       1  LIG1        0.1423
     12 H          -0.4196   -2.0558   -0.0139 H       1  LIG1        0.1423
     13 N           2.3931    4.6939   -0.1796 N.1     1  LIG1       -0.1909
     14 C           1.8583    3.6702   -0.1005 C.1     1  LIG1        0.0998
     15 C           4.0898    0.5617   -1.0485 C.ar    1  LIG1        0.0330
     16 C           5.4909    0.5888   -1.0181 C.ar    1  LIG1       -0.0314
     17 C           3.3713    1.1764   -0.0004 C.ar    1  LIG1        0.0053
     18 C           6.1983    1.1883    0.0119 C.ar    1  LIG1        0.0030
     19 H           6.0429    0.1367   -1.8363 H       1  LIG1        0.0643
     20 C           4.0782    1.7741    1.0319 C.ar    1  LIG1       -0.0342
     21 C           5.4738    1.7834    1.0641 C.ar    1  LIG1        0.0602
     22 H           3.5329    2.2391    1.8455 H       1  LIG1        0.0637
     23 N           3.4420   -0.0744   -2.0821 N.pl3   1  LIG1       -0.3575
     24 H           2.4737    0.1613   -2.2344 H       1  LIG1        0.1423
     25 H           3.9742   -0.2346   -2.9229 H       1  LIG1        0.1423
     26 N           6.6678    2.8674    3.0908 N.1     1  LIG1       -0.1908
     27 C           6.1401    2.3747    2.1860 C.1     1  LIG1        0.0998
     28 C           8.4513    2.3508   -0.0833 C.ar    1  LIG1        0.0330
     29 C           9.8506    2.2490   -0.0858 C.ar    1  LIG1       -0.0314
     30 C           7.6858    1.1652   -0.0078 C.ar    1  LIG1        0.0053
     31 C          10.5110    1.0297   -0.0372 C.ar    1  LIG1        0.0030
     32 H          10.4382    3.1607   -0.1264 H       1  LIG1        0.0643
     33 C           8.3455   -0.0540    0.0184 C.ar    1  LIG1       -0.0342
     34 C           9.7385   -0.1475    0.0003 C.ar    1  LIG1        0.0602
     35 H           7.7598   -0.9656    0.0656 H       1  LIG1        0.0637
     36 N           7.8642    3.5833   -0.2158 N.pl3   1  LIG1       -0.3575
     37 H           8.4196    4.3846    0.0393 H       1  LIG1        0.1423
     38 H           6.8862    3.6735    0.0092 H       1  LIG1        0.1423
     39 N          10.7852   -2.5157   -0.0260 N.1     1  LIG1       -0.1908
     40 C          10.3385   -1.4480   -0.0068 C.1     1  LIG1        0.0998
     41 C          12.7637    1.5802   -1.0403 C.ar    1  LIG1        0.0325
     42 C          14.1631    1.5290   -0.9615 C.ar    1  LIG1       -0.0392
     43 C          11.9987    0.9890   -0.0106 C.ar    1  LIG1        0.0053
     44 C          14.7964    0.9175    0.0997 C.ar    1  LIG1       -0.0426
     45 H          14.7514    1.9829   -1.7529 H       1  LIG1        0.0636
     46 C          12.6524    0.3688    1.0474 C.ar    1  LIG1       -0.0348
     47 C          14.0446    0.3280    1.1206 C.ar    1  LIG1        0.0525
     48 H          12.0666   -0.0867    1.8377 H       1  LIG1        0.0637
     49 H          15.8792    0.8896    0.1450 H       1  LIG1        0.0631
     50 N          12.1653    2.2303   -2.1001 N.pl3   1  LIG1       -0.3575
     51 H          12.7303    2.3500   -2.9263 H       1  LIG1        0.1423
     52 H          11.1999    2.0074   -2.2878 H       1  LIG1        0.1423
     53 N          15.2339   -0.8007    3.1246 N.1     1  LIG1       -0.1909
     54 C          14.6969   -0.3012    2.2293 C.1     1  LIG1        0.0992
@<TRIPOS>BOND
     1    51    50    1
     2    25    23    1
     3    52    50    1
     4    24    23    1
     5    50    41    1
     6    23    15    1
     7    19    16    1
     8    45    42    1
     9    15    16   ar
    10    15    17   ar
    11    41    42   ar
    12    41    43   ar
    13    16    18   ar
    14    42    44   ar
    15    36    28    1
    16    36    38    1
    17    36    37    1
    18    13    14    3
    19    32    29    1
    20    14     7    1
    21    29    28   ar
    22    29    31   ar
    23    28    30   ar
    24    31    43    1
    25    31    34   ar
    26    39    40    3
    27    12    10    1
    28     7     4   ar
    29     7     6   ar
    30    43    46   ar
    31    30    18    1
    32    30    33   ar
    33    40    34    1
    34    11    10    1
    35    17     4    1
    36    17    20   ar
    37    34    33   ar
    38     4     2   ar
    39     8     6    1
    40    18    21   ar
    41    33    35    1
    42     6     3   ar
    43     2     5    1
    44     2     1   ar
    45     3     1   ar
    46     3     9    1
    47     1    10    1
    48    44    49    1
    49    44    47   ar
    50    20    21   ar
    51    20    22    1
    52    46    47   ar
    53    46    48    1
    54    21    27    1
    55    47    54    1
    56    27    26    3
    57    54    53    3
