@<TRIPOS>MOLECULE
mol_data/opt/cam/geoms/mol2/4he13li-13ii-12li-.out
 59 62 0 0 0
SMALL
GASTEIGER

@<TRIPOS>ATOM
      1 C          -0.4163    0.5104    0.2560 C.ar    1  LIG1        0.0252
      2 C           0.9447    0.4661   -0.0434 C.ar    1  LIG1       -0.0306
      3 C          -0.9018    1.5505    1.0590 C.ar    1  LIG1       -0.0399
      4 C           1.8476    1.4180    0.4384 C.ar    1  LIG1        0.0190
      5 H           1.3249   -0.3264   -0.6767 H       1  LIG1        0.0643
      6 C          -0.0273    2.5035    1.5352 C.ar    1  LIG1       -0.0440
      7 C           1.3447    2.4668    1.2483 C.ar    1  LIG1        0.0340
      8 H          -0.3993    3.3117    2.1554 H       1  LIG1        0.0630
      9 H          -1.9578    1.6027    1.3049 H       1  LIG1        0.0636
     10 N          -1.2673   -0.4813   -0.2050 N.pl3   1  LIG1       -0.3579
     11 H          -2.2427   -0.2336   -0.2693 H       1  LIG1        0.1423
     12 H          -0.9395   -1.0067   -1.0011 H       1  LIG1        0.1423
     13 C           2.1511    3.5027    1.8186 C.1     1  LIG1       -0.0690
     14 C           2.7801    4.4035    2.3188 C.1     1  LIG1       -0.1139
     15 H           3.3344    5.1872    2.7816 H       1  LIG1        0.1232
     16 C           3.2568    1.2789    0.0675 C.ar    1  LIG1        0.0907
     17 C           3.9506    0.1993   -0.4670 C.ar    1  LIG1        0.1488
     18 C           5.3026    0.5601   -0.6783 C.ar    1  LIG1        0.0185
     19 C           5.4164    1.8747   -0.2590 C.ar    1  LIG1        0.0701
     20 N           4.1827    2.2905    0.1696 N.ar    1  LIG1       -0.3498
     21 H           4.0034    3.1619    0.6466 H       1  LIG1        0.1661
     22 O           3.4264   -1.0241   -0.8016 O.3     1  LIG1       -0.4927
     23 C           3.5789   -2.0045    0.2152 C.3     1  LIG1        0.0789
     24 H           3.1798   -2.9393   -0.1822 H       1  LIG1        0.0660
     25 H           4.6340   -2.1444    0.4752 H       1  LIG1        0.0660
     26 H           3.0241   -1.7257    1.1181 H       1  LIG1        0.0660
     27 C           6.3420   -0.2997   -1.3222 C.3     1  LIG1       -0.0342
     28 H           6.8640   -0.9408   -0.6032 H       1  LIG1        0.0279
     29 H           7.0987    0.3112   -1.8203 H       1  LIG1        0.0279
     30 H           5.8791   -0.9547   -2.0648 H       1  LIG1        0.0279
     31 C           6.5464    2.7895   -0.2746 C.ar    1  LIG1        0.0670
     32 C           7.8580    2.6364    0.1332 C.ar    1  LIG1       -0.0202
     33 C           8.5336    3.8676   -0.1131 C.ar    1  LIG1       -0.0185
     34 C           7.6031    4.7438   -0.6436 C.ar    1  LIG1        0.0895
     35 N           6.4021    4.0800   -0.7247 N.ar    1  LIG1       -0.3501
     36 H           5.5943    4.4412   -1.2062 H       1  LIG1        0.1661
     37 C           8.4625    1.4240    0.7676 C.3     1  LIG1       -0.0374
     38 H           9.0613    1.6946    1.6430 H       1  LIG1        0.0278
     39 H           9.1253    0.8838    0.0821 H       1  LIG1        0.0278
     40 H           7.6872    0.7284    1.0948 H       1  LIG1        0.0278
     41 C           9.9896    4.1127    0.1336 C.3     1  LIG1       -0.0373
     42 H          10.2797    5.1294   -0.1325 H       1  LIG1        0.0278
     43 H          10.6059    3.4196   -0.4489 H       1  LIG1        0.0278
     44 H          10.2504    3.9558    1.1868 H       1  LIG1        0.0278
     45 C           7.6877    6.1109   -1.1115 C.ar    1  LIG1        0.1927
     46 C           8.4499    7.2063   -0.8170 C.ar    1  LIG1        0.1699
     47 C           8.0132    8.2855   -1.6554 C.ar    1  LIG1        0.0297
     48 C           6.9983    7.7710   -2.3884 C.ar    1  LIG1        0.0992
     49 O           6.7816    6.4646   -2.0753 O.2     1  LIG1       -0.4574
     50 H           6.3542    8.1879   -3.1467 H       1  LIG1        0.1033
     51 O           9.4617    7.3240    0.0925 O.3     1  LIG1       -0.4910
     52 C           9.0482    7.2112    1.4491 C.3     1  LIG1        0.0790
     53 H           9.9390    7.3637    2.0597 H       1  LIG1        0.0660
     54 H           8.3024    7.9754    1.6946 H       1  LIG1        0.0660
     55 H           8.6297    6.2215    1.6571 H       1  LIG1        0.0660
     56 C           8.5830    9.6650   -1.6768 C.3     1  LIG1       -0.0332
     57 H           8.0535   10.2992   -2.3909 H       1  LIG1        0.0280
     58 H           9.6406    9.6488   -1.9540 H       1  LIG1        0.0280
     59 H           8.5176   10.1359   -0.6917 H       1  LIG1        0.0280
@<TRIPOS>BOND
     1    50    48    1
     2    57    56    1
     3    48    49   ar
     4    48    47   ar
     5    49    45   ar
     6    30    27    1
     7    58    56    1
     8    29    27    1
     9    56    47    1
    10    56    59    1
    11    47    46   ar
    12    27    18    1
    13    27    28    1
    14    36    35    1
    15    45    46   ar
    16    45    34    1
    17    12    10    1
    18    46    51    1
    19    22    17    1
    20    22    23    1
    21    35    34   ar
    22    35    31   ar
    23    18    17   ar
    24    18    19   ar
    25     5     2    1
    26    34    33   ar
    27    17    16   ar
    28    43    41    1
    29    31    19    1
    30    31    32   ar
    31    11    10    1
    32    19    20   ar
    33    10     1    1
    34    24    23    1
    35    42    41    1
    36    33    32   ar
    37    33    41    1
    38     2     1   ar
    39     2     4   ar
    40    16    20   ar
    41    16     4    1
    42    39    37    1
    43    51    52    1
    44    32    37    1
    45    41    44    1
    46    20    21    1
    47    23    25    1
    48    23    26    1
    49     1     3   ar
    50     4     7   ar
    51    37    40    1
    52    37    38    1
    53     3     9    1
    54     3     6   ar
    55     7     6   ar
    56     7    13    1
    57    52    55    1
    58    52    54    1
    59    52    53    1
    60     6     8    1
    61    13    14    3
    62    14    15    1
