@<TRIPOS>MOLECULE
mol_data/opt/cam/geoms/mol2/4he12ff6he4fi-.out
 52 55 0 0 0
SMALL
GASTEIGER

@<TRIPOS>ATOM
      1 C          -0.0295   -0.4096   -0.0336 C.ar    1  LIG1        0.0253
      2 C           1.3157   -0.1348   -0.2715 C.ar    1  LIG1       -0.0291
      3 C          -0.7947    0.5252    0.6754 C.ar    1  LIG1       -0.0399
      4 C           1.9243    1.0389    0.1845 C.ar    1  LIG1        0.0381
      5 H           1.9100   -0.8529   -0.8239 H       1  LIG1        0.0643
      6 C          -0.2049    1.6857    1.1291 C.ar    1  LIG1       -0.0439
      7 C           1.1493    1.9754    0.9081 C.ar    1  LIG1        0.0356
      8 H          -0.7958    2.4068    1.6829 H       1  LIG1        0.0630
      9 H          -1.8442    0.3309    0.8732 H       1  LIG1        0.0636
     10 N          -0.5887   -1.6050   -0.4559 N.pl3   1  LIG1       -0.3579
     11 H          -1.5900   -1.6093   -0.5744 H       1  LIG1        0.1423
     12 H          -0.0997   -2.0856   -1.1953 H       1  LIG1        0.1423
     13 C           1.6467    3.1956    1.4660 C.1     1  LIG1       -0.0689
     14 C           1.9645    4.2369    1.9849 C.1     1  LIG1       -0.1139
     15 H           2.2744    5.1338    2.4692 H       1  LIG1        0.1232
     16 C           3.3313    1.2261   -0.1286 C.ar    1  LIG1        0.1819
     17 C           4.2724    0.4093   -0.6977 C.ar    1  LIG1        0.2059
     18 C           5.4780    1.1510   -0.7827 C.ar    1  LIG1        0.2059
     19 C           5.2348    2.3872   -0.2578 C.ar    1  LIG1        0.1840
     20 O           3.9298    2.4324    0.1303 O.2     1  LIG1       -0.4471
     21 O           4.1290   -0.8649   -1.1322 O.3     1  LIG1       -0.5008
     22 H           4.9826   -1.1395   -1.4959 H       1  LIG1        0.2924
     23 O           6.6057    0.5977   -1.3167 O.3     1  LIG1       -0.5008
     24 H           7.1211    1.2811   -1.7641 H       1  LIG1        0.2924
     25 C           5.5909    4.8905   -0.1034 C.ar    1  LIG1        0.1278
     26 C           6.0826    3.5564   -0.0965 C.ar    1  LIG1        0.0617
     27 C           7.4571    3.4013    0.0089 C.ar    1  LIG1       -0.0302
     28 C           8.3177    4.4993    0.0856 C.ar    1  LIG1        0.0515
     29 C           7.7271    5.7760    0.0838 C.ar    1  LIG1        0.0919
     30 N           6.4096    5.9423   -0.0152 N.ar    1  LIG1       -0.2304
     31 H           7.8827    2.4037    0.0405 H       1  LIG1        0.0639
     32 N           4.2678    5.1782   -0.2374 N.pl3   1  LIG1       -0.3426
     33 H           4.0384    6.1506   -0.1049 H       1  LIG1        0.1437
     34 H           3.5718    4.4942    0.0215 H       1  LIG1        0.1437
     35 C           9.7299    4.2839    0.1015 C.1     1  LIG1       -0.0675
     36 C          10.9106    4.0477    0.0771 C.1     1  LIG1       -0.1138
     37 H          11.9582    3.8554    0.0642 H       1  LIG1        0.1232
     38 C           9.4376    7.2901    1.1647 C.ar    1  LIG1        0.1261
     39 C          10.1613    8.4782    1.1619 C.ar    1  LIG1       -0.0193
     40 C           8.5287    7.0272    0.1339 C.ar    1  LIG1        0.0433
     41 C           9.9767    9.4095    0.1496 C.ar    1  LIG1       -0.0554
     42 H          10.8600    8.6811    1.9698 H       1  LIG1        0.0654
     43 C           8.3400    7.9953   -0.8496 C.ar    1  LIG1       -0.0461
     44 C           9.0579    9.1881   -0.8737 C.ar    1  LIG1       -0.0496
     45 H           7.6024    7.7943   -1.6205 H       1  LIG1        0.0628
     46 H          10.5508   10.3315    0.1665 H       1  LIG1        0.0621
     47 O           9.5456    6.3807    2.1702 O.3     1  LIG1       -0.5061
     48 H          10.2684    6.6346    2.7550 H       1  LIG1        0.2922
     49 C           8.8627   10.1896   -1.9821 C.3     1  LIG1       -0.0397
     50 H           7.8245   10.2077   -2.3233 H       1  LIG1        0.0278
     51 H           9.4863    9.9527   -2.8511 H       1  LIG1        0.0278
     52 H           9.1266   11.1992   -1.6573 H       1  LIG1        0.0278
@<TRIPOS>BOND
     1    51    49    1
     2    50    49    1
     3    49    52    1
     4    49    44    1
     5    24    23    1
     6    45    43    1
     7    22    21    1
     8    23    18    1
     9    12    10    1
    10    21    17    1
    11    44    43   ar
    12    44    41   ar
    13    43    40   ar
    14     5     2    1
    15    18    17   ar
    16    18    19   ar
    17    17    16   ar
    18    11    10    1
    19    10     1    1
    20     2     1   ar
    21     2     4   ar
    22    19    26    1
    23    19    20   ar
    24    32    33    1
    25    32    25    1
    26    32    34    1
    27    16    20   ar
    28    16     4    1
    29    25    26   ar
    30    25    30   ar
    31    26    27   ar
    32     1     3   ar
    33    30    29   ar
    34    27    31    1
    35    27    28   ar
    36    37    36    1
    37    36    35    3
    38    29    28   ar
    39    29    40    1
    40    28    35    1
    41    40    38   ar
    42    41    46    1
    43    41    39   ar
    44     4     7   ar
    45     3     9    1
    46     3     6   ar
    47     7     6   ar
    48     7    13    1
    49     6     8    1
    50    39    38   ar
    51    39    42    1
    52    38    47    1
    53    13    14    3
    54    14    15    1
    55    47    48    1
