@<TRIPOS>MOLECULE
mol_data/opt/cam/geoms/mol2/4he12al12de-4ah-.out
 49 52 0 0 0
SMALL
GASTEIGER

@<TRIPOS>ATOM
      1 C          -0.0028   -0.1116   -0.5806 C.ar    1  LIG1        0.0253
      2 C           1.3808    0.0251   -0.4655 C.ar    1  LIG1       -0.0292
      3 C          -0.8077    0.9869   -0.2544 C.ar    1  LIG1       -0.0399
      4 C           1.9713    1.2094   -0.0259 C.ar    1  LIG1        0.0345
      5 H           2.0193   -0.8063   -0.7467 H       1  LIG1        0.0643
      6 C          -0.2311    2.1651    0.1747 C.ar    1  LIG1       -0.0439
      7 C           1.1565    2.3132    0.3053 C.ar    1  LIG1        0.0354
      8 H          -0.8624    3.0086    0.4305 H       1  LIG1        0.0630
      9 H          -1.8873    0.9087   -0.3379 H       1  LIG1        0.0636
     10 N          -0.5665   -1.3131   -0.9745 N.pl3   1  LIG1       -0.3579
     11 H          -1.5003   -1.2640   -1.3520 H       1  LIG1        0.1423
     12 H           0.0336   -1.9423   -1.4853 H       1  LIG1        0.1423
     13 C           1.6512    3.5594    0.8066 C.1     1  LIG1       -0.0690
     14 C           1.9761    4.6306    1.2526 C.1     1  LIG1       -0.1139
     15 H           2.2868    5.5699    1.6513 H       1  LIG1        0.1232
     16 C           3.4287    1.2337    0.0825 C.ar    1  LIG1        0.1407
     17 C           4.3333    0.2357    0.3314 C.ar    1  LIG1        0.0268
     18 C           5.6148    0.8510    0.2999 C.ar    1  LIG1        0.1693
     19 C           5.4088    2.1813    0.0252 C.ar    1  LIG1        0.2132
     20 O           4.0680    2.4043   -0.1037 O.2     1  LIG1       -0.4478
     21 H           4.1039   -0.7949    0.5504 H       1  LIG1        0.0692
     22 O           6.8285    0.3263    0.5158 O.3     1  LIG1       -0.4912
     23 C           6.8998   -1.0705    0.7330 C.3     1  LIG1        0.0790
     24 H           7.9576   -1.3029    0.8447 H       1  LIG1        0.0660
     25 H           6.3626   -1.3578    1.6438 H       1  LIG1        0.0660
     26 H           6.4937   -1.6243   -0.1206 H       1  LIG1        0.0660
     27 C           6.2686    3.3179   -0.1039 C.ar    1  LIG1        0.1928
     28 C           7.6201    3.5140   -0.2529 C.ar    1  LIG1        0.1166
     29 C           7.8181    4.9468   -0.2966 C.ar    1  LIG1        0.0885
     30 C           6.5746    5.5110   -0.1814 C.ar    1  LIG1        0.1525
     31 O           5.6510    4.5167   -0.0644 O.2     1  LIG1       -0.4490
     32 N           9.5143    1.7904   -0.5237 N.1     1  LIG1       -0.1907
     33 C           8.6478    2.5462   -0.3916 C.1     1  LIG1        0.1043
     34 C           9.0745    5.5865   -0.4491 C.1     1  LIG1       -0.0645
     35 C          10.1588    6.0927   -0.5799 C.1     1  LIG1       -0.1138
     36 H          11.1221    6.5328   -0.6982 H       1  LIG1        0.1232
     37 C           6.8774    7.9867   -0.1266 C.ar    1  LIG1       -0.0509
     38 C           6.3067    9.2506   -0.0783 C.ar    1  LIG1       -0.0594
     39 C           6.0400    6.8670   -0.1510 C.ar    1  LIG1        0.0203
     40 C           4.9296    9.4208   -0.0523 C.ar    1  LIG1       -0.0410
     41 H           6.9492   10.1251   -0.0585 H       1  LIG1        0.0618
     42 C           4.6536    7.0338   -0.1325 C.ar    1  LIG1       -0.0303
     43 C           4.0858    8.3057   -0.0788 C.ar    1  LIG1        0.0252
     44 H           4.0107    6.1609   -0.1530 H       1  LIG1        0.0643
     45 H           4.5019   10.4182   -0.0071 H       1  LIG1        0.0636
     46 H           7.9525    7.8672   -0.1401 H       1  LIG1        0.0625
     47 N           2.7016    8.4466    0.0025 N.pl3   1  LIG1       -0.3579
     48 H           2.3430    9.3428   -0.2926 H       1  LIG1        0.1423
     49 H           2.1729    7.6799   -0.3882 H       1  LIG1        0.1423
@<TRIPOS>BOND
     1    12    10    1
     2    11    10    1
     3    10     1    1
     4     5     2    1
     5    36    35    1
     6     1     2   ar
     7     1     3   ar
     8    35    34    3
     9    32    33    3
    10     2     4   ar
    11    34    29    1
    12    33    28    1
    13    49    47    1
    14     9     3    1
    15    29    28   ar
    16    29    30   ar
    17    48    47    1
    18     3     6   ar
    19    28    27   ar
    20    30    39    1
    21    30    31   ar
    22    44    42    1
    23    39    42   ar
    24    39    37   ar
    25    46    37    1
    26    42    43   ar
    27    37    38   ar
    28    26    23    1
    29    27    31   ar
    30    27    19    1
    31    20    19   ar
    32    20    16   ar
    33    43    40   ar
    34    43    47    1
    35    38    41    1
    36    38    40   ar
    37    40    45    1
    38     4    16    1
    39     4     7   ar
    40    19    18   ar
    41    16    17   ar
    42     6     7   ar
    43     6     8    1
    44    18    17   ar
    45    18    22    1
    46     7    13    1
    47    17    21    1
    48    22    23    1
    49    23    24    1
    50    23    25    1
    51    13    14    3
    52    14    15    1
