@<TRIPOS>MOLECULE
mol_data/opt/cam/geoms/mol2/4he4hf6ih12fe-13hl6fl-4di12lf.out
 107 114 0 0 0
SMALL
GASTEIGER

@<TRIPOS>ATOM
      1 C          -0.1229    2.2593    0.6934 C.ar    1  LIG1        0.0252
      2 C           1.2651    2.1123    0.6120 C.ar    1  LIG1       -0.0321
      3 C          -0.9297    1.4344   -0.0993 C.ar    1  LIG1       -0.0399
      4 C           1.8605    1.1779   -0.2318 C.ar    1  LIG1        0.0011
      5 H           1.9034    2.7492    1.2165 H       1  LIG1        0.0642
      6 C          -0.3518    0.4997   -0.9353 C.ar    1  LIG1       -0.0440
      7 C           1.0383    0.3464   -1.0211 C.ar    1  LIG1        0.0325
      8 H          -0.9822   -0.1426   -1.5405 H       1  LIG1        0.0630
      9 H          -2.0102    1.5338   -0.0572 H       1  LIG1        0.0636
     10 N          -0.6815    3.2361    1.5000 N.pl3   1  LIG1       -0.3579
     11 H          -1.6431    3.0992    1.7698 H       1  LIG1        0.1423
     12 H          -0.1012    3.5840    2.2477 H       1  LIG1        0.1423
     13 C           1.5672   -0.6659   -1.8845 C.1     1  LIG1       -0.0691
     14 C           1.9647   -1.5334   -2.6200 C.1     1  LIG1       -0.1139
     15 H           2.3303   -2.3009   -3.2619 H       1  LIG1        0.1232
     16 C           4.1171    0.8855    0.8634 C.ar    1  LIG1        0.0332
     17 C           5.5073    0.8518    0.7396 C.ar    1  LIG1       -0.0292
     18 C           3.3461    1.1008   -0.2902 C.ar    1  LIG1        0.0075
     19 C           6.1616    1.0294   -0.4759 C.ar    1  LIG1        0.0271
     20 H           6.1102    0.6955    1.6299 H       1  LIG1        0.0643
     21 C           3.9986    1.2662   -1.5121 C.ar    1  LIG1       -0.0101
     22 C           5.3797    1.2298   -1.6187 C.ar    1  LIG1        0.1253
     23 H           3.3988    1.4161   -2.4053 H       1  LIG1        0.0661
     24 N           3.5302    0.7478    2.1296 N.pl3   1  LIG1       -0.3575
     25 H           2.5849    0.3909    2.1078 H       1  LIG1        0.1423
     26 H           4.1024    0.2310    2.7825 H       1  LIG1        0.1423
     27 O           6.0174    1.3691   -2.8213 O.3     1  LIG1       -0.5061
     28 H           5.3562    1.4713   -3.5154 H       1  LIG1        0.2922
     29 C           8.4486    2.0511   -0.9103 C.ar    1  LIG1        0.0469
     30 C           7.6453    0.9569   -0.5344 C.ar    1  LIG1        0.0085
     31 C           8.2831   -0.2140   -0.1580 C.ar    1  LIG1       -0.0293
     32 C           9.6757   -0.3244   -0.1599 C.ar    1  LIG1        0.0547
     33 C          10.3866    0.8136   -0.5851 C.ar    1  LIG1        0.1305
     34 N           9.7711    1.9515   -0.9307 N.ar    1  LIG1       -0.2462
     35 H           7.6860   -1.0684    0.1503 H       1  LIG1        0.0643
     36 C           7.8660    3.3842   -1.2901 C.3     1  LIG1       -0.0217
     37 H           7.1248    3.7202   -0.5592 H       1  LIG1        0.0293
     38 H           7.3640    3.3237   -2.2592 H       1  LIG1        0.0293
     39 H           8.6684    4.1193   -1.3512 H       1  LIG1        0.0293
     40 N          10.2902   -1.4735    0.3149 N.pl3   1  LIG1       -0.3562
     41 H           9.6692   -2.2652    0.3940 H       1  LIG1        0.1424
     42 H          11.1766   -1.7209   -0.1071 H       1  LIG1        0.1424
     43 C          11.8473    0.8646   -0.6392 C.ar    1  LIG1        0.1981
     44 C          12.8635   -0.0100   -0.8711 C.ar    1  LIG1        0.1807
     45 C          14.1042    0.7118   -0.8283 C.ar    1  LIG1        0.1140
     46 C          13.7547    2.0209   -0.5722 C.ar    1  LIG1        0.1728
     47 O          12.4148    2.1091   -0.4610 O.2     1  LIG1       -0.4466
     48 O          12.7531   -1.3355   -1.1519 O.3     1  LIG1       -0.5023
     49 H          13.6445   -1.7051   -1.2215 H       1  LIG1        0.2923
     50 C          15.3528    0.1108   -1.1110 C.1     1  LIG1       -0.0621
     51 C          16.3641   -0.4965   -1.3727 C.1     1  LIG1       -0.1137
     52 H          17.2644   -1.0135   -1.6144 H       1  LIG1        0.1232
     53 C          14.4540    3.2566   -0.4017 C.ar    1  LIG1        0.1085
     54 C          15.7819    3.5755   -0.1591 C.ar    1  LIG1        0.0962
     55 C          15.8332    4.9884   -0.0107 C.ar    1  LIG1        0.1667
     56 C          14.5614    5.5071   -0.1476 C.ar    1  LIG1        0.0964
     57 N          13.7298    4.4478   -0.4350 N.ar    1  LIG1       -0.3472
     58 H          12.7340    4.4470   -0.2575 H       1  LIG1        0.1662
     59 N          16.8757    2.7569    0.0016 N.pl3   1  LIG1       -0.3534
     60 H          16.8771    1.8710   -0.4808 H       1  LIG1        0.1425
     61 H          17.7573    3.2470    0.0023 H       1  LIG1        0.1425
     62 O          17.0002    5.6657    0.2240 O.3     1  LIG1       -0.4911
     63 C          17.5059    6.3710   -0.9072 C.3     1  LIG1        0.0790
     64 H          18.4699    6.7873   -0.6117 H       1  LIG1        0.0660
     65 H          17.6440    5.6975   -1.7602 H       1  LIG1        0.0660
     66 H          16.8359    7.1855   -1.1990 H       1  LIG1        0.0660
     67 C          13.0122    7.3820   -0.7990 C.ar    1  LIG1        0.2225
     68 C          14.0990    6.8878   -0.0520 C.ar    1  LIG1        0.0668
     69 C          14.7423    7.7863    0.7997 C.ar    1  LIG1       -0.0035
     70 C          14.3003    9.0985    0.8902 C.ar    1  LIG1        0.1468
     71 C          13.2318    9.4970    0.0730 C.ar    1  LIG1        0.1175
     72 N          12.6037    8.6321   -0.7252 N.ar    1  LIG1       -0.2087
     73 H          15.5738    7.4308    1.3948 H       1  LIG1        0.0663
     74 O          12.3058    6.6013   -1.6542 O.3     1  LIG1       -0.4919
     75 H          12.8112    5.7996   -1.8516 H       1  LIG1        0.2937
     76 O          14.8008   10.0154    1.7560 O.3     1  LIG1       -0.4929
     77 C          16.0939    9.7927    2.2843 C.3     1  LIG1        0.0789
     78 H          16.3605   10.7015    2.8222 H       1  LIG1        0.0660
     79 H          16.1045    8.9467    2.9810 H       1  LIG1        0.0660
     80 H          16.8215    9.6242    1.4840 H       1  LIG1        0.0660
     81 C          13.5264   12.0241   -0.0580 C.ar    1  LIG1        0.0617
     82 C          12.9559   13.2937   -0.0927 C.ar    1  LIG1       -0.0327
     83 C          12.7109   10.8876    0.0640 C.ar    1  LIG1        0.0217
     84 C          11.5746   13.4778   -0.0001 C.ar    1  LIG1        0.0252
     85 H          13.5991   14.1577   -0.1980 H       1  LIG1        0.0638
     86 C          11.3357   11.0867    0.1242 C.ar    1  LIG1       -0.0476
     87 C          10.7407   12.3445    0.1060 C.ar    1  LIG1       -0.0390
     88 H          10.7045   10.2074    0.1893 H       1  LIG1        0.0627
     89 N          16.0927   11.8809   -0.4022 N.1     1  LIG1       -0.1908
     90 C          14.9488   11.9263   -0.2330 C.1     1  LIG1        0.0998
     91 C           9.2408   12.4297    0.2137 C.3     1  LIG1       -0.0390
     92 H           8.8247   11.4473    0.4433 H       1  LIG1        0.0278
     93 H           8.7927   12.7839   -0.7172 H       1  LIG1        0.0278
     94 H           8.9330   13.1287    0.9946 H       1  LIG1        0.0278
     95 C          11.0743   14.8512   -0.0159 C.ar    1  LIG1        0.1803
     96 C          11.6782   16.0472    0.2690 C.ar    1  LIG1        0.2076
     97 C          10.7013   17.0690    0.0392 C.ar    1  LIG1        0.1978
     98 C           9.5742   16.4338   -0.3672 C.ar    1  LIG1        0.1377
     99 O           9.7927   15.0912   -0.4122 O.2     1  LIG1       -0.4554
    100 H           8.5931   16.7748   -0.6558 H       1  LIG1        0.1069
    101 O          12.9719   16.2259    0.6364 O.3     1  LIG1       -0.4884
    102 C          13.1594   16.9216    1.8667 C.3     1  LIG1        0.0791
    103 H          14.2366   16.9839    2.0207 H       1  LIG1        0.0660
    104 H          12.7351   17.9274    1.8183 H       1  LIG1        0.0660
    105 H          12.7037   16.3700    2.6961 H       1  LIG1        0.0660
    106 O          10.9573   18.3899    0.2232 O.3     1  LIG1       -0.5012
    107 H          10.1744   18.9048   -0.0033 H       1  LIG1        0.2924
@<TRIPOS>BOND
     1    28    27    1
     2    15    14    1
     3    27    22    1
     4    14    13    3
     5    23    21    1
     6    38    36    1
     7    13     7    1
     8    75    74    1
     9    65    63    1
    10    74    67    1
    11    22    21   ar
    12    22    19   ar
    13    52    51    1
    14     8     6    1
    15    21    18   ar
    16    51    50    3
    17    39    36    1
    18    36    29    1
    19    36    37    1
    20    49    48    1
    21    66    63    1
    22    48    44    1
    23    50    45    1
    24     7     6   ar
    25     7     4   ar
    26     6     3   ar
    27    34    29   ar
    28    34    33   ar
    29    29    30   ar
    30    63    64    1
    31    63    62    1
    32    44    45   ar
    33    44    43   ar
    34    45    46   ar
    35    67    72   ar
    36    67    68   ar
    37    72    71   ar
    38    93    91    1
    39   100    98    1
    40    43    33    1
    41    43    47   ar
    42    33    32   ar
    43    46    47   ar
    44    46    53    1
    45    30    19    1
    46    30    31   ar
    47    60    59    1
    48    19    17   ar
    49    57    53   ar
    50    57    58    1
    51    57    56   ar
    52    99    98   ar
    53    99    95   ar
    54    89    90    3
    55    53    54   ar
    56    98    97   ar
    57    18     4    1
    58    18    16   ar
    59    90    81    1
    60     4     2   ar
    61    85    82    1
    62    32    31   ar
    63    32    40    1
    64    54    55   ar
    65    54    59    1
    66    31    35    1
    67    56    68    1
    68    56    55   ar
    69    42    40    1
    70     3     9    1
    71     3     1   ar
    72    82    81   ar
    73    82    84   ar
    74    81    83   ar
    75    68    69   ar
    76    95    84    1
    77    95    96   ar
    78    55    62    1
    79   107   106    1
    80    84    87   ar
    81    59    61    1
    82    97   106    1
    83    97    96   ar
    84    83    71    1
    85    83    86   ar
    86    71    70   ar
    87    87    86   ar
    88    87    91    1
    89    86    88    1
    90    91    92    1
    91    91    94    1
    92    96   101    1
    93    40    41    1
    94     2     1   ar
    95     2     5    1
    96   101   102    1
    97     1    10    1
    98    17    16   ar
    99    17    20    1
   100    69    70   ar
   101    69    73    1
   102    16    24    1
   103    70    76    1
   104    80    77    1
   105    10    11    1
   106    10    12    1
   107    76    77    1
   108   104   102    1
   109   102   103    1
   110   102   105    1
   111    25    24    1
   112    24    26    1
   113    77    78    1
   114    77    79    1
