@<TRIPOS>MOLECULE
mol_data/opt/cam/geoms/mol2/4he4ih-4ad-6hl-.out
 57 60 0 0 0
SMALL
GASTEIGER

@<TRIPOS>ATOM
      1 C          -0.2419    1.5879   -1.2366 C.ar    1  LIG1        0.0252
      2 C           1.1537    1.4881   -1.2236 C.ar    1  LIG1       -0.0322
      3 C          -0.9286    1.4914   -0.0212 C.ar    1  LIG1       -0.0399
      4 C           1.8630    1.2920   -0.0446 C.ar    1  LIG1       -0.0005
      5 H           1.7014    1.5526   -2.1593 H       1  LIG1        0.0642
      6 C          -0.2315    1.3047    1.1569 C.ar    1  LIG1       -0.0440
      7 C           1.1648    1.2021    1.1747 C.ar    1  LIG1        0.0325
      8 H          -0.7700    1.2411    2.0962 H       1  LIG1        0.0630
      9 H          -2.0121    1.5619   -0.0071 H       1  LIG1        0.0636
     10 N          -0.9286    1.7284   -2.4315 N.pl3   1  LIG1       -0.3579
     11 H          -1.8603    2.1087   -2.3677 H       1  LIG1        0.1423
     12 H          -0.4016    2.0987   -3.2074 H       1  LIG1        0.1423
     13 C           1.8437    1.0350    2.4232 C.1     1  LIG1       -0.0691
     14 C           2.3893    0.8935    3.4879 C.1     1  LIG1       -0.1139
     15 H           2.8821    0.7785    4.4255 H       1  LIG1        0.1232
     16 C           4.0309   -0.0054    0.0837 C.ar    1  LIG1       -0.0420
     17 C           5.4154    0.0135   -0.0245 C.ar    1  LIG1       -0.0488
     18 C           3.3513    1.2083   -0.1063 C.ar    1  LIG1       -0.0120
     19 C           6.1538    1.1668   -0.3000 C.ar    1  LIG1        0.0031
     20 H           5.9589   -0.9140    0.1326 H       1  LIG1        0.0627
     21 C           4.0666    2.3619   -0.4037 C.ar    1  LIG1       -0.0324
     22 C           5.4600    2.3730   -0.5011 C.ar    1  LIG1        0.0329
     23 H           3.5233    3.2902   -0.5571 H       1  LIG1        0.0642
     24 C           3.3052   -1.2888    0.3901 C.3     1  LIG1       -0.0391
     25 H           3.9767   -2.1449    0.2925 H       1  LIG1        0.0278
     26 H           2.4595   -1.4433   -0.2854 H       1  LIG1        0.0278
     27 H           2.9093   -1.2862    1.4096 H       1  LIG1        0.0278
     28 N           6.1224    3.5727   -0.7619 N.pl3   1  LIG1       -0.3575
     29 H           7.0043    3.4863   -1.2463 H       1  LIG1        0.1423
     30 H           5.5386    4.2913   -1.1643 H       1  LIG1        0.1423
     31 C           8.2485    0.0402   -1.0933 C.ar    1  LIG1       -0.0533
     32 C           9.6285   -0.0802   -1.1450 C.ar    1  LIG1       -0.0521
     33 C           7.6337    1.0786   -0.3846 C.ar    1  LIG1       -0.0149
     34 C          10.4710    0.8336   -0.5071 C.ar    1  LIG1        0.0029
     35 H          10.0725   -0.9133   -1.6813 H       1  LIG1        0.0624
     36 C           8.4626    1.9903    0.2688 C.ar    1  LIG1       -0.0360
     37 C           9.8541    1.8761    0.2078 C.ar    1  LIG1        0.0601
     38 H           8.0260    2.8028    0.8381 H       1  LIG1        0.0637
     39 H           7.6289   -0.6850   -1.6105 H       1  LIG1        0.0624
     40 N          11.2386    3.6557    1.4911 N.1     1  LIG1       -0.1908
     41 C          10.6379    2.8583    0.9067 C.1     1  LIG1        0.0998
     42 C          12.6355    0.6206   -1.7983 C.ar    1  LIG1        0.1242
     43 C          11.9455    0.6803   -0.5715 C.ar    1  LIG1        0.0263
     44 C          12.6939    0.5862    0.6016 C.ar    1  LIG1       -0.0074
     45 C          14.0706    0.4261    0.5357 C.ar    1  LIG1        0.1388
     46 C          14.6473    0.3381   -0.7291 C.ar    1  LIG1        0.0713
     47 N          13.9573    0.4313   -1.8557 N.ar    1  LIG1       -0.2365
     48 H          12.1826    0.6343    1.5548 H       1  LIG1        0.0662
     49 H          15.7207    0.1854   -0.8094 H       1  LIG1        0.0868
     50 N          12.0151    0.8176   -3.0151 N.pl3   1  LIG1       -0.3427
     51 H          12.5669    0.5363   -3.8099 H       1  LIG1        0.1437
     52 H          11.0219    0.6810   -3.0852 H       1  LIG1        0.1437
     53 O          14.9091    0.3295    1.6035 O.3     1  LIG1       -0.4936
     54 C          14.3600    0.5691    2.8818 C.3     1  LIG1        0.0789
     55 H          15.1936    0.5397    3.5831 H       1  LIG1        0.0660
     56 H          13.8759    1.5515    2.9336 H       1  LIG1        0.0660
     57 H          13.6329   -0.2034    3.1620 H       1  LIG1        0.0660
@<TRIPOS>BOND
     1    51    50    1
     2    12    10    1
     3    52    50    1
     4    50    42    1
     5    10    11    1
     6    10     1    1
     7     5     2    1
     8    47    42   ar
     9    47    46   ar
    10    42    43   ar
    11    35    32    1
    12    39    31    1
    13    29    28    1
    14     1     2   ar
    15     1     3   ar
    16     2     4   ar
    17    30    28    1
    18    32    31   ar
    19    32    34   ar
    20    31    33   ar
    21    49    46    1
    22    28    22    1
    23    46    45   ar
    24    43    34    1
    25    43    44   ar
    26    23    21    1
    27    34    37   ar
    28    22    21   ar
    29    22    19   ar
    30    21    18   ar
    31    33    19    1
    32    33    36   ar
    33    19    17   ar
    34    26    24    1
    35    18     4    1
    36    18    16   ar
    37     4     7   ar
    38    17    16   ar
    39    17    20    1
    40     3     9    1
    41     3     6   ar
    42    16    24    1
    43    37    36   ar
    44    37    41    1
    45    36    38    1
    46    25    24    1
    47    24    27    1
    48    45    44   ar
    49    45    53    1
    50    44    48    1
    51    41    40    3
    52     6     7   ar
    53     6     8    1
    54     7    13    1
    55    53    54    1
    56    13    14    3
    57    54    56    1
    58    54    57    1
    59    54    55    1
    60    14    15    1
