@<TRIPOS>MOLECULE
mol_data/opt/cam/geoms/mol2/4he4da13li12el-.out
 55 58 0 0 0
SMALL
GASTEIGER

@<TRIPOS>ATOM
      1 C          -0.3270    0.3692    0.4566 C.ar    1  LIG1        0.0252
      2 C           1.0696    0.3374    0.4077 C.ar    1  LIG1       -0.0321
      3 C          -0.9824    1.5277    0.0254 C.ar    1  LIG1       -0.0399
      4 C           1.8122    1.4086   -0.0749 C.ar    1  LIG1        0.0005
      5 H           1.5855   -0.5493    0.7610 H       1  LIG1        0.0642
      6 C          -0.2540    2.6006   -0.4494 C.ar    1  LIG1       -0.0440
      7 C           1.1443    2.5703   -0.5158 C.ar    1  LIG1        0.0325
      8 H          -0.7694    3.4900   -0.7946 H       1  LIG1        0.0630
      9 H          -2.0662    1.5797    0.0618 H       1  LIG1        0.0636
     10 N          -1.0352   -0.7036    0.9714 N.pl3   1  LIG1       -0.3579
     11 H          -2.0059   -0.7581    0.7024 H       1  LIG1        0.1423
     12 H          -0.5686   -1.5973    0.9271 H       1  LIG1        0.1423
     13 C           1.8329    3.7006   -1.0609 C.1     1  LIG1       -0.0691
     14 C           2.3693    4.6725   -1.5291 C.1     1  LIG1       -0.1139
     15 H           2.8510    5.5232   -1.9523 H       1  LIG1        0.1232
     16 C           3.9664    0.2269   -0.6971 C.ar    1  LIG1        0.0601
     17 C           5.3586    0.1424   -0.6886 C.ar    1  LIG1       -0.0345
     18 C           3.2942    1.3092   -0.0992 C.ar    1  LIG1        0.0007
     19 C           6.1306    1.1289   -0.0720 C.ar    1  LIG1        0.0031
     20 H           5.8489   -0.6920   -1.1748 H       1  LIG1        0.0637
     21 C           4.0801    2.2882    0.5087 C.ar    1  LIG1       -0.0521
     22 C           5.4614    2.1998    0.5325 C.ar    1  LIG1       -0.0519
     23 H           3.5906    3.1284    0.9862 H       1  LIG1        0.0624
     24 N           2.7077   -1.6979   -1.8988 N.1     1  LIG1       -0.1908
     25 C           3.2477   -0.8256   -1.3645 C.1     1  LIG1        0.0998
     26 H           6.0239    2.9672    1.0551 H       1  LIG1        0.0624
     27 C           7.5860    1.0365   -0.0731 C.ar    1  LIG1        0.0895
     28 C           8.4339   -0.0457   -0.2588 C.ar    1  LIG1        0.1488
     29 C           9.7790    0.3845   -0.1724 C.ar    1  LIG1        0.0202
     30 C           9.7222    1.7525    0.0533 C.ar    1  LIG1        0.0904
     31 N           8.4001    2.1184    0.1302 N.ar    1  LIG1       -0.3486
     32 H           8.0974    3.0753    0.2081 H       1  LIG1        0.1661
     33 O           8.0482   -1.3403   -0.4799 O.3     1  LIG1       -0.4927
     34 C           7.7529   -2.0679    0.7065 C.3     1  LIG1        0.0789
     35 H           7.5047   -3.0844    0.3984 H       1  LIG1        0.0660
     36 H           8.6168   -2.0915    1.3798 H       1  LIG1        0.0660
     37 H           6.8999   -1.6312    1.2377 H       1  LIG1        0.0660
     38 C          10.9702   -0.5123   -0.2657 C.3     1  LIG1       -0.0341
     39 H          11.7159   -0.2723    0.4961 H       1  LIG1        0.0279
     40 H          11.4666   -0.4304   -1.2353 H       1  LIG1        0.0279
     41 H          10.6596   -1.5510   -0.1373 H       1  LIG1        0.0279
     42 C          10.7341    2.7620    0.2480 C.ar    1  LIG1        0.1702
     43 C          12.0345    2.9363   -0.1617 C.ar    1  LIG1        0.1134
     44 C          12.4463    4.2064    0.3961 C.ar    1  LIG1        0.1736
     45 C          11.3866    4.7029    1.0726 C.ar    1  LIG1        0.1354
     46 O          10.3371    3.8351    0.9843 O.2     1  LIG1       -0.4564
     47 H          11.2256    5.6156    1.6207 H       1  LIG1        0.1068
     48 C          12.7943    2.1441   -1.0594 C.1     1  LIG1       -0.0621
     49 C          13.4668    1.5088   -1.8311 C.1     1  LIG1       -0.1137
     50 H          14.0466    0.9528   -2.5313 H       1  LIG1        0.1232
     51 O          13.6322    4.8344    0.2206 O.3     1  LIG1       -0.4907
     52 C          14.7644    4.1346    0.7265 C.3     1  LIG1        0.0790
     53 H          15.6313    4.7590    0.5103 H       1  LIG1        0.0660
     54 H          14.6795    3.9908    1.8095 H       1  LIG1        0.0660
     55 H          14.8848    3.1640    0.2381 H       1  LIG1        0.0660
@<TRIPOS>BOND
     1    50    49    1
     2    15    14    1
     3    24    25    3
     4    49    48    3
     5    14    13    3
     6    25    16    1
     7    40    38    1
     8    20    17    1
     9    13     7    1
    10    48    43    1
    11     8     6    1
    12    16    17   ar
    13    16    18   ar
    14    17    19   ar
    15     7     6   ar
    16     7     4   ar
    17    33    28    1
    18    33    34    1
    19     6     3   ar
    20    38    29    1
    21    38    41    1
    22    38    39    1
    23    28    29   ar
    24    28    27   ar
    25    29    30   ar
    26    43    42   ar
    27    43    44   ar
    28    18     4    1
    29    18    21   ar
    30     4     2   ar
    31    27    19    1
    32    27    31   ar
    33    19    22   ar
    34     3     9    1
    35     3     1   ar
    36    30    31   ar
    37    30    42    1
    38    31    32    1
    39    51    44    1
    40    51    52    1
    41    55    52    1
    42    42    46   ar
    43    44    45   ar
    44    35    34    1
    45     2     1   ar
    46     2     5    1
    47     1    10    1
    48    21    22   ar
    49    21    23    1
    50    53    52    1
    51    22    26    1
    52    11    10    1
    53    34    37    1
    54    34    36    1
    55    52    54    1
    56    12    10    1
    57    46    45   ar
    58    45    47    1
